MODEL 1
REMARK VINA RESULT:      -2.1      0.000      0.000
REMARK  Name = 44716352
REMARK  7 active torsions:
REMARK  status: ('A' for Active; 'I' for Inactive)
REMARK    1  A    between atoms: N_2  and  C_11
REMARK    2  A    between atoms: N_2  and  C_13
REMARK    3  A    between atoms: C_4  and  C_10
REMARK    4  A    between atoms: C_5  and  C_11
REMARK    5  A    between atoms: C_10  and  C_12
REMARK    6  A    between atoms: C_13  and  C_14
REMARK    7  A    between atoms: C_19  and  C_20
REMARK                            x       y       z     vdW  Elec       q    Type
REMARK                         _______ _______ _______ _____ _____    ______ ____
ROOT
ATOM      2  N   UNL     1      -4.076  -0.435  24.085  0.00  0.00    -0.311 NA
ATOM     26  H   UNL     1      -3.648   0.097  23.327  0.00  0.00    +0.122 HD
ENDROOT
BRANCH   2  11
ATOM     11  C   UNL     1      -4.290   0.438  25.227  0.00  0.00    +0.100 C 
BRANCH  11   5
ATOM      1  N   UNL     1      -3.608   2.235  23.615  0.00  0.00    -0.298 NA
ATOM      3  C   UNL     1      -3.415   4.070  25.449  0.00  0.00    -0.004 C 
ATOM      4  C   UNL     1      -2.016   3.561  25.030  0.00  0.00    +0.006 C 
ATOM      5  C   UNL     1      -4.473   1.888  24.775  0.00  0.00    +0.071 C 
ATOM      6  C   UNL     1      -4.263   2.883  25.940  0.00  0.00    +0.024 C 
ATOM      7  C   UNL     1      -2.197   2.378  24.051  0.00  0.00    +0.088 C 
ATOM      8  C   UNL     1      -4.091   4.620  24.179  0.00  0.00    +0.019 C 
ATOM      9  C   UNL     1      -4.061   3.542  23.081  0.00  0.00    +0.085 C 
BRANCH   4  10
ATOM     10  C   UNL     1      -1.133   3.181  26.215  0.00  0.00    +0.002 C 
ATOM     12  C   UNL     1       0.069   2.368  25.771  0.00  0.00    +0.004 C 
ENDBRANCH   4  10
ENDBRANCH  11   5
ENDBRANCH   2  11
BRANCH   2  13
ATOM     13  C   UNL     1      -3.217  -1.559  24.439  0.00  0.00    +0.116 C 
BRANCH  13  14
ATOM     14  C   UNL     1      -1.763  -1.253  24.193  0.00  0.00    -0.034 A 
ATOM     15  C   UNL     1      -1.397  -0.397  23.154  0.00  0.00    +0.005 A 
ATOM     16  C   UNL     1      -0.783  -1.825  25.004  0.00  0.00    +0.005 A 
ATOM     17  C   UNL     1      -0.050  -0.113  22.927  0.00  0.00    +0.009 A 
ATOM     18  C   UNL     1       0.563  -1.543  24.776  0.00  0.00    +0.009 A 
ATOM     19  C   UNL     1       0.929  -0.686  23.738  0.00  0.00    -0.018 A 
BRANCH  19  20
ATOM     20  C   UNL     1       2.327  -0.392  23.502  0.00  0.00    -0.018 A 
ATOM     21  C   UNL     1       2.696   0.822  22.922  0.00  0.00    +0.008 A 
ATOM     22  C   UNL     1       3.305  -1.322  23.855  0.00  0.00    +0.008 A 
ATOM     23  C   UNL     1       4.043   1.105  22.695  0.00  0.00    +0.001 A 
ATOM     24  C   UNL     1       4.651  -1.038  23.630  0.00  0.00    +0.001 A 
ATOM     25  C   UNL     1       5.021   0.176  23.049  0.00  0.00    +0.000 A 
ENDBRANCH  19  20
ENDBRANCH  13  14
ENDBRANCH   2  13
TORSDOF 6
ENDMDL
MODEL 2
REMARK VINA RESULT:      -0.6      2.054      5.195
REMARK  Name = 44716352
REMARK  7 active torsions:
REMARK  status: ('A' for Active; 'I' for Inactive)
REMARK    1  A    between atoms: N_2  and  C_11
REMARK    2  A    between atoms: N_2  and  C_13
REMARK    3  A    between atoms: C_4  and  C_10
REMARK    4  A    between atoms: C_5  and  C_11
REMARK    5  A    between atoms: C_10  and  C_12
REMARK    6  A    between atoms: C_13  and  C_14
REMARK    7  A    between atoms: C_19  and  C_20
REMARK                            x       y       z     vdW  Elec       q    Type
REMARK                         _______ _______ _______ _____ _____    ______ ____
ROOT
ATOM      2  N   UNL     1      -3.613   1.545  23.122  0.00  0.00    -0.311 NA
ATOM     26  H   UNL     1      -4.334   1.653  22.409  0.00  0.00    +0.122 HD
ENDROOT
BRANCH   2  11
ATOM     11  C   UNL     1      -4.238   1.266  24.404  0.00  0.00    +0.100 C 
BRANCH  11   5
ATOM      1  N   UNL     1      -3.368  -0.557  25.893  0.00  0.00    -0.298 NA
ATOM      3  C   UNL     1      -2.768  -2.143  23.921  0.00  0.00    -0.004 C 
ATOM      4  C   UNL     1      -1.499  -1.466  24.489  0.00  0.00    +0.006 C 
ATOM      5  C   UNL     1      -4.207  -0.234  24.708  0.00  0.00    +0.071 C 
ATOM      6  C   UNL     1      -3.769  -1.060  23.477  0.00  0.00    +0.024 C 
ATOM      7  C   UNL     1      -1.929  -0.432  25.554  0.00  0.00    +0.088 C 
ATOM      8  C   UNL     1      -3.420  -2.918  25.081  0.00  0.00    +0.019 C 
ATOM      9  C   UNL     1      -3.633  -1.965  26.271  0.00  0.00    +0.085 C 
BRANCH   4  10
ATOM     10  C   UNL     1      -0.621  -0.833  23.412  0.00  0.00    +0.002 C 
ATOM     12  C   UNL     1       0.844  -0.866  23.804  0.00  0.00    +0.004 C 
ENDBRANCH   4  10
ENDBRANCH  11   5
ENDBRANCH   2  11
BRANCH   2  13
ATOM     13  C   UNL     1      -2.804   2.756  23.187  0.00  0.00    +0.116 C 
BRANCH  13  14
ATOM     14  C   UNL     1      -1.871   2.747  24.368  0.00  0.00    -0.034 A 
ATOM     15  C   UNL     1      -2.323   3.180  25.616  0.00  0.00    +0.005 A 
ATOM     16  C   UNL     1      -0.557   2.304  24.217  0.00  0.00    +0.005 A 
ATOM     17  C   UNL     1      -1.459   3.170  26.712  0.00  0.00    +0.009 A 
ATOM     18  C   UNL     1       0.306   2.295  25.312  0.00  0.00    +0.009 A 
ATOM     19  C   UNL     1      -0.145   2.728  26.559  0.00  0.00    -0.018 A 
BRANCH  19  20
ATOM     20  C   UNL     1       0.751   2.718  27.696  0.00  0.00    -0.018 A 
ATOM     21  C   UNL     1       0.270   2.380  28.961  0.00  0.00    +0.008 A 
ATOM     22  C   UNL     1       2.097   3.045  27.526  0.00  0.00    +0.008 A 
ATOM     23  C   UNL     1       1.134   2.371  30.056  0.00  0.00    +0.001 A 
ATOM     24  C   UNL     1       2.961   3.034  28.621  0.00  0.00    +0.001 A 
ATOM     25  C   UNL     1       2.480   2.697  29.886  0.00  0.00    +0.000 A 
ENDBRANCH  19  20
ENDBRANCH  13  14
ENDBRANCH   2  13
TORSDOF 6
ENDMDL
MODEL 3
REMARK VINA RESULT:      -0.3      0.925      1.816
REMARK  Name = 44716352
REMARK  7 active torsions:
REMARK  status: ('A' for Active; 'I' for Inactive)
REMARK    1  A    between atoms: N_2  and  C_11
REMARK    2  A    between atoms: N_2  and  C_13
REMARK    3  A    between atoms: C_4  and  C_10
REMARK    4  A    between atoms: C_5  and  C_11
REMARK    5  A    between atoms: C_10  and  C_12
REMARK    6  A    between atoms: C_13  and  C_14
REMARK    7  A    between atoms: C_19  and  C_20
REMARK                            x       y       z     vdW  Elec       q    Type
REMARK                         _______ _______ _______ _____ _____    ______ ____
ROOT
ATOM      2  N   UNL     1      -3.613  -0.044  23.767  0.00  0.00    -0.311 NA
ATOM     26  H   UNL     1      -3.020   0.785  23.789  0.00  0.00    +0.122 HD
ENDROOT
BRANCH   2  11
ATOM     11  C   UNL     1      -4.756   0.155  24.642  0.00  0.00    +0.100 C 
BRANCH  11   5
ATOM      1  N   UNL     1      -5.040   2.642  24.471  0.00  0.00    -0.298 NA
ATOM      3  C   UNL     1      -2.812   3.172  25.703  0.00  0.00    -0.004 C 
ATOM      4  C   UNL     1      -2.659   3.372  24.177  0.00  0.00    +0.006 C 
ATOM      5  C   UNL     1      -4.665   1.506  25.355  0.00  0.00    +0.071 C 
ATOM      6  C   UNL     1      -3.271   1.730  25.985  0.00  0.00    +0.024 C 
ATOM      7  C   UNL     1      -3.961   2.906  23.487  0.00  0.00    +0.088 C 
ATOM      8  C   UNL     1      -3.942   4.111  26.166  0.00  0.00    +0.019 C 
ATOM      9  C   UNL     1      -5.199   3.848  25.317  0.00  0.00    +0.085 C 
BRANCH   4  10
ATOM     10  C   UNL     1      -1.433   2.672  23.598  0.00  0.00    +0.002 C 
ATOM     12  C   UNL     1      -0.224   2.835  24.501  0.00  0.00    +0.004 C 
ENDBRANCH   4  10
ENDBRANCH  11   5
ENDBRANCH   2  11
BRANCH   2  13
ATOM     13  C   UNL     1      -2.838  -1.210  24.175  0.00  0.00    +0.116 C 
BRANCH  13  14
ATOM     14  C   UNL     1      -1.360  -0.993  23.992  0.00  0.00    -0.034 A 
ATOM     15  C   UNL     1      -0.467  -1.412  24.979  0.00  0.00    +0.005 A 
ATOM     16  C   UNL     1      -0.882  -0.375  22.836  0.00  0.00    +0.005 A 
ATOM     17  C   UNL     1       0.904  -1.211  24.810  0.00  0.00    +0.009 A 
ATOM     18  C   UNL     1       0.487  -0.174  22.668  0.00  0.00    +0.009 A 
ATOM     19  C   UNL     1       1.380  -0.593  23.654  0.00  0.00    -0.018 A 
BRANCH  19  20
ATOM     20  C   UNL     1       2.801  -0.384  23.479  0.00  0.00    -0.018 A 
ATOM     21  C   UNL     1       3.705  -1.375  23.867  0.00  0.00    +0.008 A 
ATOM     22  C   UNL     1       3.268   0.806  22.921  0.00  0.00    +0.008 A 
ATOM     23  C   UNL     1       5.074  -1.174  23.697  0.00  0.00    +0.001 A 
ATOM     24  C   UNL     1       4.638   1.005  22.750  0.00  0.00    +0.001 A 
ATOM     25  C   UNL     1       5.542   0.016  23.138  0.00  0.00    +0.000 A 
ENDBRANCH  19  20
ENDBRANCH  13  14
ENDBRANCH   2  13
TORSDOF 6
ENDMDL
MODEL 4
REMARK VINA RESULT:      -0.2      1.449      3.770
REMARK  Name = 44716352
REMARK  7 active torsions:
REMARK  status: ('A' for Active; 'I' for Inactive)
REMARK    1  A    between atoms: N_2  and  C_11
REMARK    2  A    between atoms: N_2  and  C_13
REMARK    3  A    between atoms: C_4  and  C_10
REMARK    4  A    between atoms: C_5  and  C_11
REMARK    5  A    between atoms: C_10  and  C_12
REMARK    6  A    between atoms: C_13  and  C_14
REMARK    7  A    between atoms: C_19  and  C_20
REMARK                            x       y       z     vdW  Elec       q    Type
REMARK                         _______ _______ _______ _____ _____    ______ ____
ROOT
ATOM      2  N   UNL     1      -3.956   3.841  25.599  0.00  0.00    -0.311 NA
ATOM     26  H   UNL     1      -4.660   4.502  25.929  0.00  0.00    +0.122 HD
ENDROOT
BRANCH   2  11
ATOM     11  C   UNL     1      -4.244   2.521  26.134  0.00  0.00    +0.100 C 
BRANCH  11   5
ATOM      1  N   UNL     1      -4.953   0.201  25.495  0.00  0.00    -0.298 NA
ATOM      3  C   UNL     1      -2.937  -0.180  23.897  0.00  0.00    -0.004 C 
ATOM      4  C   UNL     1      -2.726  -0.923  25.237  0.00  0.00    +0.006 C 
ATOM      5  C   UNL     1      -4.439   1.508  25.004  0.00  0.00    +0.071 C 
ATOM      6  C   UNL     1      -3.149   1.319  24.173  0.00  0.00    +0.024 C 
ATOM      7  C   UNL     1      -3.878  -0.545  26.195  0.00  0.00    +0.088 C 
ATOM      8  C   UNL     1      -4.242  -0.723  23.286  0.00  0.00    +0.019 C 
ATOM      9  C   UNL     1      -5.376  -0.595  24.318  0.00  0.00    +0.085 C 
BRANCH   4  10
ATOM     10  C   UNL     1      -1.361  -0.655  25.866  0.00  0.00    +0.002 C 
ATOM     12  C   UNL     1      -0.334  -1.677  25.414  0.00  0.00    +0.004 C 
ENDBRANCH   4  10
ENDBRANCH  11   5
ENDBRANCH   2  11
BRANCH   2  13
ATOM     13  C   UNL     1      -2.631   4.294  26.006  0.00  0.00    +0.116 C 
BRANCH  13  14
ATOM     14  C   UNL     1      -1.538   3.507  25.333  0.00  0.00    -0.034 A 
ATOM     15  C   UNL     1      -0.646   2.757  26.101  0.00  0.00    +0.005 A 
ATOM     16  C   UNL     1      -1.418   3.526  23.944  0.00  0.00    +0.005 A 
ATOM     17  C   UNL     1       0.367   2.027  25.478  0.00  0.00    +0.009 A 
ATOM     18  C   UNL     1      -0.405   2.798  23.321  0.00  0.00    +0.009 A 
ATOM     19  C   UNL     1       0.487   2.048  24.088  0.00  0.00    -0.018 A 
BRANCH  19  20
ATOM     20  C   UNL     1       1.538   1.291  23.442  0.00  0.00    -0.018 A 
ATOM     21  C   UNL     1       2.849   1.767  23.455  0.00  0.00    +0.008 A 
ATOM     22  C   UNL     1       1.240   0.085  22.807  0.00  0.00    +0.008 A 
ATOM     23  C   UNL     1       3.862   1.037  22.833  0.00  0.00    +0.001 A 
ATOM     24  C   UNL     1       2.253  -0.645  22.186  0.00  0.00    +0.001 A 
ATOM     25  C   UNL     1       3.564  -0.169  22.198  0.00  0.00    +0.000 A 
ENDBRANCH  19  20
ENDBRANCH  13  14
ENDBRANCH   2  13
TORSDOF 6
ENDMDL
MODEL 5
REMARK VINA RESULT:      -0.2      1.134      2.591
REMARK  Name = 44716352
REMARK  7 active torsions:
REMARK  status: ('A' for Active; 'I' for Inactive)
REMARK    1  A    between atoms: N_2  and  C_11
REMARK    2  A    between atoms: N_2  and  C_13
REMARK    3  A    between atoms: C_4  and  C_10
REMARK    4  A    between atoms: C_5  and  C_11
REMARK    5  A    between atoms: C_10  and  C_12
REMARK    6  A    between atoms: C_13  and  C_14
REMARK    7  A    between atoms: C_19  and  C_20
REMARK                            x       y       z     vdW  Elec       q    Type
REMARK                         _______ _______ _______ _____ _____    ______ ____
ROOT
ATOM      2  N   UNL     1      -3.514  -0.208  24.792  0.00  0.00    -0.311 NA
ATOM     26  H   UNL     1      -3.902   0.352  24.033  0.00  0.00    +0.122 HD
ENDROOT
BRANCH   2  11
ATOM     11  C   UNL     1      -2.603   0.606  25.578  0.00  0.00    +0.100 C 
BRANCH  11   5
ATOM      1  N   UNL     1      -2.547   3.083  25.974  0.00  0.00    -0.298 NA
ATOM      3  C   UNL     1      -4.057   3.636  23.930  0.00  0.00    -0.004 C 
ATOM      4  C   UNL     1      -4.858   3.732  25.249  0.00  0.00    +0.006 C 
ATOM      5  C   UNL     1      -2.449   1.998  24.961  0.00  0.00    +0.071 C 
ATOM      6  C   UNL     1      -3.448   2.227  23.805  0.00  0.00    +0.024 C 
ATOM      7  C   UNL     1      -3.955   3.255  26.409  0.00  0.00    +0.088 C 
ATOM      8  C   UNL     1      -2.886   4.631  24.043  0.00  0.00    +0.019 C 
ATOM      9  C   UNL     1      -2.102   4.345  25.337  0.00  0.00    +0.085 C 
BRANCH   4  10
ATOM     10  C   UNL     1      -6.176   2.965  25.210  0.00  0.00    +0.002 C 
ATOM     12  C   UNL     1      -6.171   1.806  26.189  0.00  0.00    +0.004 C 
ENDBRANCH   4  10
ENDBRANCH  11   5
ENDBRANCH   2  11
BRANCH   2  13
ATOM     13  C   UNL     1      -2.832  -1.373  24.240  0.00  0.00    +0.116 C 
BRANCH  13  14
ATOM     14  C   UNL     1      -1.362  -1.119  24.039  0.00  0.00    -0.034 A 
ATOM     15  C   UNL     1      -0.425  -1.807  24.812  0.00  0.00    +0.005 A 
ATOM     16  C   UNL     1      -0.936  -0.199  23.081  0.00  0.00    +0.005 A 
ATOM     17  C   UNL     1       0.939  -1.573  24.625  0.00  0.00    +0.009 A 
ATOM     18  C   UNL     1       0.426   0.035  22.896  0.00  0.00    +0.009 A 
ATOM     19  C   UNL     1       1.363  -0.652  23.668  0.00  0.00    -0.018 A 
BRANCH  19  20
ATOM     20  C   UNL     1       2.777  -0.409  23.475  0.00  0.00    -0.018 A 
ATOM     21  C   UNL     1       3.711  -1.356  23.895  0.00  0.00    +0.008 A 
ATOM     22  C   UNL     1       3.205   0.772  22.868  0.00  0.00    +0.008 A 
ATOM     23  C   UNL     1       5.073  -1.122  23.709  0.00  0.00    +0.001 A 
ATOM     24  C   UNL     1       4.567   1.005  22.680  0.00  0.00    +0.001 A 
ATOM     25  C   UNL     1       5.502   0.058  23.101  0.00  0.00    +0.000 A 
ENDBRANCH  19  20
ENDBRANCH  13  14
ENDBRANCH   2  13
TORSDOF 6
ENDMDL
MODEL 6
REMARK VINA RESULT:       0.1      2.674      5.677
REMARK  Name = 44716352
REMARK  7 active torsions:
REMARK  status: ('A' for Active; 'I' for Inactive)
REMARK    1  A    between atoms: N_2  and  C_11
REMARK    2  A    between atoms: N_2  and  C_13
REMARK    3  A    between atoms: C_4  and  C_10
REMARK    4  A    between atoms: C_5  and  C_11
REMARK    5  A    between atoms: C_10  and  C_12
REMARK    6  A    between atoms: C_13  and  C_14
REMARK    7  A    between atoms: C_19  and  C_20
REMARK                            x       y       z     vdW  Elec       q    Type
REMARK                         _______ _______ _______ _____ _____    ______ ____
ROOT
ATOM      2  N   UNL     1      -4.028   5.083  25.313  0.00  0.00    -0.311 NA
ATOM     26  H   UNL     1      -4.184   6.057  25.054  0.00  0.00    +0.122 HD
ENDROOT
BRANCH   2  11
ATOM     11  C   UNL     1      -2.889   4.562  24.576  0.00  0.00    +0.100 C 
BRANCH  11   5
ATOM      1  N   UNL     1      -0.425   4.288  24.962  0.00  0.00    -0.298 NA
ATOM      3  C   UNL     1      -0.655   1.898  25.963  0.00  0.00    -0.004 C 
ATOM      4  C   UNL     1      -0.143   1.838  24.505  0.00  0.00    +0.006 C 
ATOM      5  C   UNL     1      -1.786   4.105  25.534  0.00  0.00    +0.071 C 
ATOM      6  C   UNL     1      -2.000   2.647  26.001  0.00  0.00    +0.024 C 
ATOM      7  C   UNL     1      -0.165   3.267  23.917  0.00  0.00    +0.088 C 
ATOM      8  C   UNL     1       0.359   2.741  26.759  0.00  0.00    +0.019 C 
ATOM      9  C   UNL     1       0.559   4.094  26.053  0.00  0.00    +0.085 C 
BRANCH   4  10
ATOM     10  C   UNL     1      -0.924   0.859  23.633  0.00  0.00    +0.002 C 
ATOM     12  C   UNL     1      -0.296  -0.523  23.654  0.00  0.00    +0.004 C 
ENDBRANCH   4  10
ENDBRANCH  11   5
ENDBRANCH   2  11
BRANCH   2  13
ATOM     13  C   UNL     1      -5.230   4.305  25.037  0.00  0.00    +0.116 C 
BRANCH  13  14
ATOM     14  C   UNL     1      -4.929   2.838  24.892  0.00  0.00    -0.034 A 
ATOM     15  C   UNL     1      -4.219   2.379  23.781  0.00  0.00    +0.005 A 
ATOM     16  C   UNL     1      -5.357   1.937  25.866  0.00  0.00    +0.005 A 
ATOM     17  C   UNL     1      -3.938   1.018  23.647  0.00  0.00    +0.009 A 
ATOM     18  C   UNL     1      -5.078   0.577  25.732  0.00  0.00    +0.009 A 
ATOM     19  C   UNL     1      -4.368   0.119  24.622  0.00  0.00    -0.018 A 
BRANCH  19  20
ATOM     20  C   UNL     1      -4.077  -1.292  24.483  0.00  0.00    -0.018 A 
ATOM     21  C   UNL     1      -3.198  -1.915  25.369  0.00  0.00    +0.008 A 
ATOM     22  C   UNL     1      -4.678  -2.031  23.463  0.00  0.00    +0.008 A 
ATOM     23  C   UNL     1      -2.918  -3.275  25.235  0.00  0.00    +0.001 A 
ATOM     24  C   UNL     1      -4.399  -3.391  23.330  0.00  0.00    +0.001 A 
ATOM     25  C   UNL     1      -3.519  -4.013  24.215  0.00  0.00    +0.000 A 
ENDBRANCH  19  20
ENDBRANCH  13  14
ENDBRANCH   2  13
TORSDOF 6
ENDMDL
MODEL 7
REMARK VINA RESULT:       0.5      2.095      6.585
REMARK  Name = 44716352
REMARK  7 active torsions:
REMARK  status: ('A' for Active; 'I' for Inactive)
REMARK    1  A    between atoms: N_2  and  C_11
REMARK    2  A    between atoms: N_2  and  C_13
REMARK    3  A    between atoms: C_4  and  C_10
REMARK    4  A    between atoms: C_5  and  C_11
REMARK    5  A    between atoms: C_10  and  C_12
REMARK    6  A    between atoms: C_13  and  C_14
REMARK    7  A    between atoms: C_19  and  C_20
REMARK                            x       y       z     vdW  Elec       q    Type
REMARK                         _______ _______ _______ _____ _____    ______ ____
ROOT
ATOM      2  N   UNL     1       0.872  -0.617  23.907  0.00  0.00    -0.311 NA
ATOM     26  H   UNL     1       1.555  -1.096  23.321  0.00  0.00    +0.122 HD
ENDROOT
BRANCH   2  11
ATOM     11  C   UNL     1      -0.470  -0.955  23.463  0.00  0.00    +0.100 C 
BRANCH  11   5
ATOM      1  N   UNL     1      -2.300  -2.578  24.018  0.00  0.00    -0.298 NA
ATOM      3  C   UNL     1      -3.255  -1.129  25.956  0.00  0.00    -0.004 C 
ATOM      4  C   UNL     1      -4.137  -1.008  24.692  0.00  0.00    +0.006 C 
ATOM      5  C   UNL     1      -1.237  -1.692  24.563  0.00  0.00    +0.071 C 
ATOM      6  C   UNL     1      -1.813  -0.715  25.614  0.00  0.00    +0.024 C 
ATOM      7  C   UNL     1      -3.447  -1.769  23.537  0.00  0.00    +0.088 C 
ATOM      8  C   UNL     1      -3.223  -2.621  26.339  0.00  0.00    +0.019 C 
ATOM      9  C   UNL     1      -2.779  -3.448  25.119  0.00  0.00    +0.085 C 
BRANCH   4  10
ATOM     10  C   UNL     1      -4.446   0.436  24.309  0.00  0.00    +0.002 C 
ATOM     12  C   UNL     1      -5.734   0.916  24.953  0.00  0.00    +0.004 C 
ENDBRANCH   4  10
ENDBRANCH  11   5
ENDBRANCH   2  11
BRANCH   2  13
ATOM     13  C   UNL     1       1.097   0.822  23.845  0.00  0.00    +0.116 C 
BRANCH  13  14
ATOM     14  C   UNL     1      -0.161   1.600  24.122  0.00  0.00    -0.034 A 
ATOM     15  C   UNL     1      -1.111   1.772  23.114  0.00  0.00    +0.005 A 
ATOM     16  C   UNL     1      -0.379   2.149  25.386  0.00  0.00    +0.005 A 
ATOM     17  C   UNL     1      -2.278   2.492  23.371  0.00  0.00    +0.009 A 
ATOM     18  C   UNL     1      -1.545   2.869  25.643  0.00  0.00    +0.009 A 
ATOM     19  C   UNL     1      -2.495   3.040  24.635  0.00  0.00    -0.018 A 
BRANCH  19  20
ATOM     20  C   UNL     1      -3.705   3.788  24.901  0.00  0.00    -0.018 A 
ATOM     21  C   UNL     1      -4.121   4.781  24.013  0.00  0.00    +0.008 A 
ATOM     22  C   UNL     1      -4.456   3.516  26.045  0.00  0.00    +0.008 A 
ATOM     23  C   UNL     1      -5.288   5.501  24.270  0.00  0.00    +0.001 A 
ATOM     24  C   UNL     1      -5.623   4.235  26.300  0.00  0.00    +0.001 A 
ATOM     25  C   UNL     1      -6.040   5.228  25.413  0.00  0.00    +0.000 A 
ENDBRANCH  19  20
ENDBRANCH  13  14
ENDBRANCH   2  13
TORSDOF 6
ENDMDL
MODEL 8
REMARK VINA RESULT:       1.0      1.656      3.033
REMARK  Name = 44716352
REMARK  7 active torsions:
REMARK  status: ('A' for Active; 'I' for Inactive)
REMARK    1  A    between atoms: N_2  and  C_11
REMARK    2  A    between atoms: N_2  and  C_13
REMARK    3  A    between atoms: C_4  and  C_10
REMARK    4  A    between atoms: C_5  and  C_11
REMARK    5  A    between atoms: C_10  and  C_12
REMARK    6  A    between atoms: C_13  and  C_14
REMARK    7  A    between atoms: C_19  and  C_20
REMARK                            x       y       z     vdW  Elec       q    Type
REMARK                         _______ _______ _______ _____ _____    ______ ____
ROOT
ATOM      2  N   UNL     1      -2.317   2.686  23.034  0.00  0.00    -0.311 NA
ATOM     26  H   UNL     1      -2.137   2.882  24.019  0.00  0.00    +0.122 HD
ENDROOT
BRANCH   2  11
ATOM     11  C   UNL     1      -3.689   3.042  22.712  0.00  0.00    +0.100 C 
BRANCH  11   5
ATOM      1  N   UNL     1      -3.738   2.998  25.220  0.00  0.00    -0.298 NA
ATOM      3  C   UNL     1      -5.725   1.324  25.340  0.00  0.00    -0.004 C 
ATOM      4  C   UNL     1      -4.386   0.612  25.640  0.00  0.00    +0.006 C 
ATOM      5  C   UNL     1      -4.550   3.082  23.976  0.00  0.00    +0.071 C 
ATOM      6  C   UNL     1      -5.648   1.994  23.957  0.00  0.00    +0.024 C 
ATOM      7  C   UNL     1      -3.233   1.616  25.413  0.00  0.00    +0.088 C 
ATOM      8  C   UNL     1      -5.879   2.446  26.384  0.00  0.00    +0.019 C 
ATOM      9  C   UNL     1      -4.619   3.331  26.365  0.00  0.00    +0.085 C 
BRANCH   4  10
ATOM     10  C   UNL     1      -4.188  -0.665  24.827  0.00  0.00    +0.002 C 
ATOM     12  C   UNL     1      -2.938  -1.409  25.260  0.00  0.00    +0.004 C 
ENDBRANCH   4  10
ENDBRANCH  11   5
ENDBRANCH   2  11
BRANCH   2  13
ATOM     13  C   UNL     1      -2.064   1.277  22.762  0.00  0.00    +0.116 C 
BRANCH  13  14
ATOM     14  C   UNL     1      -0.609   0.926  22.925  0.00  0.00    -0.034 A 
ATOM     15  C   UNL     1       0.198   1.680  23.779  0.00  0.00    +0.005 A 
ATOM     16  C   UNL     1      -0.068  -0.152  22.226  0.00  0.00    +0.005 A 
ATOM     17  C   UNL     1       1.546   1.355  23.931  0.00  0.00    +0.009 A 
ATOM     18  C   UNL     1       1.280  -0.477  22.377  0.00  0.00    +0.009 A 
ATOM     19  C   UNL     1       2.087   0.277  23.230  0.00  0.00    -0.018 A 
BRANCH  19  20
ATOM     20  C   UNL     1       3.485  -0.061  23.388  0.00  0.00    -0.018 A 
ATOM     21  C   UNL     1       3.852  -1.344  23.797  0.00  0.00    +0.008 A 
ATOM     22  C   UNL     1       4.467   0.896  23.131  0.00  0.00    +0.008 A 
ATOM     23  C   UNL     1       5.200  -1.669  23.948  0.00  0.00    +0.001 A 
ATOM     24  C   UNL     1       5.815   0.571  23.281  0.00  0.00    +0.001 A 
ATOM     25  C   UNL     1       6.182  -0.712  23.690  0.00  0.00    +0.000 A 
ENDBRANCH  19  20
ENDBRANCH  13  14
ENDBRANCH   2  13
TORSDOF 6
ENDMDL
MODEL 9
REMARK VINA RESULT:       1.2      2.232      6.824
REMARK  Name = 44716352
REMARK  7 active torsions:
REMARK  status: ('A' for Active; 'I' for Inactive)
REMARK    1  A    between atoms: N_2  and  C_11
REMARK    2  A    between atoms: N_2  and  C_13
REMARK    3  A    between atoms: C_4  and  C_10
REMARK    4  A    between atoms: C_5  and  C_11
REMARK    5  A    between atoms: C_10  and  C_12
REMARK    6  A    between atoms: C_13  and  C_14
REMARK    7  A    between atoms: C_19  and  C_20
REMARK                            x       y       z     vdW  Elec       q    Type
REMARK                         _______ _______ _______ _____ _____    ______ ____
ROOT
ATOM      2  N   UNL     1       1.374  -0.017  23.538  0.00  0.00    -0.311 NA
ATOM     26  H   UNL     1       2.053  -0.336  22.846  0.00  0.00    +0.122 HD
ENDROOT
BRANCH   2  11
ATOM     11  C   UNL     1       0.081  -0.619  23.261  0.00  0.00    +0.100 C 
BRANCH  11   5
ATOM      1  N   UNL     1      -0.626  -1.477  25.511  0.00  0.00    -0.298 NA
ATOM      3  C   UNL     1      -3.168  -1.308  24.987  0.00  0.00    -0.004 C 
ATOM      4  C   UNL     1      -2.684  -2.774  24.899  0.00  0.00    +0.006 C 
ATOM      5  C   UNL     1      -0.861  -0.455  24.456  0.00  0.00    +0.071 C 
ATOM      6  C   UNL     1      -2.344  -0.439  24.020  0.00  0.00    +0.024 C 
ATOM      7  C   UNL     1      -1.148  -2.796  25.075  0.00  0.00    +0.088 C 
ATOM      8  C   UNL     1      -2.860  -0.820  26.415  0.00  0.00    +0.019 C 
ATOM      9  C   UNL     1      -1.371  -1.063  26.723  0.00  0.00    +0.085 C 
BRANCH   4  10
ATOM     10  C   UNL     1      -3.113  -3.473  23.612  0.00  0.00    +0.002 C 
ATOM     12  C   UNL     1      -4.540  -3.118  23.239  0.00  0.00    +0.004 C 
ENDBRANCH   4  10
ENDBRANCH  11   5
ENDBRANCH   2  11
BRANCH   2  13
ATOM     13  C   UNL     1       1.292   1.439  23.506  0.00  0.00    +0.116 C 
BRANCH  13  14
ATOM     14  C   UNL     1      -0.070   1.933  23.915  0.00  0.00    -0.034 A 
ATOM     15  C   UNL     1      -0.330   2.231  25.253  0.00  0.00    +0.005 A 
ATOM     16  C   UNL     1      -1.072   2.094  22.958  0.00  0.00    +0.005 A 
ATOM     17  C   UNL     1      -1.592   2.690  25.633  0.00  0.00    +0.009 A 
ATOM     18  C   UNL     1      -2.333   2.551  23.337  0.00  0.00    +0.009 A 
ATOM     19  C   UNL     1      -2.592   2.850  24.675  0.00  0.00    -0.018 A 
BRANCH  19  20
ATOM     20  C   UNL     1      -3.901   3.326  25.069  0.00  0.00    -0.018 A 
ATOM     21  C   UNL     1      -4.169   4.695  25.091  0.00  0.00    +0.008 A 
ATOM     22  C   UNL     1      -4.896   2.415  25.425  0.00  0.00    +0.008 A 
ATOM     23  C   UNL     1      -5.430   5.153  25.470  0.00  0.00    +0.001 A 
ATOM     24  C   UNL     1      -6.158   2.874  25.802  0.00  0.00    +0.001 A 
ATOM     25  C   UNL     1      -6.426   4.243  25.825  0.00  0.00    +0.000 A 
ENDBRANCH  19  20
ENDBRANCH  13  14
ENDBRANCH   2  13
TORSDOF 6
ENDMDL
MODEL 10
REMARK VINA RESULT:       1.4      1.713      2.986
REMARK  Name = 44716352
REMARK  7 active torsions:
REMARK  status: ('A' for Active; 'I' for Inactive)
REMARK    1  A    between atoms: N_2  and  C_11
REMARK    2  A    between atoms: N_2  and  C_13
REMARK    3  A    between atoms: C_4  and  C_10
REMARK    4  A    between atoms: C_5  and  C_11
REMARK    5  A    between atoms: C_10  and  C_12
REMARK    6  A    between atoms: C_13  and  C_14
REMARK    7  A    between atoms: C_19  and  C_20
REMARK                            x       y       z     vdW  Elec       q    Type
REMARK                         _______ _______ _______ _____ _____    ______ ____
ROOT
ATOM      2  N   UNL     1      -2.400   2.131  21.925  0.00  0.00    -0.311 NA
ATOM     26  H   UNL     1      -1.570   2.720  21.993  0.00  0.00    +0.122 HD
ENDROOT
BRANCH   2  11
ATOM     11  C   UNL     1      -3.529   2.813  22.534  0.00  0.00    +0.100 C 
BRANCH  11   5
ATOM      1  N   UNL     1      -2.661   2.573  24.876  0.00  0.00    -0.298 NA
ATOM      3  C   UNL     1      -4.336   4.293  25.875  0.00  0.00    -0.004 C 
ATOM      4  C   UNL     1      -4.776   2.846  26.196  0.00  0.00    +0.006 C 
ATOM      5  C   UNL     1      -3.104   3.524  23.821  0.00  0.00    +0.071 C 
ATOM      6  C   UNL     1      -4.212   4.463  24.350  0.00  0.00    +0.024 C 
ATOM      7  C   UNL     1      -3.831   1.870  25.459  0.00  0.00    +0.088 C 
ATOM      8  C   UNL     1      -2.928   4.476  26.471  0.00  0.00    +0.019 C 
ATOM      9  C   UNL     1      -2.009   3.356  25.952  0.00  0.00    +0.085 C 
BRANCH   4  10
ATOM     10  C   UNL     1      -6.239   2.573  25.860  0.00  0.00    +0.002 C 
ATOM     12  C   UNL     1      -6.371   1.513  24.782  0.00  0.00    +0.004 C 
ENDBRANCH   4  10
ENDBRANCH  11   5
ENDBRANCH   2  11
BRANCH   2  13
ATOM     13  C   UNL     1      -2.147   0.851  22.576  0.00  0.00    +0.116 C 
BRANCH  13  14
ATOM     14  C   UNL     1      -0.675   0.607  22.780  0.00  0.00    -0.034 A 
ATOM     15  C   UNL     1      -0.010  -0.337  21.997  0.00  0.00    +0.005 A 
ATOM     16  C   UNL     1       0.023   1.324  23.752  0.00  0.00    +0.005 A 
ATOM     17  C   UNL     1       1.354  -0.563  22.185  0.00  0.00    +0.009 A 
ATOM     18  C   UNL     1       1.386   1.098  23.941  0.00  0.00    +0.009 A 
ATOM     19  C   UNL     1       2.051   0.155  23.157  0.00  0.00    -0.018 A 
BRANCH  19  20
ATOM     20  C   UNL     1       3.466  -0.080  23.353  0.00  0.00    -0.018 A 
ATOM     21  C   UNL     1       3.914  -1.337  23.763  0.00  0.00    +0.008 A 
ATOM     22  C   UNL     1       4.381   0.949  23.132  0.00  0.00    +0.008 A 
ATOM     23  C   UNL     1       5.278  -1.563  23.951  0.00  0.00    +0.001 A 
ATOM     24  C   UNL     1       5.745   0.722  23.319  0.00  0.00    +0.001 A 
ATOM     25  C   UNL     1       6.193  -0.534  23.729  0.00  0.00    +0.000 A 
ENDBRANCH  19  20
ENDBRANCH  13  14
ENDBRANCH   2  13
TORSDOF 6
ENDMDL
