MODEL 1
REMARK VINA RESULT:       4.2      0.000      0.000
REMARK  Name = 40779549
REMARK  11 active torsions:
REMARK  status: ('A' for Active; 'I' for Inactive)
REMARK    1  A    between atoms: S_1  and  N_9
REMARK    2  A    between atoms: S_1  and  C_24
REMARK    3  A    between atoms: O_5  and  C_28
REMARK    4  A    between atoms: O_5  and  C_33
REMARK    5  A    between atoms: O_6  and  C_31
REMARK    6  A    between atoms: O_6  and  C_34
REMARK    7  A    between atoms: N_8  and  C_22
REMARK    8  A    between atoms: N_9  and  C_18
REMARK    9  A    between atoms: C_12  and  C_19
REMARK   10  A    between atoms: C_13  and  C_18
REMARK   11  A    between atoms: C_21  and  C_23
REMARK                            x       y       z     vdW  Elec       q    Type
REMARK                         _______ _______ _______ _____ _____    ______ ____
ROOT
ATOM      7  N   UNL     1      -5.854   2.933  24.599  0.00  0.00    -0.297 NA
ATOM     11  C   UNL     1      -4.055   4.111  26.067  0.00  0.00    +0.002 C 
ATOM     12  C   UNL     1      -3.552   3.966  24.604  0.00  0.00    +0.055 C 
ATOM     13  C   UNL     1      -5.620   2.151  25.841  0.00  0.00    +0.072 C 
ATOM     14  C   UNL     1      -4.416   2.718  26.623  0.00  0.00    +0.024 C 
ATOM     15  C   UNL     1      -5.361   4.930  26.010  0.00  0.00    +0.019 C 
ATOM     16  C   UNL     1      -4.584   3.083  23.845  0.00  0.00    +0.094 C 
ATOM     17  C   UNL     1      -6.319   4.284  24.994  0.00  0.00    +0.085 C 
ENDROOT
BRANCH  12  19
ATOM      8  N   UNL     1      -1.040   4.317  24.549  0.00  0.00    -0.270 N 
ATOM     10  N   UNL     1       0.137   3.719  24.298  0.00  0.00    -0.171 NA
ATOM     19  C   UNL     1      -2.120   3.503  24.378  0.00  0.00    +0.044 A 
ATOM     20  C   UNL     1      -1.615   2.287  23.989  0.00  0.00    +0.053 A 
ATOM     21  C   UNL     1      -0.220   2.478  23.956  0.00  0.00    +0.093 A 
ATOM     22  C   UNL     1      -1.053   5.705  24.954  0.00  0.00    +0.172 C 
BRANCH  21  23
ATOM     23  C   UNL     1       0.775   1.500  23.604  0.00  0.00    +0.006 A 
ATOM     25  C   UNL     1       2.114   1.876  23.493  0.00  0.00    +0.059 A 
ATOM     26  C   UNL     1       0.401   0.176  23.375  0.00  0.00    +0.014 A 
ATOM     28  C   UNL     1       3.079   0.928  23.152  0.00  0.00    +0.162 A 
ATOM     29  C   UNL     1       1.365  -0.772  23.033  0.00  0.00    +0.050 A 
ATOM     31  C   UNL     1       2.704  -0.397  22.923  0.00  0.00    +0.162 A 
BRANCH  28   5
ATOM      5  O   UNL     1       4.382   1.306  23.047  0.00  0.00    -0.491 OA
ATOM     33  C   UNL     1       5.300   0.736  23.978  0.00  0.00    +0.277 C 
ENDBRANCH  28   5
BRANCH  31   6
ATOM      6  O   UNL     1       3.637  -1.331  22.589  0.00  0.00    -0.491 OA
ATOM     34  C   UNL     1       4.344  -1.952  23.662  0.00  0.00    +0.277 C 
ENDBRANCH  31   6
ENDBRANCH  21  23
ENDBRANCH  12  19
BRANCH  13  18
ATOM     18  C   UNL     1      -5.469   0.654  25.567  0.00  0.00    +0.124 C 
BRANCH  18   9
ATOM      9  N   UNL     1      -4.069   0.363  25.219  0.00  0.00    -0.188 NA
ATOM     35  H   UNL     1      -3.459   1.191  25.226  0.00  0.00    +0.148 HD
BRANCH   9   1
ATOM      1  S   UNL     1      -3.707  -0.751  23.982  0.00  0.00    +0.065 S 
ATOM      3  O   UNL     1      -3.324  -0.028  22.784  0.00  0.00    -0.153 OA
ATOM      4  O   UNL     1      -4.752  -1.754  23.926  0.00  0.00    -0.153 OA
BRANCH   1  24
ATOM      2  S   UNL     1      -1.506  -0.716  25.918  0.00  0.00    -0.077 S 
ATOM     24  C   UNL     1      -2.264  -1.544  24.625  0.00  0.00    +0.142 A 
ATOM     27  C   UNL     1      -1.606  -2.710  24.302  0.00  0.00    +0.036 A 
ATOM     30  C   UNL     1      -0.464  -2.927  25.126  0.00  0.00    +0.010 A 
ATOM     32  C   UNL     1      -0.293  -1.917  26.048  0.00  0.00    +0.047 A 
ENDBRANCH   1  24
ENDBRANCH   9   1
ENDBRANCH  18   9
ENDBRANCH  13  18
TORSDOF 8
ENDMDL
MODEL 2
REMARK VINA RESULT:       5.8      1.356      2.191
REMARK  Name = 40779549
REMARK  11 active torsions:
REMARK  status: ('A' for Active; 'I' for Inactive)
REMARK    1  A    between atoms: S_1  and  N_9
REMARK    2  A    between atoms: S_1  and  C_24
REMARK    3  A    between atoms: O_5  and  C_28
REMARK    4  A    between atoms: O_5  and  C_33
REMARK    5  A    between atoms: O_6  and  C_31
REMARK    6  A    between atoms: O_6  and  C_34
REMARK    7  A    between atoms: N_8  and  C_22
REMARK    8  A    between atoms: N_9  and  C_18
REMARK    9  A    between atoms: C_12  and  C_19
REMARK   10  A    between atoms: C_13  and  C_18
REMARK   11  A    between atoms: C_21  and  C_23
REMARK                            x       y       z     vdW  Elec       q    Type
REMARK                         _______ _______ _______ _____ _____    ______ ____
ROOT
ATOM      7  N   UNL     1      -4.855   3.637  24.695  0.00  0.00    -0.297 NA
ATOM     11  C   UNL     1      -2.703   3.308  26.124  0.00  0.00    +0.002 C 
ATOM     12  C   UNL     1      -2.335   3.557  24.635  0.00  0.00    +0.055 C 
ATOM     13  C   UNL     1      -4.979   2.410  25.525  0.00  0.00    +0.072 C 
ATOM     14  C   UNL     1      -3.640   2.086  26.220  0.00  0.00    +0.024 C 
ATOM     15  C   UNL     1      -3.511   4.536  26.593  0.00  0.00    +0.019 C 
ATOM     16  C   UNL     1      -3.660   3.541  23.821  0.00  0.00    +0.094 C 
ATOM     17  C   UNL     1      -4.667   4.788  25.610  0.00  0.00    +0.085 C 
ENDROOT
BRANCH  12  19
ATOM      8  N   UNL     1      -1.507   1.829  22.971  0.00  0.00    -0.270 N 
ATOM     10  N   UNL     1      -0.425   1.146  22.559  0.00  0.00    -0.171 NA
ATOM     19  C   UNL     1      -1.259   2.683  24.005  0.00  0.00    +0.044 A 
ATOM     20  C   UNL     1       0.078   2.552  24.288  0.00  0.00    +0.053 A 
ATOM     21  C   UNL     1       0.541   1.593  23.367  0.00  0.00    +0.093 A 
ATOM     22  C   UNL     1      -2.775   1.602  22.316  0.00  0.00    +0.172 C 
BRANCH  21  23
ATOM     23  C   UNL     1       1.885   1.095  23.245  0.00  0.00    +0.006 A 
ATOM     25  C   UNL     1       2.155  -0.253  23.485  0.00  0.00    +0.059 A 
ATOM     26  C   UNL     1       2.920   1.959  22.887  0.00  0.00    +0.014 A 
ATOM     28  C   UNL     1       3.458  -0.736  23.367  0.00  0.00    +0.162 A 
ATOM     29  C   UNL     1       4.223   1.477  22.770  0.00  0.00    +0.050 A 
ATOM     31  C   UNL     1       4.493   0.130  23.009  0.00  0.00    +0.162 A 
BRANCH  28   5
ATOM      5  O   UNL     1       3.709  -2.053  23.602  0.00  0.00    -0.491 OA
ATOM     33  C   UNL     1       4.951  -2.376  24.223  0.00  0.00    +0.277 C 
ENDBRANCH  28   5
BRANCH  31   6
ATOM      6  O   UNL     1       5.769  -0.330  22.891  0.00  0.00    -0.491 OA
ATOM     34  C   UNL     1       6.738   0.210  23.789  0.00  0.00    +0.277 C 
ENDBRANCH  31   6
ENDBRANCH  21  23
ENDBRANCH  12  19
BRANCH  13  18
ATOM     18  C   UNL     1      -5.512   1.218  24.729  0.00  0.00    +0.124 C 
BRANCH  18   9
ATOM      9  N   UNL     1      -4.884  -0.016  25.225  0.00  0.00    -0.188 NA
ATOM     35  H   UNL     1      -4.395   0.098  26.123  0.00  0.00    +0.148 HD
BRANCH   9   1
ATOM      1  S   UNL     1      -4.104  -1.077  24.144  0.00  0.00    +0.065 S 
ATOM      3  O   UNL     1      -3.982  -0.434  22.849  0.00  0.00    -0.153 OA
ATOM      4  O   UNL     1      -4.705  -2.392  24.252  0.00  0.00    -0.153 OA
BRANCH   1  24
ATOM      2  S   UNL     1      -1.573  -2.543  24.343  0.00  0.00    -0.077 S 
ATOM     24  C   UNL     1      -2.488  -1.188  24.852  0.00  0.00    +0.142 A 
ATOM     27  C   UNL     1      -1.793  -0.400  25.743  0.00  0.00    +0.036 A 
ATOM     30  C   UNL     1      -0.493  -0.916  26.013  0.00  0.00    +0.010 A 
ATOM     32  C   UNL     1      -0.242  -2.079  25.316  0.00  0.00    +0.047 A 
ENDBRANCH   1  24
ENDBRANCH   9   1
ENDBRANCH  18   9
ENDBRANCH  13  18
TORSDOF 8
ENDMDL
MODEL 3
REMARK VINA RESULT:       6.6      2.573      4.299
REMARK  Name = 40779549
REMARK  11 active torsions:
REMARK  status: ('A' for Active; 'I' for Inactive)
REMARK    1  A    between atoms: S_1  and  N_9
REMARK    2  A    between atoms: S_1  and  C_24
REMARK    3  A    between atoms: O_5  and  C_28
REMARK    4  A    between atoms: O_5  and  C_33
REMARK    5  A    between atoms: O_6  and  C_31
REMARK    6  A    between atoms: O_6  and  C_34
REMARK    7  A    between atoms: N_8  and  C_22
REMARK    8  A    between atoms: N_9  and  C_18
REMARK    9  A    between atoms: C_12  and  C_19
REMARK   10  A    between atoms: C_13  and  C_18
REMARK   11  A    between atoms: C_21  and  C_23
REMARK                            x       y       z     vdW  Elec       q    Type
REMARK                         _______ _______ _______ _____ _____    ______ ____
ROOT
ATOM      7  N   UNL     1      -5.496   2.019  26.445  0.00  0.00    -0.297 NA
ATOM     11  C   UNL     1      -5.082   1.463  23.935  0.00  0.00    +0.002 C 
ATOM     12  C   UNL     1      -4.669   0.264  24.832  0.00  0.00    +0.055 C 
ATOM     13  C   UNL     1      -4.736   3.121  25.799  0.00  0.00    +0.072 C 
ATOM     14  C   UNL     1      -4.303   2.721  24.373  0.00  0.00    +0.024 C 
ATOM     15  C   UNL     1      -6.575   1.735  24.214  0.00  0.00    +0.019 C 
ATOM     16  C   UNL     1      -4.753   0.741  26.310  0.00  0.00    +0.094 C 
ATOM     17  C   UNL     1      -6.788   1.880  25.731  0.00  0.00    +0.085 C 
ENDROOT
BRANCH  12  19
ATOM      8  N   UNL     1      -3.279  -1.772  24.231  0.00  0.00    -0.270 N 
ATOM     10  N   UNL     1      -2.029  -2.205  23.995  0.00  0.00    -0.171 NA
ATOM     19  C   UNL     1      -3.356  -0.443  24.528  0.00  0.00    +0.044 A 
ATOM     20  C   UNL     1      -2.067   0.027  24.480  0.00  0.00    +0.053 A 
ATOM     21  C   UNL     1      -1.292  -1.101  24.148  0.00  0.00    +0.093 A 
ATOM     22  C   UNL     1      -4.375  -2.711  24.158  0.00  0.00    +0.172 C 
BRANCH  21  23
ATOM     23  C   UNL     1       0.136  -1.143  23.975  0.00  0.00    +0.006 A 
ATOM     25  C   UNL     1       0.744  -0.359  22.994  0.00  0.00    +0.059 A 
ATOM     26  C   UNL     1       0.913  -1.968  24.788  0.00  0.00    +0.014 A 
ATOM     28  C   UNL     1       2.128  -0.400  22.826  0.00  0.00    +0.162 A 
ATOM     29  C   UNL     1       2.297  -2.010  24.621  0.00  0.00    +0.050 A 
ATOM     31  C   UNL     1       2.904  -1.226  23.641  0.00  0.00    +0.162 A 
BRANCH  28   5
ATOM      5  O   UNL     1       2.710   0.370  21.866  0.00  0.00    -0.491 OA
ATOM     33  C   UNL     1       3.690   1.311  22.296  0.00  0.00    +0.277 C 
ENDBRANCH  28   5
BRANCH  31   6
ATOM      6  O   UNL     1       4.257  -1.275  23.486  0.00  0.00    -0.491 OA
ATOM     34  C   UNL     1       5.043  -0.550  24.432  0.00  0.00    +0.277 C 
ENDBRANCH  31   6
ENDBRANCH  21  23
ENDBRANCH  12  19
BRANCH  13  18
ATOM     18  C   UNL     1      -3.550   3.585  26.646  0.00  0.00    +0.124 C 
BRANCH  18   9
ATOM      9  N   UNL     1      -3.150   4.936  26.221  0.00  0.00    -0.188 NA
ATOM     35  H   UNL     1      -3.924   5.613  26.209  0.00  0.00    +0.148 HD
BRANCH   9   1
ATOM      1  S   UNL     1      -2.031   5.140  24.952  0.00  0.00    +0.065 S 
ATOM      3  O   UNL     1      -1.293   6.371  25.160  0.00  0.00    -0.153 OA
ATOM      4  O   UNL     1      -2.697   4.893  23.689  0.00  0.00    -0.153 OA
BRANCH   1  24
ATOM      2  S   UNL     1      -0.074   3.263  23.837  0.00  0.00    -0.077 S 
ATOM     24  C   UNL     1      -0.926   3.788  25.227  0.00  0.00    +0.142 A 
ATOM     27  C   UNL     1      -0.595   3.052  26.344  0.00  0.00    +0.036 A 
ATOM     30  C   UNL     1       0.369   2.044  26.055  0.00  0.00    +0.010 A 
ATOM     32  C   UNL     1       0.739   2.048  24.727  0.00  0.00    +0.047 A 
ENDBRANCH   1  24
ENDBRANCH   9   1
ENDBRANCH  18   9
ENDBRANCH  13  18
TORSDOF 8
ENDMDL
MODEL 4
REMARK VINA RESULT:       6.7      2.488      4.206
REMARK  Name = 40779549
REMARK  11 active torsions:
REMARK  status: ('A' for Active; 'I' for Inactive)
REMARK    1  A    between atoms: S_1  and  N_9
REMARK    2  A    between atoms: S_1  and  C_24
REMARK    3  A    between atoms: O_5  and  C_28
REMARK    4  A    between atoms: O_5  and  C_33
REMARK    5  A    between atoms: O_6  and  C_31
REMARK    6  A    between atoms: O_6  and  C_34
REMARK    7  A    between atoms: N_8  and  C_22
REMARK    8  A    between atoms: N_9  and  C_18
REMARK    9  A    between atoms: C_12  and  C_19
REMARK   10  A    between atoms: C_13  and  C_18
REMARK   11  A    between atoms: C_21  and  C_23
REMARK                            x       y       z     vdW  Elec       q    Type
REMARK                         _______ _______ _______ _____ _____    ______ ____
ROOT
ATOM      7  N   UNL     1      -5.277   2.711  26.097  0.00  0.00    -0.297 NA
ATOM     11  C   UNL     1      -5.158   1.149  24.016  0.00  0.00    +0.002 C 
ATOM     12  C   UNL     1      -4.225   0.626  25.143  0.00  0.00    +0.055 C 
ATOM     13  C   UNL     1      -5.044   3.516  24.869  0.00  0.00    +0.072 C 
ATOM     14  C   UNL     1      -4.765   2.598  23.661  0.00  0.00    +0.024 C 
ATOM     15  C   UNL     1      -6.583   1.198  24.605  0.00  0.00    +0.019 C 
ATOM     16  C   UNL     1      -4.196   1.708  26.260  0.00  0.00    +0.094 C 
ATOM     17  C   UNL     1      -6.559   1.985  25.926  0.00  0.00    +0.085 C 
ENDROOT
BRANCH  12  19
ATOM      8  N   UNL     1      -2.463  -1.160  24.758  0.00  0.00    -0.270 N 
ATOM     10  N   UNL     1      -1.188  -1.368  24.390  0.00  0.00    -0.171 NA
ATOM     19  C   UNL     1      -2.829   0.154  24.760  0.00  0.00    +0.044 A 
ATOM     20  C   UNL     1      -1.715   0.854  24.366  0.00  0.00    +0.053 A 
ATOM     21  C   UNL     1      -0.735  -0.134  24.152  0.00  0.00    +0.093 A 
ATOM     22  C   UNL     1      -3.291  -2.293  25.104  0.00  0.00    +0.172 C 
BRANCH  21  23
ATOM     23  C   UNL     1       0.622   0.079  23.726  0.00  0.00    +0.006 A 
ATOM     25  C   UNL     1       1.502  -1.001  23.633  0.00  0.00    +0.059 A 
ATOM     26  C   UNL     1       1.060   1.364  23.406  0.00  0.00    +0.014 A 
ATOM     28  C   UNL     1       2.818  -0.795  23.219  0.00  0.00    +0.162 A 
ATOM     29  C   UNL     1       2.376   1.570  22.993  0.00  0.00    +0.050 A 
ATOM     31  C   UNL     1       3.255   0.492  22.899  0.00  0.00    +0.162 A 
BRANCH  28   5
ATOM      5  O   UNL     1       3.667  -1.855  23.131  0.00  0.00    -0.491 OA
ATOM     33  C   UNL     1       4.696  -1.946  24.114  0.00  0.00    +0.277 C 
ENDBRANCH  28   5
BRANCH  31   6
ATOM      6  O   UNL     1       4.538   0.705  22.495  0.00  0.00    -0.491 OA
ATOM     34  C   UNL     1       5.525   0.841  23.517  0.00  0.00    +0.277 C 
ENDBRANCH  31   6
ENDBRANCH  21  23
ENDBRANCH  12  19
BRANCH  13  18
ATOM     18  C   UNL     1      -3.942   4.561  25.059  0.00  0.00    +0.124 C 
BRANCH  18   9
ATOM      9  N   UNL     1      -2.788   4.206  24.218  0.00  0.00    -0.188 NA
ATOM     35  H   UNL     1      -2.765   3.216  23.939  0.00  0.00    +0.148 HD
BRANCH   9   1
ATOM      1  S   UNL     1      -1.252   4.866  24.548  0.00  0.00    +0.065 S 
ATOM      3  O   UNL     1      -1.414   6.149  25.205  0.00  0.00    -0.153 OA
ATOM      4  O   UNL     1      -0.423   4.752  23.364  0.00  0.00    -0.153 OA
BRANCH   1  24
ATOM      2  S   UNL     1      -1.697   3.330  27.005  0.00  0.00    -0.077 S 
ATOM     24  C   UNL     1      -0.616   3.721  25.735  0.00  0.00    +0.142 A 
ATOM     27  C   UNL     1       0.587   3.062  25.860  0.00  0.00    +0.036 A 
ATOM     30  C   UNL     1       0.623   2.226  27.013  0.00  0.00    +0.010 A 
ATOM     32  C   UNL     1      -0.556   2.277  27.726  0.00  0.00    +0.047 A 
ENDBRANCH   1  24
ENDBRANCH   9   1
ENDBRANCH  18   9
ENDBRANCH  13  18
TORSDOF 8
ENDMDL
MODEL 5
REMARK VINA RESULT:       7.9      1.182      1.911
REMARK  Name = 40779549
REMARK  11 active torsions:
REMARK  status: ('A' for Active; 'I' for Inactive)
REMARK    1  A    between atoms: S_1  and  N_9
REMARK    2  A    between atoms: S_1  and  C_24
REMARK    3  A    between atoms: O_5  and  C_28
REMARK    4  A    between atoms: O_5  and  C_33
REMARK    5  A    between atoms: O_6  and  C_31
REMARK    6  A    between atoms: O_6  and  C_34
REMARK    7  A    between atoms: N_8  and  C_22
REMARK    8  A    between atoms: N_9  and  C_18
REMARK    9  A    between atoms: C_12  and  C_19
REMARK   10  A    between atoms: C_13  and  C_18
REMARK   11  A    between atoms: C_21  and  C_23
REMARK                            x       y       z     vdW  Elec       q    Type
REMARK                         _______ _______ _______ _____ _____    ______ ____
ROOT
ATOM      7  N   UNL     1      -6.000   3.089  24.258  0.00  0.00    -0.297 NA
ATOM     11  C   UNL     1      -4.487   3.769  26.266  0.00  0.00    +0.002 C 
ATOM     12  C   UNL     1      -3.684   3.821  24.937  0.00  0.00    +0.055 C 
ATOM     13  C   UNL     1      -6.113   2.080  25.344  0.00  0.00    +0.072 C 
ATOM     14  C   UNL     1      -5.073   2.354  26.452  0.00  0.00    +0.024 C 
ATOM     15  C   UNL     1      -5.679   4.735  26.104  0.00  0.00    +0.019 C 
ATOM     16  C   UNL     1      -4.586   3.214  23.826  0.00  0.00    +0.094 C 
ATOM     17  C   UNL     1      -6.433   4.396  24.807  0.00  0.00    +0.085 C 
ENDROOT
BRANCH  12  19
ATOM      8  N   UNL     1      -1.483   3.186  26.030  0.00  0.00    -0.270 N 
ATOM     10  N   UNL     1      -0.278   2.633  25.808  0.00  0.00    -0.171 NA
ATOM     19  C   UNL     1      -2.278   3.237  24.923  0.00  0.00    +0.044 A 
ATOM     20  C   UNL     1      -1.543   2.678  23.907  0.00  0.00    +0.053 A 
ATOM     21  C   UNL     1      -0.320   2.324  24.509  0.00  0.00    +0.093 A 
ATOM     22  C   UNL     1      -1.810   3.657  27.357  0.00  0.00    +0.172 C 
BRANCH  21  23
ATOM     23  C   UNL     1       0.806   1.700  23.868  0.00  0.00    +0.006 A 
ATOM     25  C   UNL     1       0.627   0.532  23.125  0.00  0.00    +0.059 A 
ATOM     26  C   UNL     1       2.078   2.260  23.989  0.00  0.00    +0.014 A 
ATOM     28  C   UNL     1       1.719  -0.073  22.503  0.00  0.00    +0.162 A 
ATOM     29  C   UNL     1       3.170   1.654  23.368  0.00  0.00    +0.050 A 
ATOM     31  C   UNL     1       2.991   0.488  22.625  0.00  0.00    +0.162 A 
BRANCH  28   5
ATOM      5  O   UNL     1       1.532  -1.211  21.779  0.00  0.00    -0.491 OA
ATOM     33  C   UNL     1       0.753  -1.103  20.590  0.00  0.00    +0.277 C 
ENDBRANCH  28   5
BRANCH  31   6
ATOM      6  O   UNL     1       4.064  -0.094  22.022  0.00  0.00    -0.491 OA
ATOM     34  C   UNL     1       5.261  -0.199  22.793  0.00  0.00    +0.277 C 
ENDBRANCH  31   6
ENDBRANCH  21  23
ENDBRANCH  12  19
BRANCH  13  18
ATOM     18  C   UNL     1      -6.024   0.646  24.819  0.00  0.00    +0.124 C 
BRANCH  18   9
ATOM      9  N   UNL     1      -4.702   0.090  25.151  0.00  0.00    -0.188 NA
ATOM     35  H   UNL     1      -4.118   0.717  25.719  0.00  0.00    +0.148 HD
BRANCH   9   1
ATOM      1  S   UNL     1      -3.831  -0.802  23.989  0.00  0.00    +0.065 S 
ATOM      3  O   UNL     1      -3.528   0.055  22.858  0.00  0.00    -0.153 OA
ATOM      4  O   UNL     1      -4.487  -2.078  23.782  0.00  0.00    -0.153 OA
BRANCH   1  24
ATOM      2  S   UNL     1      -1.393  -2.415  24.199  0.00  0.00    -0.077 S 
ATOM     24  C   UNL     1      -2.320  -1.129  24.846  0.00  0.00    +0.142 A 
ATOM     27  C   UNL     1      -1.717  -0.558  25.945  0.00  0.00    +0.036 A 
ATOM     30  C   UNL     1      -0.477  -1.186  26.261  0.00  0.00    +0.010 A 
ATOM     32  C   UNL     1      -0.180  -2.212  25.390  0.00  0.00    +0.047 A 
ENDBRANCH   1  24
ENDBRANCH   9   1
ENDBRANCH  18   9
ENDBRANCH  13  18
TORSDOF 8
ENDMDL
MODEL 6
REMARK VINA RESULT:       7.9      2.865      4.324
REMARK  Name = 40779549
REMARK  11 active torsions:
REMARK  status: ('A' for Active; 'I' for Inactive)
REMARK    1  A    between atoms: S_1  and  N_9
REMARK    2  A    between atoms: S_1  and  C_24
REMARK    3  A    between atoms: O_5  and  C_28
REMARK    4  A    between atoms: O_5  and  C_33
REMARK    5  A    between atoms: O_6  and  C_31
REMARK    6  A    between atoms: O_6  and  C_34
REMARK    7  A    between atoms: N_8  and  C_22
REMARK    8  A    between atoms: N_9  and  C_18
REMARK    9  A    between atoms: C_12  and  C_19
REMARK   10  A    between atoms: C_13  and  C_18
REMARK   11  A    between atoms: C_21  and  C_23
REMARK                            x       y       z     vdW  Elec       q    Type
REMARK                         _______ _______ _______ _____ _____    ______ ____
ROOT
ATOM      7  N   UNL     1      -4.783   2.618  26.231  0.00  0.00    -0.297 NA
ATOM     11  C   UNL     1      -4.661   1.612  23.832  0.00  0.00    +0.002 C 
ATOM     12  C   UNL     1      -4.147   0.585  24.878  0.00  0.00    +0.055 C 
ATOM     13  C   UNL     1      -4.102   3.570  25.314  0.00  0.00    +0.072 C 
ATOM     14  C   UNL     1      -3.837   2.911  23.944  0.00  0.00    +0.024 C 
ATOM     15  C   UNL     1      -6.112   1.961  24.225  0.00  0.00    +0.019 C 
ATOM     16  C   UNL     1      -4.060   1.321  26.246  0.00  0.00    +0.094 C 
ATOM     17  C   UNL     1      -6.148   2.380  25.705  0.00  0.00    +0.085 C 
ENDROOT
BRANCH  12  19
ATOM      8  N   UNL     1      -2.875  -1.525  24.270  0.00  0.00    -0.270 N 
ATOM     10  N   UNL     1      -1.653  -2.024  24.018  0.00  0.00    -0.171 NA
ATOM     19  C   UNL     1      -2.878  -0.192  24.560  0.00  0.00    +0.044 A 
ATOM     20  C   UNL     1      -1.566   0.209  24.492  0.00  0.00    +0.053 A 
ATOM     21  C   UNL     1      -0.857  -0.960  24.155  0.00  0.00    +0.093 A 
ATOM     22  C   UNL     1      -4.021  -2.404  24.217  0.00  0.00    +0.172 C 
BRANCH  21  23
ATOM     23  C   UNL     1       0.564  -1.079  23.963  0.00  0.00    +0.006 A 
ATOM     25  C   UNL     1       1.213  -0.265  23.035  0.00  0.00    +0.059 A 
ATOM     26  C   UNL     1       1.293  -2.009  24.704  0.00  0.00    +0.014 A 
ATOM     28  C   UNL     1       2.591  -0.380  22.848  0.00  0.00    +0.162 A 
ATOM     29  C   UNL     1       2.670  -2.125  24.518  0.00  0.00    +0.050 A 
ATOM     31  C   UNL     1       3.319  -1.310  23.591  0.00  0.00    +0.162 A 
BRANCH  28   5
ATOM      5  O   UNL     1       3.214   0.421  21.940  0.00  0.00    -0.491 OA
ATOM     33  C   UNL     1       3.939   1.538  22.450  0.00  0.00    +0.277 C 
ENDBRANCH  28   5
BRANCH  31   6
ATOM      6  O   UNL     1       4.665  -1.432  23.417  0.00  0.00    -0.491 OA
ATOM     34  C   UNL     1       5.502  -0.719  24.327  0.00  0.00    +0.277 C 
ENDBRANCH  31   6
ENDBRANCH  21  23
ENDBRANCH  12  19
BRANCH  13  18
ATOM     18  C   UNL     1      -2.827   4.154  25.924  0.00  0.00    +0.124 C 
BRANCH  18   9
ATOM      9  N   UNL     1      -1.873   3.065  26.188  0.00  0.00    -0.188 NA
ATOM     35  H   UNL     1      -2.051   2.561  27.067  0.00  0.00    +0.148 HD
BRANCH   9   1
ATOM      1  S   UNL     1      -0.220   3.267  25.829  0.00  0.00    +0.065 S 
ATOM      3  O   UNL     1       0.035   4.660  25.516  0.00  0.00    -0.153 OA
ATOM      4  O   UNL     1       0.198   2.225  24.911  0.00  0.00    -0.153 OA
BRANCH   1  24
ATOM      2  S   UNL     1       2.197   3.301  27.488  0.00  0.00    -0.077 S 
ATOM     24  C   UNL     1       0.532   2.913  27.389  0.00  0.00    +0.142 A 
ATOM     27  C   UNL     1       0.055   2.381  28.567  0.00  0.00    +0.036 A 
ATOM     30  C   UNL     1       1.069   2.291  29.564  0.00  0.00    +0.010 A 
ATOM     32  C   UNL     1       2.284   2.758  29.110  0.00  0.00    +0.047 A 
ENDBRANCH   1  24
ENDBRANCH   9   1
ENDBRANCH  18   9
ENDBRANCH  13  18
TORSDOF 8
ENDMDL
MODEL 7
REMARK VINA RESULT:       8.1      2.424      4.355
REMARK  Name = 40779549
REMARK  11 active torsions:
REMARK  status: ('A' for Active; 'I' for Inactive)
REMARK    1  A    between atoms: S_1  and  N_9
REMARK    2  A    between atoms: S_1  and  C_24
REMARK    3  A    between atoms: O_5  and  C_28
REMARK    4  A    between atoms: O_5  and  C_33
REMARK    5  A    between atoms: O_6  and  C_31
REMARK    6  A    between atoms: O_6  and  C_34
REMARK    7  A    between atoms: N_8  and  C_22
REMARK    8  A    between atoms: N_9  and  C_18
REMARK    9  A    between atoms: C_12  and  C_19
REMARK   10  A    between atoms: C_13  and  C_18
REMARK   11  A    between atoms: C_21  and  C_23
REMARK                            x       y       z     vdW  Elec       q    Type
REMARK                         _______ _______ _______ _____ _____    ______ ____
ROOT
ATOM      7  N   UNL     1      -5.406   2.137  26.780  0.00  0.00    -0.297 NA
ATOM     11  C   UNL     1      -5.281   1.448  24.271  0.00  0.00    +0.002 C 
ATOM     12  C   UNL     1      -4.744   0.305  25.176  0.00  0.00    +0.055 C 
ATOM     13  C   UNL     1      -4.746   3.210  25.990  0.00  0.00    +0.072 C 
ATOM     14  C   UNL     1      -4.478   2.736  24.546  0.00  0.00    +0.024 C 
ATOM     15  C   UNL     1      -6.735   1.718  24.711  0.00  0.00    +0.019 C 
ATOM     16  C   UNL     1      -4.662   0.862  26.626  0.00  0.00    +0.094 C 
ATOM     17  C   UNL     1      -6.770   1.945  26.232  0.00  0.00    +0.085 C 
ENDROOT
BRANCH  12  19
ATOM      8  N   UNL     1      -3.450  -1.654  24.213  0.00  0.00    -0.270 N 
ATOM     10  N   UNL     1      -2.220  -2.102  23.911  0.00  0.00    -0.171 NA
ATOM     19  C   UNL     1      -3.464  -0.404  24.757  0.00  0.00    +0.044 A 
ATOM     20  C   UNL     1      -2.151  -0.005  24.815  0.00  0.00    +0.053 A 
ATOM     21  C   UNL     1      -1.430  -1.091  24.281  0.00  0.00    +0.093 A 
ATOM     22  C   UNL     1      -4.593  -2.499  23.949  0.00  0.00    +0.172 C 
BRANCH  21  23
ATOM     23  C   UNL     1      -0.002  -1.179  24.120  0.00  0.00    +0.006 A 
ATOM     25  C   UNL     1       0.644  -0.383  23.174  0.00  0.00    +0.059 A 
ATOM     26  C   UNL     1       0.736  -2.061  24.909  0.00  0.00    +0.014 A 
ATOM     28  C   UNL     1       2.027  -0.468  23.017  0.00  0.00    +0.162 A 
ATOM     29  C   UNL     1       2.119  -2.148  24.752  0.00  0.00    +0.050 A 
ATOM     31  C   UNL     1       2.765  -1.351  23.807  0.00  0.00    +0.162 A 
BRANCH  28   5
ATOM      5  O   UNL     1       2.646   0.315  22.091  0.00  0.00    -0.491 OA
ATOM     33  C   UNL     1       3.476   1.365  22.581  0.00  0.00    +0.277 C 
ENDBRANCH  28   5
BRANCH  31   6
ATOM      6  O   UNL     1       4.116  -1.444  23.662  0.00  0.00    -0.491 OA
ATOM     34  C   UNL     1       4.913  -0.560  24.451  0.00  0.00    +0.277 C 
ENDBRANCH  31   6
ENDBRANCH  21  23
ENDBRANCH  12  19
BRANCH  13  18
ATOM     18  C   UNL     1      -3.477   3.733  26.664  0.00  0.00    +0.124 C 
BRANCH  18   9
ATOM      9  N   UNL     1      -2.731   4.570  25.711  0.00  0.00    -0.188 NA
ATOM     35  H   UNL     1      -3.327   5.040  25.016  0.00  0.00    +0.148 HD
BRANCH   9   1
ATOM      1  S   UNL     1      -1.234   4.041  25.093  0.00  0.00    +0.065 S 
ATOM      3  O   UNL     1      -0.661   3.065  26.001  0.00  0.00    -0.153 OA
ATOM      4  O   UNL     1      -0.459   5.194  24.676  0.00  0.00    -0.153 OA
BRANCH   1  24
ATOM      2  S   UNL     1      -3.084   3.875  22.825  0.00  0.00    -0.077 S 
ATOM     24  C   UNL     1      -1.731   3.194  23.624  0.00  0.00    +0.142 A 
ATOM     27  C   UNL     1      -1.252   2.080  22.970  0.00  0.00    +0.036 A 
ATOM     30  C   UNL     1      -2.005   1.781  21.799  0.00  0.00    +0.010 A 
ATOM     32  C   UNL     1      -3.032   2.679  21.601  0.00  0.00    +0.047 A 
ENDBRANCH   1  24
ENDBRANCH   9   1
ENDBRANCH  18   9
ENDBRANCH  13  18
TORSDOF 8
ENDMDL
MODEL 8
REMARK VINA RESULT:       8.1      2.800      4.265
REMARK  Name = 40779549
REMARK  11 active torsions:
REMARK  status: ('A' for Active; 'I' for Inactive)
REMARK    1  A    between atoms: S_1  and  N_9
REMARK    2  A    between atoms: S_1  and  C_24
REMARK    3  A    between atoms: O_5  and  C_28
REMARK    4  A    between atoms: O_5  and  C_33
REMARK    5  A    between atoms: O_6  and  C_31
REMARK    6  A    between atoms: O_6  and  C_34
REMARK    7  A    between atoms: N_8  and  C_22
REMARK    8  A    between atoms: N_9  and  C_18
REMARK    9  A    between atoms: C_12  and  C_19
REMARK   10  A    between atoms: C_13  and  C_18
REMARK   11  A    between atoms: C_21  and  C_23
REMARK                            x       y       z     vdW  Elec       q    Type
REMARK                         _______ _______ _______ _____ _____    ______ ____
ROOT
ATOM      7  N   UNL     1      -4.473   2.271  25.621  0.00  0.00    -0.297 NA
ATOM     11  C   UNL     1      -3.255   2.579  23.340  0.00  0.00    +0.002 C 
ATOM     12  C   UNL     1      -3.091   1.121  23.852  0.00  0.00    +0.055 C 
ATOM     13  C   UNL     1      -3.601   3.474  25.669  0.00  0.00    +0.072 C 
ATOM     14  C   UNL     1      -2.717   3.556  24.406  0.00  0.00    +0.024 C 
ATOM     15  C   UNL     1      -4.771   2.837  23.211  0.00  0.00    +0.019 C 
ATOM     16  C   UNL     1      -3.665   1.069  25.297  0.00  0.00    +0.094 C 
ATOM     17  C   UNL     1      -5.462   2.470  24.535  0.00  0.00    +0.085 C 
ENDROOT
BRANCH  12  19
ATOM      8  N   UNL     1      -1.508  -0.861  23.941  0.00  0.00    -0.270 N 
ATOM     10  N   UNL     1      -0.223  -1.233  23.811  0.00  0.00    -0.171 NA
ATOM     19  C   UNL     1      -1.717   0.474  23.753  0.00  0.00    +0.044 A 
ATOM     20  C   UNL     1      -0.483   1.011  23.480  0.00  0.00    +0.053 A 
ATOM     21  C   UNL     1       0.398  -0.085  23.529  0.00  0.00    +0.093 A 
ATOM     22  C   UNL     1      -2.503  -1.860  24.257  0.00  0.00    +0.172 C 
BRANCH  21  23
ATOM     23  C   UNL     1       1.821  -0.056  23.313  0.00  0.00    +0.006 A 
ATOM     25  C   UNL     1       2.603  -1.156  23.670  0.00  0.00    +0.059 A 
ATOM     26  C   UNL     1       2.418   1.070  22.748  0.00  0.00    +0.014 A 
ATOM     28  C   UNL     1       3.982  -1.128  23.460  0.00  0.00    +0.162 A 
ATOM     29  C   UNL     1       3.797   1.098  22.539  0.00  0.00    +0.050 A 
ATOM     31  C   UNL     1       4.579  -0.000  22.894  0.00  0.00    +0.162 A 
BRANCH  28   5
ATOM      5  O   UNL     1       4.735  -2.207  23.811  0.00  0.00    -0.491 OA
ATOM     33  C   UNL     1       5.858  -1.967  24.656  0.00  0.00    +0.277 C 
ENDBRANCH  28   5
BRANCH  31   6
ATOM      6  O   UNL     1       5.924   0.038  22.686  0.00  0.00    -0.491 OA
ATOM     34  C   UNL     1       6.718   0.662  23.694  0.00  0.00    +0.277 C 
ENDBRANCH  31   6
ENDBRANCH  21  23
ENDBRANCH  12  19
BRANCH  13  18
ATOM     18  C   UNL     1      -2.770   3.541  26.951  0.00  0.00    +0.124 C 
BRANCH  18   9
ATOM      9  N   UNL     1      -1.368   3.828  26.607  0.00  0.00    -0.188 NA
ATOM     35  H   UNL     1      -1.253   4.618  25.958  0.00  0.00    +0.148 HD
BRANCH   9   1
ATOM      1  S   UNL     1      -0.272   2.551  26.343  0.00  0.00    +0.065 S 
ATOM      3  O   UNL     1       0.502   2.826  25.147  0.00  0.00    -0.153 OA
ATOM      4  O   UNL     1      -0.970   1.289  26.486  0.00  0.00    -0.153 OA
BRANCH   1  24
ATOM      2  S   UNL     1       0.056   2.442  29.254  0.00  0.00    -0.077 S 
ATOM     24  C   UNL     1       0.804   2.708  27.737  0.00  0.00    +0.142 A 
ATOM     27  C   UNL     1       2.143   3.002  27.866  0.00  0.00    +0.036 A 
ATOM     30  C   UNL     1       2.561   3.011  29.228  0.00  0.00    +0.010 A 
ATOM     32  C   UNL     1       1.524   2.722  30.088  0.00  0.00    +0.047 A 
ENDBRANCH   1  24
ENDBRANCH   9   1
ENDBRANCH  18   9
ENDBRANCH  13  18
TORSDOF 8
ENDMDL
