MODEL 1
REMARK VINA RESULT:      -0.5      0.000      0.000
REMARK  Name = 28961799
REMARK  11 active torsions:
REMARK  status: ('A' for Active; 'I' for Inactive)
REMARK    1  A    between atoms: O_5  and  C_14
REMARK    2  A    between atoms: O_6  and  C_20
REMARK    3  A    between atoms: O_6  and  C_23
REMARK    4  A    between atoms: O_7  and  C_21
REMARK    5  A    between atoms: N_9  and  C_11
REMARK    6  A    between atoms: N_10  and  C_19
REMARK    7  A    between atoms: C_12  and  C_20
REMARK    8  A    between atoms: C_13  and  C_19
REMARK    9  A    between atoms: C_16  and  C_21
REMARK   10  A    between atoms: C_22  and  C_24
REMARK   11  A    between atoms: C_29  and  C_30
REMARK                            x       y       z     vdW  Elec       q    Type
REMARK                         _______ _______ _______ _____ _____    ______ ____
ROOT
ATOM      4  O   UNL     1      -1.168   3.388  25.493  0.00  0.00    -0.365 OA
ATOM     11  C   UNL     1      -2.965   1.832  25.370  0.00  0.00    +0.118 C 
ATOM     13  C   UNL     1      -1.459   2.015  25.148  0.00  0.00    +0.155 C 
ATOM     14  C   UNL     1      -3.512   3.242  25.194  0.00  0.00    +0.165 C 
ATOM     16  C   UNL     1      -2.396   4.057  25.838  0.00  0.00    +0.174 C 
ENDROOT
BRANCH  11   9
ATOM      9  N   UNL     1      -3.614   0.812  24.565  0.00  0.00    -0.289 NA
ATOM     12  C   UNL     1      -3.030  -0.531  24.653  0.00  0.00    +0.083 C 
ATOM     15  C   UNL     1      -5.042   0.680  24.850  0.00  0.00    +0.085 C 
ATOM     17  C   UNL     1      -4.095  -1.356  23.932  0.00  0.00    +0.022 C 
ATOM     18  C   UNL     1      -5.418  -0.682  24.280  0.00  0.00    +0.017 C 
BRANCH  12  20
ATOM     20  C   UNL     1      -2.773  -1.061  26.067  0.00  0.00    +0.178 C 
BRANCH  20   6
ATOM      6  O   UNL     1      -1.378  -1.034  26.314  0.00  0.00    -0.381 OA
ATOM     23  C   UNL     1      -0.645  -1.662  25.269  0.00  0.00    +0.194 C 
ENDBRANCH  20   6
ENDBRANCH  12  20
ENDBRANCH  11   9
BRANCH  14   5
ATOM      5  O   UNL     1      -3.644   3.580  23.820  0.00  0.00    -0.388 OA
ATOM     31  H   UNL     1      -2.749   3.685  23.454  0.00  0.00    +0.210 HD
ENDBRANCH  14   5
BRANCH  13  19
ATOM     19  C   UNL     1      -0.944   1.787  23.731  0.00  0.00    +0.137 C 
BRANCH  19  10
ATOM      8  O   UNL     1       0.338  -0.306  22.241  0.00  0.00    -0.270 OA
ATOM     10  N   UNL     1       0.451   1.465  23.736  0.00  0.00    -0.309 N 
ATOM     22  C   UNL     1       0.991   0.428  22.978  0.00  0.00    +0.244 C 
ATOM     32  H   UNL     1       1.037   1.988  24.378  0.00  0.00    +0.149 HD
BRANCH  22  24
ATOM     24  C   UNL     1       2.453   0.205  23.112  0.00  0.00    +0.037 A 
ATOM     25  C   UNL     1       3.348   1.217  22.766  0.00  0.00    +0.013 A 
ATOM     26  C   UNL     1       2.932  -1.018  23.583  0.00  0.00    +0.013 A 
ATOM     27  C   UNL     1       4.721   1.008  22.891  0.00  0.00    +0.013 A 
ATOM     28  C   UNL     1       4.305  -1.227  23.708  0.00  0.00    +0.013 A 
ATOM     29  C   UNL     1       5.200  -0.215  23.362  0.00  0.00    +0.055 A 
BRANCH  29  30
ATOM      1  F   UNL     1       7.248  -0.963  22.377  0.00  0.00    -0.166 F 
ATOM      2  F   UNL     1       6.975  -1.304  24.508  0.00  0.00    -0.166 F 
ATOM      3  F   UNL     1       7.373   0.700  23.764  0.00  0.00    -0.166 F 
ATOM     30  C   UNL     1       6.668  -0.439  23.497  0.00  0.00    +0.417 C 
ENDBRANCH  29  30
ENDBRANCH  22  24
ENDBRANCH  19  10
ENDBRANCH  13  19
BRANCH  16  21
ATOM     21  C   UNL     1      -2.315   5.509  25.402  0.00  0.00    +0.190 C 
BRANCH  21   7
ATOM      7  O   UNL     1      -1.029   5.752  24.854  0.00  0.00    -0.392 OA
ATOM     33  H   UNL     1      -1.153   5.953  23.911  0.00  0.00    +0.210 HD
ENDBRANCH  21   7
ENDBRANCH  16  21
TORSDOF 10
ENDMDL
MODEL 2
REMARK VINA RESULT:      -0.3      1.194      1.696
REMARK  Name = 28961799
REMARK  11 active torsions:
REMARK  status: ('A' for Active; 'I' for Inactive)
REMARK    1  A    between atoms: O_5  and  C_14
REMARK    2  A    between atoms: O_6  and  C_20
REMARK    3  A    between atoms: O_6  and  C_23
REMARK    4  A    between atoms: O_7  and  C_21
REMARK    5  A    between atoms: N_9  and  C_11
REMARK    6  A    between atoms: N_10  and  C_19
REMARK    7  A    between atoms: C_12  and  C_20
REMARK    8  A    between atoms: C_13  and  C_19
REMARK    9  A    between atoms: C_16  and  C_21
REMARK   10  A    between atoms: C_22  and  C_24
REMARK   11  A    between atoms: C_29  and  C_30
REMARK                            x       y       z     vdW  Elec       q    Type
REMARK                         _______ _______ _______ _____ _____    ______ ____
ROOT
ATOM      4  O   UNL     1      -2.773   3.424  25.506  0.00  0.00    -0.365 OA
ATOM     11  C   UNL     1      -3.497   1.168  25.273  0.00  0.00    +0.118 C 
ATOM     13  C   UNL     1      -2.300   2.114  25.118  0.00  0.00    +0.155 C 
ATOM     14  C   UNL     1      -4.692   2.095  25.105  0.00  0.00    +0.165 C 
ATOM     16  C   UNL     1      -4.178   3.344  25.813  0.00  0.00    +0.174 C 
ENDROOT
BRANCH  11   9
ATOM      9  N   UNL     1      -3.502  -0.008  24.419  0.00  0.00    -0.289 NA
ATOM     12  C   UNL     1      -2.476  -1.012  24.718  0.00  0.00    +0.083 C 
ATOM     15  C   UNL     1      -4.789  -0.698  24.402  0.00  0.00    +0.085 C 
ATOM     17  C   UNL     1      -2.946  -2.174  23.844  0.00  0.00    +0.022 C 
ATOM     18  C   UNL     1      -4.468  -2.085  23.858  0.00  0.00    +0.017 C 
BRANCH  12  20
ATOM     20  C   UNL     1      -2.352  -1.430  26.187  0.00  0.00    +0.178 C 
BRANCH  20   6
ATOM      6  O   UNL     1      -1.000  -1.284  26.586  0.00  0.00    -0.381 OA
ATOM     23  C   UNL     1      -0.103  -1.810  25.616  0.00  0.00    +0.194 C 
ENDBRANCH  20   6
ENDBRANCH  12  20
ENDBRANCH  11   9
BRANCH  14   5
ATOM      5  O   UNL     1      -4.947   2.372  23.734  0.00  0.00    -0.388 OA
ATOM     31  H   UNL     1      -5.897   2.234  23.578  0.00  0.00    +0.210 HD
ENDBRANCH  14   5
BRANCH  13  19
ATOM     19  C   UNL     1      -1.707   2.244  23.719  0.00  0.00    +0.137 C 
BRANCH  19  10
ATOM      8  O   UNL     1      -0.528   0.001  22.368  0.00  0.00    -0.270 OA
ATOM     10  N   UNL     1      -0.322   1.881  23.712  0.00  0.00    -0.309 N 
ATOM     22  C   UNL     1       0.166   0.772  23.025  0.00  0.00    +0.244 C 
ATOM     32  H   UNL     1       0.297   2.437  24.293  0.00  0.00    +0.149 HD
BRANCH  22  24
ATOM     24  C   UNL     1       1.625   0.517  23.137  0.00  0.00    +0.037 A 
ATOM     25  C   UNL     1       2.531   1.567  22.984  0.00  0.00    +0.013 A 
ATOM     26  C   UNL     1       2.090  -0.773  23.393  0.00  0.00    +0.013 A 
ATOM     27  C   UNL     1       3.900   1.328  23.088  0.00  0.00    +0.013 A 
ATOM     28  C   UNL     1       3.460  -1.012  23.497  0.00  0.00    +0.013 A 
ATOM     29  C   UNL     1       4.366   0.038  23.344  0.00  0.00    +0.055 A 
BRANCH  29  30
ATOM      1  F   UNL     1       6.535   0.840  23.957  0.00  0.00    -0.166 F 
ATOM      2  F   UNL     1       6.407  -0.506  22.253  0.00  0.00    -0.166 F 
ATOM      3  F   UNL     1       6.141  -1.270  24.271  0.00  0.00    -0.166 F 
ATOM     30  C   UNL     1       5.830  -0.219  23.457  0.00  0.00    +0.417 C 
ENDBRANCH  29  30
ENDBRANCH  22  24
ENDBRANCH  19  10
ENDBRANCH  13  19
BRANCH  16  21
ATOM     21  C   UNL     1      -4.853   4.644  25.414  0.00  0.00    +0.190 C 
BRANCH  21   7
ATOM      7  O   UNL     1      -6.242   4.542  25.683  0.00  0.00    -0.392 OA
ATOM     33  H   UNL     1      -6.546   5.423  25.957  0.00  0.00    +0.210 HD
ENDBRANCH  21   7
ENDBRANCH  16  21
TORSDOF 10
ENDMDL
MODEL 3
REMARK VINA RESULT:      -0.3      1.730      4.004
REMARK  Name = 28961799
REMARK  11 active torsions:
REMARK  status: ('A' for Active; 'I' for Inactive)
REMARK    1  A    between atoms: O_5  and  C_14
REMARK    2  A    between atoms: O_6  and  C_20
REMARK    3  A    between atoms: O_6  and  C_23
REMARK    4  A    between atoms: O_7  and  C_21
REMARK    5  A    between atoms: N_9  and  C_11
REMARK    6  A    between atoms: N_10  and  C_19
REMARK    7  A    between atoms: C_12  and  C_20
REMARK    8  A    between atoms: C_13  and  C_19
REMARK    9  A    between atoms: C_16  and  C_21
REMARK   10  A    between atoms: C_22  and  C_24
REMARK   11  A    between atoms: C_29  and  C_30
REMARK                            x       y       z     vdW  Elec       q    Type
REMARK                         _______ _______ _______ _____ _____    ______ ____
ROOT
ATOM      4  O   UNL     1      -2.117  -0.689  24.365  0.00  0.00    -0.365 OA
ATOM     11  C   UNL     1      -2.277   1.602  24.991  0.00  0.00    +0.118 C 
ATOM     13  C   UNL     1      -2.466   0.611  23.836  0.00  0.00    +0.155 C 
ATOM     14  C   UNL     1      -1.237   0.918  25.865  0.00  0.00    +0.165 C 
ATOM     16  C   UNL     1      -1.668  -0.538  25.726  0.00  0.00    +0.174 C 
ENDROOT
BRANCH  11   9
ATOM      9  N   UNL     1      -1.967   2.972  24.617  0.00  0.00    -0.289 NA
ATOM     12  C   UNL     1      -3.101   3.902  24.621  0.00  0.00    +0.083 C 
ATOM     15  C   UNL     1      -0.919   3.567  25.444  0.00  0.00    +0.085 C 
ATOM     17  C   UNL     1      -2.378   5.238  24.462  0.00  0.00    +0.022 C 
ATOM     18  C   UNL     1      -1.065   5.067  25.217  0.00  0.00    +0.017 C 
BRANCH  12  20
ATOM     20  C   UNL     1      -3.981   3.886  25.874  0.00  0.00    +0.178 C 
BRANCH  20   6
ATOM      6  O   UNL     1      -5.328   3.693  25.480  0.00  0.00    -0.381 OA
ATOM     23  C   UNL     1      -5.698   2.319  25.523  0.00  0.00    +0.194 C 
ENDBRANCH  20   6
ENDBRANCH  12  20
ENDBRANCH  11   9
BRANCH  14   5
ATOM      5  O   UNL     1       0.075   1.097  25.351  0.00  0.00    -0.388 OA
ATOM     31  H   UNL     1       0.700   0.966  26.084  0.00  0.00    +0.210 HD
ENDBRANCH  14   5
BRANCH  13  19
ATOM     19  C   UNL     1      -1.612   0.837  22.594  0.00  0.00    +0.137 C 
BRANCH  19  10
ATOM      8  O   UNL     1       0.380  -0.613  21.120  0.00  0.00    -0.270 OA
ATOM     10  N   UNL     1      -0.217   0.744  22.904  0.00  0.00    -0.309 N 
ATOM     22  C   UNL     1       0.683   0.015  22.130  0.00  0.00    +0.244 C 
ATOM     32  H   UNL     1       0.088   1.183  23.767  0.00  0.00    +0.149 HD
BRANCH  22  24
ATOM     24  C   UNL     1       2.092  -0.003  22.600  0.00  0.00    +0.037 A 
ATOM     25  C   UNL     1       2.651  -1.185  23.085  0.00  0.00    +0.013 A 
ATOM     26  C   UNL     1       2.857   1.163  22.557  0.00  0.00    +0.013 A 
ATOM     27  C   UNL     1       3.973  -1.202  23.527  0.00  0.00    +0.013 A 
ATOM     28  C   UNL     1       4.179   1.146  22.999  0.00  0.00    +0.013 A 
ATOM     29  C   UNL     1       4.738  -0.037  23.484  0.00  0.00    +0.055 A 
BRANCH  29  30
ATOM      1  F   UNL     1       7.049  -0.404  22.985  0.00  0.00    -0.166 F 
ATOM      2  F   UNL     1       6.355  -0.938  24.976  0.00  0.00    -0.166 F 
ATOM      3  F   UNL     1       6.588   1.152  24.424  0.00  0.00    -0.166 F 
ATOM     30  C   UNL     1       6.153  -0.054  23.955  0.00  0.00    +0.417 C 
ENDBRANCH  29  30
ENDBRANCH  22  24
ENDBRANCH  19  10
ENDBRANCH  13  19
BRANCH  16  21
ATOM     21  C   UNL     1      -0.591  -1.568  26.015  0.00  0.00    +0.190 C 
BRANCH  21   7
ATOM      7  O   UNL     1       0.359  -1.546  24.962  0.00  0.00    -0.392 OA
ATOM     33  H   UNL     1       1.162  -1.983  25.292  0.00  0.00    +0.210 HD
ENDBRANCH  21   7
ENDBRANCH  16  21
TORSDOF 10
ENDMDL
MODEL 4
REMARK VINA RESULT:       0.1      1.882      4.479
REMARK  Name = 28961799
REMARK  11 active torsions:
REMARK  status: ('A' for Active; 'I' for Inactive)
REMARK    1  A    between atoms: O_5  and  C_14
REMARK    2  A    between atoms: O_6  and  C_20
REMARK    3  A    between atoms: O_6  and  C_23
REMARK    4  A    between atoms: O_7  and  C_21
REMARK    5  A    between atoms: N_9  and  C_11
REMARK    6  A    between atoms: N_10  and  C_19
REMARK    7  A    between atoms: C_12  and  C_20
REMARK    8  A    between atoms: C_13  and  C_19
REMARK    9  A    between atoms: C_16  and  C_21
REMARK   10  A    between atoms: C_22  and  C_24
REMARK   11  A    between atoms: C_29  and  C_30
REMARK                            x       y       z     vdW  Elec       q    Type
REMARK                         _______ _______ _______ _____ _____    ______ ____
ROOT
ATOM      4  O   UNL     1      -4.269  -1.021  24.555  0.00  0.00    -0.365 OA
ATOM     11  C   UNL     1      -3.091   0.826  25.485  0.00  0.00    +0.118 C 
ATOM     13  C   UNL     1      -3.930   0.359  24.290  0.00  0.00    +0.155 C 
ATOM     14  C   UNL     1      -2.478  -0.468  26.001  0.00  0.00    +0.165 C 
ATOM     16  C   UNL     1      -3.638  -1.433  25.782  0.00  0.00    +0.174 C 
ENDROOT
BRANCH  11   9
ATOM      9  N   UNL     1      -2.145   1.898  25.225  0.00  0.00    -0.289 NA
ATOM     12  C   UNL     1      -2.728   3.236  25.075  0.00  0.00    +0.083 C 
ATOM     15  C   UNL     1      -1.098   1.997  26.241  0.00  0.00    +0.085 C 
ATOM     17  C   UNL     1      -1.471   4.102  25.096  0.00  0.00    +0.022 C 
ATOM     18  C   UNL     1      -0.520   3.394  26.055  0.00  0.00    +0.017 C 
BRANCH  12  20
ATOM     20  C   UNL     1      -3.721   3.662  26.160  0.00  0.00    +0.178 C 
BRANCH  20   6
ATOM      6  O   UNL     1      -4.973   3.924  25.550  0.00  0.00    -0.381 OA
ATOM     23  C   UNL     1      -5.911   2.884  25.803  0.00  0.00    +0.194 C 
ENDBRANCH  20   6
ENDBRANCH  12  20
ENDBRANCH  11   9
BRANCH  14   5
ATOM      5  O   UNL     1      -1.355  -0.858  25.223  0.00  0.00    -0.388 OA
ATOM     31  H   UNL     1      -1.683  -1.143  24.354  0.00  0.00    +0.210 HD
ENDBRANCH  14   5
BRANCH  13  19
ATOM     19  C   UNL     1      -3.258   0.404  22.922  0.00  0.00    +0.137 C 
BRANCH  19  10
ATOM      8  O   UNL     1      -1.259   2.353  22.251  0.00  0.00    -0.270 OA
ATOM     10  N   UNL     1      -1.839   0.250  23.041  0.00  0.00    -0.309 N 
ATOM     22  C   UNL     1      -0.938   1.252  22.691  0.00  0.00    +0.244 C 
ATOM     32  H   UNL     1      -1.504  -0.662  23.332  0.00  0.00    +0.149 HD
BRANCH  22  24
ATOM     24  C   UNL     1       0.503   0.927  22.849  0.00  0.00    +0.037 A 
ATOM     25  C   UNL     1       1.011  -0.264  22.330  0.00  0.00    +0.013 A 
ATOM     26  C   UNL     1       1.349   1.812  23.518  0.00  0.00    +0.013 A 
ATOM     27  C   UNL     1       2.363  -0.570  22.479  0.00  0.00    +0.013 A 
ATOM     28  C   UNL     1       2.701   1.506  23.667  0.00  0.00    +0.013 A 
ATOM     29  C   UNL     1       3.208   0.315  23.148  0.00  0.00    +0.055 A 
BRANCH  29  30
ATOM      1  F   UNL     1       4.884  -1.278  23.764  0.00  0.00    -0.166 F 
ATOM      2  F   UNL     1       5.285   0.817  24.190  0.00  0.00    -0.166 F 
ATOM      3  F   UNL     1       5.367   0.083  22.146  0.00  0.00    -0.166 F 
ATOM     30  C   UNL     1       4.655  -0.011  23.307  0.00  0.00    +0.417 C 
ENDBRANCH  29  30
ENDBRANCH  22  24
ENDBRANCH  19  10
ENDBRANCH  13  19
BRANCH  16  21
ATOM     21  C   UNL     1      -3.256  -2.899  25.682  0.00  0.00    +0.190 C 
BRANCH  21   7
ATOM      7  O   UNL     1      -3.088  -3.236  24.315  0.00  0.00    -0.392 OA
ATOM     33  H   UNL     1      -2.197  -2.945  24.056  0.00  0.00    +0.210 HD
ENDBRANCH  21   7
ENDBRANCH  16  21
TORSDOF 10
ENDMDL
MODEL 5
REMARK VINA RESULT:       0.6      1.518      3.880
REMARK  Name = 28961799
REMARK  11 active torsions:
REMARK  status: ('A' for Active; 'I' for Inactive)
REMARK    1  A    between atoms: O_5  and  C_14
REMARK    2  A    between atoms: O_6  and  C_20
REMARK    3  A    between atoms: O_6  and  C_23
REMARK    4  A    between atoms: O_7  and  C_21
REMARK    5  A    between atoms: N_9  and  C_11
REMARK    6  A    between atoms: N_10  and  C_19
REMARK    7  A    between atoms: C_12  and  C_20
REMARK    8  A    between atoms: C_13  and  C_19
REMARK    9  A    between atoms: C_16  and  C_21
REMARK   10  A    between atoms: C_22  and  C_24
REMARK   11  A    between atoms: C_29  and  C_30
REMARK                            x       y       z     vdW  Elec       q    Type
REMARK                         _______ _______ _______ _____ _____    ______ ____
ROOT
ATOM      4  O   UNL     1      -2.505  -1.026  23.748  0.00  0.00    -0.365 OA
ATOM     11  C   UNL     1      -3.901   0.830  24.269  0.00  0.00    +0.118 C 
ATOM     13  C   UNL     1      -2.446   0.367  24.130  0.00  0.00    +0.155 C 
ATOM     14  C   UNL     1      -4.642  -0.458  24.593  0.00  0.00    +0.165 C 
ATOM     16  C   UNL     1      -3.883  -1.447  23.716  0.00  0.00    +0.174 C 
ENDROOT
BRANCH  11   9
ATOM      9  N   UNL     1      -4.140   1.930  25.188  0.00  0.00    -0.289 NA
ATOM     12  C   UNL     1      -3.105   2.969  25.216  0.00  0.00    +0.083 C 
ATOM     15  C   UNL     1      -5.418   2.601  24.958  0.00  0.00    +0.085 C 
ATOM     17  C   UNL     1      -3.801   4.047  26.044  0.00  0.00    +0.022 C 
ATOM     18  C   UNL     1      -5.276   3.941  25.669  0.00  0.00    +0.017 C 
BRANCH  12  20
ATOM     20  C   UNL     1      -2.658   3.510  23.854  0.00  0.00    +0.178 C 
BRANCH  20   6
ATOM      6  O   UNL     1      -1.246   3.621  23.852  0.00  0.00    -0.381 OA
ATOM     23  C   UNL     1      -0.777   4.398  24.948  0.00  0.00    +0.194 C 
ENDBRANCH  20   6
ENDBRANCH  12  20
ENDBRANCH  11   9
BRANCH  14   5
ATOM      5  O   UNL     1      -4.506  -0.806  25.965  0.00  0.00    -0.388 OA
ATOM     31  H   UNL     1      -4.971  -1.648  26.103  0.00  0.00    +0.210 HD
ENDBRANCH  14   5
BRANCH  13  19
ATOM     19  C   UNL     1      -1.577   0.456  25.379  0.00  0.00    +0.137 C 
BRANCH  19  10
ATOM      8  O   UNL     1      -0.369   0.825  22.801  0.00  0.00    -0.270 OA
ATOM     10  N   UNL     1      -0.191   0.302  25.055  0.00  0.00    -0.309 N 
ATOM     22  C   UNL     1       0.312   0.502  23.771  0.00  0.00    +0.244 C 
ATOM     32  H   UNL     1       0.415  -0.032  25.796  0.00  0.00    +0.149 HD
BRANCH  22  24
ATOM     24  C   UNL     1       1.769   0.278  23.592  0.00  0.00    +0.037 A 
ATOM     25  C   UNL     1       2.589   1.323  23.169  0.00  0.00    +0.013 A 
ATOM     26  C   UNL     1       2.317  -0.980  23.845  0.00  0.00    +0.013 A 
ATOM     27  C   UNL     1       3.957   1.112  22.999  0.00  0.00    +0.013 A 
ATOM     28  C   UNL     1       3.685  -1.191  23.676  0.00  0.00    +0.013 A 
ATOM     29  C   UNL     1       4.506  -0.145  23.252  0.00  0.00    +0.055 A 
BRANCH  29  30
ATOM      1  F   UNL     1       6.367  -0.369  21.766  0.00  0.00    -0.166 F 
ATOM      2  F   UNL     1       6.381  -1.570  23.580  0.00  0.00    -0.166 F 
ATOM      3  F   UNL     1       6.747   0.570  23.684  0.00  0.00    -0.166 F 
ATOM     30  C   UNL     1       5.969  -0.371  23.073  0.00  0.00    +0.417 C 
ENDBRANCH  29  30
ENDBRANCH  22  24
ENDBRANCH  19  10
ENDBRANCH  13  19
BRANCH  16  21
ATOM     21  C   UNL     1      -3.972  -2.901  24.144  0.00  0.00    +0.190 C 
BRANCH  21   7
ATOM      7  O   UNL     1      -3.199  -3.081  25.320  0.00  0.00    -0.392 OA
ATOM     33  H   UNL     1      -3.674  -2.639  26.045  0.00  0.00    +0.210 HD
ENDBRANCH  21   7
ENDBRANCH  16  21
TORSDOF 10
ENDMDL
MODEL 6
REMARK VINA RESULT:       1.8      1.669      2.824
REMARK  Name = 28961799
REMARK  11 active torsions:
REMARK  status: ('A' for Active; 'I' for Inactive)
REMARK    1  A    between atoms: O_5  and  C_14
REMARK    2  A    between atoms: O_6  and  C_20
REMARK    3  A    between atoms: O_6  and  C_23
REMARK    4  A    between atoms: O_7  and  C_21
REMARK    5  A    between atoms: N_9  and  C_11
REMARK    6  A    between atoms: N_10  and  C_19
REMARK    7  A    between atoms: C_12  and  C_20
REMARK    8  A    between atoms: C_13  and  C_19
REMARK    9  A    between atoms: C_16  and  C_21
REMARK   10  A    between atoms: C_22  and  C_24
REMARK   11  A    between atoms: C_29  and  C_30
REMARK                            x       y       z     vdW  Elec       q    Type
REMARK                         _______ _______ _______ _____ _____    ______ ____
ROOT
ATOM      4  O   UNL     1      -0.360   1.034  26.298  0.00  0.00    -0.365 OA
ATOM     11  C   UNL     1      -2.164   2.426  25.608  0.00  0.00    +0.118 C 
ATOM     13  C   UNL     1      -1.503   1.055  25.414  0.00  0.00    +0.155 C 
ATOM     14  C   UNL     1      -1.010   3.300  26.076  0.00  0.00    +0.165 C 
ATOM     16  C   UNL     1      -0.248   2.313  26.953  0.00  0.00    +0.174 C 
ENDROOT
BRANCH  11   9
ATOM      9  N   UNL     1      -2.914   2.944  24.476  0.00  0.00    -0.289 NA
ATOM     12  C   UNL     1      -4.029   2.108  24.019  0.00  0.00    +0.083 C 
ATOM     15  C   UNL     1      -3.447   4.284  24.708  0.00  0.00    +0.085 C 
ATOM     17  C   UNL     1      -4.723   3.061  23.048  0.00  0.00    +0.022 C 
ATOM     18  C   UNL     1      -4.535   4.447  23.653  0.00  0.00    +0.017 C 
BRANCH  12  20
ATOM     20  C   UNL     1      -4.990   1.616  25.105  0.00  0.00    +0.178 C 
BRANCH  20   6
ATOM      6  O   UNL     1      -4.674   0.270  25.415  0.00  0.00    -0.381 OA
ATOM     23  C   UNL     1      -4.408  -0.492  24.243  0.00  0.00    +0.194 C 
ENDBRANCH  20   6
ENDBRANCH  12  20
ENDBRANCH  11   9
BRANCH  14   5
ATOM      5  O   UNL     1      -0.201   3.722  24.986  0.00  0.00    -0.388 OA
ATOM     31  H   UNL     1       0.370   2.976  24.737  0.00  0.00    +0.210 HD
ENDBRANCH  14   5
BRANCH  13  19
ATOM     19  C   UNL     1      -0.996   0.733  24.012  0.00  0.00    +0.137 C 
BRANCH  19  10
ATOM      8  O   UNL     1       0.593  -0.512  21.971  0.00  0.00    -0.270 OA
ATOM     10  N   UNL     1       0.430   0.607  23.997  0.00  0.00    -0.309 N 
ATOM     22  C   UNL     1       1.123  -0.016  22.961  0.00  0.00    +0.244 C 
ATOM     32  H   UNL     1       0.925   0.934  24.820  0.00  0.00    +0.149 HD
BRANCH  22  24
ATOM     24  C   UNL     1       2.599  -0.088  23.106  0.00  0.00    +0.037 A 
ATOM     25  C   UNL     1       3.198  -1.259  23.572  0.00  0.00    +0.013 A 
ATOM     26  C   UNL     1       3.388   1.014  22.778  0.00  0.00    +0.013 A 
ATOM     27  C   UNL     1       4.584  -1.327  23.710  0.00  0.00    +0.013 A 
ATOM     28  C   UNL     1       4.774   0.946  22.915  0.00  0.00    +0.013 A 
ATOM     29  C   UNL     1       5.372  -0.224  23.382  0.00  0.00    +0.055 A 
BRANCH  29  30
ATOM      1  F   UNL     1       7.488  -0.809  22.430  0.00  0.00    -0.166 F 
ATOM      2  F   UNL     1       7.242  -1.082  24.574  0.00  0.00    -0.166 F 
ATOM      3  F   UNL     1       7.443   0.916  23.743  0.00  0.00    -0.166 F 
ATOM     30  C   UNL     1       6.855  -0.297  23.527  0.00  0.00    +0.417 C 
ENDBRANCH  29  30
ENDBRANCH  22  24
ENDBRANCH  19  10
ENDBRANCH  13  19
BRANCH  16  21
ATOM     21  C   UNL     1       1.219   2.635  27.176  0.00  0.00    +0.190 C 
BRANCH  21   7
ATOM      7  O   UNL     1       1.519   2.477  28.553  0.00  0.00    -0.392 OA
ATOM     33  H   UNL     1       1.164   3.256  29.015  0.00  0.00    +0.210 HD
ENDBRANCH  21   7
ENDBRANCH  16  21
TORSDOF 10
ENDMDL
MODEL 7
REMARK VINA RESULT:       3.1      5.180      8.177
REMARK  Name = 28961799
REMARK  11 active torsions:
REMARK  status: ('A' for Active; 'I' for Inactive)
REMARK    1  A    between atoms: O_5  and  C_14
REMARK    2  A    between atoms: O_6  and  C_20
REMARK    3  A    between atoms: O_6  and  C_23
REMARK    4  A    between atoms: O_7  and  C_21
REMARK    5  A    between atoms: N_9  and  C_11
REMARK    6  A    between atoms: N_10  and  C_19
REMARK    7  A    between atoms: C_12  and  C_20
REMARK    8  A    between atoms: C_13  and  C_19
REMARK    9  A    between atoms: C_16  and  C_21
REMARK   10  A    between atoms: C_22  and  C_24
REMARK   11  A    between atoms: C_29  and  C_30
REMARK                            x       y       z     vdW  Elec       q    Type
REMARK                         _______ _______ _______ _____ _____    ______ ____
ROOT
ATOM      4  O   UNL     1       1.199  -1.126  23.493  0.00  0.00    -0.365 OA
ATOM     11  C   UNL     1       0.731   0.897  24.657  0.00  0.00    +0.118 C 
ATOM     13  C   UNL     1       0.331  -0.577  24.510  0.00  0.00    +0.155 C 
ATOM     14  C   UNL     1       1.321   1.230  23.295  0.00  0.00    +0.165 C 
ATOM     16  C   UNL     1       2.037  -0.077  22.973  0.00  0.00    +0.174 C 
ENDROOT
BRANCH  11   9
ATOM      9  N   UNL     1      -0.308   1.801  25.120  0.00  0.00    -0.289 NA
ATOM     12  C   UNL     1      -0.319   2.068  26.563  0.00  0.00    +0.083 C 
ATOM     15  C   UNL     1      -0.283   3.095  24.442  0.00  0.00    +0.085 C 
ATOM     17  C   UNL     1      -1.317   3.223  26.633  0.00  0.00    +0.022 C 
ATOM     18  C   UNL     1      -1.097   4.013  25.347  0.00  0.00    +0.017 C 
BRANCH  12  20
ATOM     20  C   UNL     1       1.026   2.450  27.187  0.00  0.00    +0.178 C 
BRANCH  20   6
ATOM      6  O   UNL     1       0.901   2.401  28.597  0.00  0.00    -0.381 OA
ATOM     23  C   UNL     1       2.141   2.658  29.246  0.00  0.00    +0.194 C 
ENDBRANCH  20   6
ENDBRANCH  12  20
ENDBRANCH  11   9
BRANCH  14   5
ATOM      5  O   UNL     1       0.304   1.487  22.336  0.00  0.00    -0.388 OA
ATOM     31  H   UNL     1       0.734   1.836  21.537  0.00  0.00    +0.210 HD
ENDBRANCH  14   5
BRANCH  13  19
ATOM     19  C   UNL     1      -1.104  -0.856  24.080  0.00  0.00    +0.137 C 
BRANCH  19  10
ATOM      8  O   UNL     1      -3.931  -0.689  23.606  0.00  0.00    -0.270 OA
ATOM     10  N   UNL     1      -1.963   0.242  24.409  0.00  0.00    -0.309 N 
ATOM     22  C   UNL     1      -3.330   0.238  24.142  0.00  0.00    +0.244 C 
ATOM     32  H   UNL     1      -1.518   1.069  24.791  0.00  0.00    +0.149 HD
BRANCH  22  24
ATOM     24  C   UNL     1      -4.079   1.464  24.522  0.00  0.00    +0.037 A 
ATOM     25  C   UNL     1      -5.047   1.408  25.524  0.00  0.00    +0.013 A 
ATOM     26  C   UNL     1      -3.814   2.671  23.875  0.00  0.00    +0.013 A 
ATOM     27  C   UNL     1      -5.751   2.558  25.880  0.00  0.00    +0.013 A 
ATOM     28  C   UNL     1      -4.518   3.821  24.231  0.00  0.00    +0.013 A 
ATOM     29  C   UNL     1      -5.486   3.765  25.233  0.00  0.00    +0.055 A 
BRANCH  29  30
ATOM      1  F   UNL     1      -5.502   5.879  26.354  0.00  0.00    -0.166 F 
ATOM      2  F   UNL     1      -7.345   4.724  26.364  0.00  0.00    -0.166 F 
ATOM      3  F   UNL     1      -6.687   5.716  24.545  0.00  0.00    -0.166 F 
ATOM     30  C   UNL     1      -6.237   4.996  25.615  0.00  0.00    +0.417 C 
ENDBRANCH  29  30
ENDBRANCH  22  24
ENDBRANCH  19  10
ENDBRANCH  13  19
BRANCH  16  21
ATOM     21  C   UNL     1       2.301  -0.330  21.500  0.00  0.00    +0.190 C 
BRANCH  21   7
ATOM      7  O   UNL     1       1.079  -0.679  20.868  0.00  0.00    -0.392 OA
ATOM     33  H   UNL     1       1.295  -1.292  20.146  0.00  0.00    +0.210 HD
ENDBRANCH  21   7
ENDBRANCH  16  21
TORSDOF 10
ENDMDL
MODEL 8
REMARK VINA RESULT:       3.3      4.883      7.602
REMARK  Name = 28961799
REMARK  11 active torsions:
REMARK  status: ('A' for Active; 'I' for Inactive)
REMARK    1  A    between atoms: O_5  and  C_14
REMARK    2  A    between atoms: O_6  and  C_20
REMARK    3  A    between atoms: O_6  and  C_23
REMARK    4  A    between atoms: O_7  and  C_21
REMARK    5  A    between atoms: N_9  and  C_11
REMARK    6  A    between atoms: N_10  and  C_19
REMARK    7  A    between atoms: C_12  and  C_20
REMARK    8  A    between atoms: C_13  and  C_19
REMARK    9  A    between atoms: C_16  and  C_21
REMARK   10  A    between atoms: C_22  and  C_24
REMARK   11  A    between atoms: C_29  and  C_30
REMARK                            x       y       z     vdW  Elec       q    Type
REMARK                         _______ _______ _______ _____ _____    ______ ____
ROOT
ATOM      4  O   UNL     1       1.900  -0.352  21.626  0.00  0.00    -0.365 OA
ATOM     11  C   UNL     1       0.575  -0.685  23.576  0.00  0.00    +0.118 C 
ATOM     13  C   UNL     1       0.537  -0.590  22.046  0.00  0.00    +0.155 C 
ATOM     14  C   UNL     1       1.802   0.138  23.941  0.00  0.00    +0.165 C 
ATOM     16  C   UNL     1       2.736  -0.228  22.793  0.00  0.00    +0.174 C 
ENDROOT
BRANCH  11   9
ATOM      9  N   UNL     1      -0.646  -0.318  24.273  0.00  0.00    -0.289 NA
ATOM     12  C   UNL     1      -1.774  -1.241  24.104  0.00  0.00    +0.083 C 
ATOM     15  C   UNL     1      -0.451  -0.134  25.710  0.00  0.00    +0.085 C 
ATOM     17  C   UNL     1      -2.743  -0.707  25.157  0.00  0.00    +0.022 C 
ATOM     18  C   UNL     1      -1.856  -0.215  26.295  0.00  0.00    +0.017 C 
BRANCH  12  20
ATOM     20  C   UNL     1      -1.467  -2.725  24.326  0.00  0.00    +0.178 C 
BRANCH  20   6
ATOM      6  O   UNL     1      -2.647  -3.369  24.775  0.00  0.00    -0.381 OA
ATOM     23  C   UNL     1      -3.773  -3.022  23.978  0.00  0.00    +0.194 C 
ENDBRANCH  20   6
ENDBRANCH  12  20
ENDBRANCH  11   9
BRANCH  14   5
ATOM      5  O   UNL     1       1.518   1.530  23.924  0.00  0.00    -0.388 OA
ATOM     31  H   UNL     1       2.167   1.956  23.339  0.00  0.00    +0.210 HD
ENDBRANCH  14   5
BRANCH  13  19
ATOM     19  C   UNL     1      -0.320   0.522  21.451  0.00  0.00    +0.137 C 
BRANCH  19  10
ATOM      8  O   UNL     1      -2.534   2.271  20.918  0.00  0.00    -0.270 OA
ATOM     10  N   UNL     1      -1.289   0.986  22.397  0.00  0.00    -0.309 N 
ATOM     22  C   UNL     1      -2.337   1.837  22.050  0.00  0.00    +0.244 C 
ATOM     32  H   UNL     1      -1.144   0.721  23.365  0.00  0.00    +0.149 HD
BRANCH  22  24
ATOM     24  C   UNL     1      -3.244   2.248  23.152  0.00  0.00    +0.037 A 
ATOM     25  C   UNL     1      -4.265   1.394  23.571  0.00  0.00    +0.013 A 
ATOM     26  C   UNL     1      -3.077   3.488  23.767  0.00  0.00    +0.013 A 
ATOM     27  C   UNL     1      -5.117   1.780  24.605  0.00  0.00    +0.013 A 
ATOM     28  C   UNL     1      -3.930   3.874  24.801  0.00  0.00    +0.013 A 
ATOM     29  C   UNL     1      -4.950   3.021  25.220  0.00  0.00    +0.055 A 
BRANCH  29  30
ATOM      1  F   UNL     1      -6.629   4.523  26.026  0.00  0.00    -0.166 F 
ATOM      2  F   UNL     1      -5.185   3.765  27.466  0.00  0.00    -0.166 F 
ATOM      3  F   UNL     1      -6.747   2.464  26.697  0.00  0.00    -0.166 F 
ATOM     30  C   UNL     1      -5.860   3.434  26.327  0.00  0.00    +0.417 C 
ENDBRANCH  29  30
ENDBRANCH  22  24
ENDBRANCH  19  10
ENDBRANCH  13  19
BRANCH  16  21
ATOM     21  C   UNL     1       3.845   0.770  22.511  0.00  0.00    +0.190 C 
BRANCH  21   7
ATOM      7  O   UNL     1       4.673   0.871  23.658  0.00  0.00    -0.392 OA
ATOM     33  H   UNL     1       4.580   0.039  24.152  0.00  0.00    +0.210 HD
ENDBRANCH  21   7
ENDBRANCH  16  21
TORSDOF 10
ENDMDL
MODEL 9
REMARK VINA RESULT:       3.4     14.617     16.445
REMARK  Name = 28961799
REMARK  11 active torsions:
REMARK  status: ('A' for Active; 'I' for Inactive)
REMARK    1  A    between atoms: O_5  and  C_14
REMARK    2  A    between atoms: O_6  and  C_20
REMARK    3  A    between atoms: O_6  and  C_23
REMARK    4  A    between atoms: O_7  and  C_21
REMARK    5  A    between atoms: N_9  and  C_11
REMARK    6  A    between atoms: N_10  and  C_19
REMARK    7  A    between atoms: C_12  and  C_20
REMARK    8  A    between atoms: C_13  and  C_19
REMARK    9  A    between atoms: C_16  and  C_21
REMARK   10  A    between atoms: C_22  and  C_24
REMARK   11  A    between atoms: C_29  and  C_30
REMARK                            x       y       z     vdW  Elec       q    Type
REMARK                         _______ _______ _______ _____ _____    ______ ____
ROOT
ATOM      4  O   UNL     1      -4.432 -10.479  13.192  0.00  0.00    -0.365 OA
ATOM     11  C   UNL     1      -6.697 -10.772  12.518  0.00  0.00    +0.118 C 
ATOM     13  C   UNL     1      -5.249 -10.688  12.018  0.00  0.00    +0.155 C 
ATOM     14  C   UNL     1      -6.660  -9.969  13.810  0.00  0.00    +0.165 C 
ATOM     16  C   UNL     1      -5.288 -10.362  14.345  0.00  0.00    +0.174 C 
ENDROOT
BRANCH  11   9
ATOM      9  N   UNL     1      -7.727 -10.376  11.573  0.00  0.00    -0.289 NA
ATOM     12  C   UNL     1      -9.094 -10.779  11.920  0.00  0.00    +0.083 C 
ATOM     15  C   UNL     1      -7.752  -8.937  11.322  0.00  0.00    +0.085 C 
ATOM     17  C   UNL     1      -9.898  -9.984  10.893  0.00  0.00    +0.022 C 
ATOM     18  C   UNL     1      -9.124  -8.683  10.708  0.00  0.00    +0.017 C 
BRANCH  12  20
ATOM     20  C   UNL     1      -9.545 -10.465  13.350  0.00  0.00    +0.178 C 
BRANCH  20   6
ATOM      6  O   UNL     1     -10.571  -9.490  13.297  0.00  0.00    -0.381 OA
ATOM     23  C   UNL     1     -10.523  -8.614  14.418  0.00  0.00    +0.194 C 
ENDBRANCH  20   6
ENDBRANCH  12  20
ENDBRANCH  11   9
BRANCH  14   5
ATOM      5  O   UNL     1      -6.712  -8.571  13.556  0.00  0.00    -0.388 OA
ATOM     31  H   UNL     1      -7.431  -8.200  14.094  0.00  0.00    +0.210 HD
ENDBRANCH  14   5
BRANCH  13  19
ATOM     19  C   UNL     1      -4.928  -9.566  11.038  0.00  0.00    +0.137 C 
BRANCH  19  10
ATOM      8  O   UNL     1      -2.423 -10.618  10.109  0.00  0.00    -0.270 OA
ATOM     10  N   UNL     1      -3.627  -9.022  11.287  0.00  0.00    -0.309 N 
ATOM     22  C   UNL     1      -2.459  -9.599  10.794  0.00  0.00    +0.244 C 
ATOM     32  H   UNL     1      -3.580  -8.219  11.906  0.00  0.00    +0.149 HD
BRANCH  22  24
ATOM     24  C   UNL     1      -1.186  -8.928  11.162  0.00  0.00    +0.037 A 
ATOM     25  C   UNL     1      -1.119  -8.140  12.311  0.00  0.00    +0.013 A 
ATOM     26  C   UNL     1      -0.057  -9.084  10.358  0.00  0.00    +0.013 A 
ATOM     27  C   UNL     1       0.075  -7.509  12.656  0.00  0.00    +0.013 A 
ATOM     28  C   UNL     1       1.137  -8.452  10.703  0.00  0.00    +0.013 A 
ATOM     29  C   UNL     1       1.204  -7.664  11.852  0.00  0.00    +0.055 A 
BRANCH  29  30
ATOM      1  F   UNL     1       3.557  -7.419  11.494  0.00  0.00    -0.166 F 
ATOM      2  F   UNL     1       2.821  -7.189  13.528  0.00  0.00    -0.166 F 
ATOM      3  F   UNL     1       2.456  -5.636  12.052  0.00  0.00    -0.166 F 
ATOM     30  C   UNL     1       2.482  -6.991  12.221  0.00  0.00    +0.417 C 
ENDBRANCH  29  30
ENDBRANCH  22  24
ENDBRANCH  19  10
ENDBRANCH  13  19
BRANCH  16  21
ATOM     21  C   UNL     1      -4.668  -9.387  15.331  0.00  0.00    +0.190 C 
BRANCH  21   7
ATOM      7  O   UNL     1      -5.674  -8.935  16.223  0.00  0.00    -0.392 OA
ATOM     33  H   UNL     1      -6.477  -9.451  16.033  0.00  0.00    +0.210 HD
ENDBRANCH  21   7
ENDBRANCH  16  21
TORSDOF 10
ENDMDL
MODEL 10
REMARK VINA RESULT:       3.4      1.234      2.154
REMARK  Name = 28961799
REMARK  11 active torsions:
REMARK  status: ('A' for Active; 'I' for Inactive)
REMARK    1  A    between atoms: O_5  and  C_14
REMARK    2  A    between atoms: O_6  and  C_20
REMARK    3  A    between atoms: O_6  and  C_23
REMARK    4  A    between atoms: O_7  and  C_21
REMARK    5  A    between atoms: N_9  and  C_11
REMARK    6  A    between atoms: N_10  and  C_19
REMARK    7  A    between atoms: C_12  and  C_20
REMARK    8  A    between atoms: C_13  and  C_19
REMARK    9  A    between atoms: C_16  and  C_21
REMARK   10  A    between atoms: C_22  and  C_24
REMARK   11  A    between atoms: C_29  and  C_30
REMARK                            x       y       z     vdW  Elec       q    Type
REMARK                         _______ _______ _______ _____ _____    ______ ____
ROOT
ATOM      4  O   UNL     1      -0.725   3.135  25.469  0.00  0.00    -0.365 OA
ATOM     11  C   UNL     1      -2.488   1.555  25.714  0.00  0.00    +0.118 C 
ATOM     13  C   UNL     1      -1.000   1.719  25.382  0.00  0.00    +0.155 C 
ATOM     14  C   UNL     1      -3.077   2.903  25.326  0.00  0.00    +0.165 C 
ATOM     16  C   UNL     1      -1.950   3.835  25.758  0.00  0.00    +0.174 C 
ENDROOT
BRANCH  11   9
ATOM      9  N   UNL     1      -3.152   0.400  25.133  0.00  0.00    -0.289 NA
ATOM     12  C   UNL     1      -4.617   0.407  25.209  0.00  0.00    +0.083 C 
ATOM     15  C   UNL     1      -2.794   0.177  23.734  0.00  0.00    +0.085 C 
ATOM     17  C   UNL     1      -4.958  -0.766  24.292  0.00  0.00    +0.022 C 
ATOM     18  C   UNL     1      -3.890  -0.740  23.204  0.00  0.00    +0.017 C 
BRANCH  12  20
ATOM     20  C   UNL     1      -5.308   1.695  24.752  0.00  0.00    +0.178 C 
BRANCH  20   6
ATOM      6  O   UNL     1      -6.588   1.762  25.357  0.00  0.00    -0.381 OA
ATOM     23  C   UNL     1      -6.497   2.009  26.755  0.00  0.00    +0.194 C 
ENDBRANCH  20   6
ENDBRANCH  12  20
ENDBRANCH  11   9
BRANCH  14   5
ATOM      5  O   UNL     1      -3.286   2.996  23.923  0.00  0.00    -0.388 OA
ATOM     31  H   UNL     1      -4.240   3.107  23.774  0.00  0.00    +0.210 HD
ENDBRANCH  14   5
BRANCH  13  19
ATOM     19  C   UNL     1      -0.552   1.255  24.001  0.00  0.00    +0.137 C 
BRANCH  19  10
ATOM      8  O   UNL     1       0.870  -0.445  22.175  0.00  0.00    -0.270 OA
ATOM     10  N   UNL     1       0.862   1.029  23.967  0.00  0.00    -0.309 N 
ATOM     22  C   UNL     1       1.471   0.185  23.042  0.00  0.00    +0.244 C 
ATOM     32  H   UNL     1       1.410   1.465  24.701  0.00  0.00    +0.149 HD
BRANCH  22  24
ATOM     24  C   UNL     1       2.945   0.037  23.155  0.00  0.00    +0.037 A 
ATOM     25  C   UNL     1       3.782   1.088  22.779  0.00  0.00    +0.013 A 
ATOM     26  C   UNL     1       3.493  -1.153  23.634  0.00  0.00    +0.013 A 
ATOM     27  C   UNL     1       5.166   0.949  22.884  0.00  0.00    +0.013 A 
ATOM     28  C   UNL     1       4.876  -1.291  23.739  0.00  0.00    +0.013 A 
ATOM     29  C   UNL     1       5.713  -0.241  23.363  0.00  0.00    +0.055 A 
BRANCH  29  30
ATOM      1  F   UNL     1       7.588  -1.129  24.555  0.00  0.00    -0.166 F 
ATOM      2  F   UNL     1       7.833   0.810  23.601  0.00  0.00    -0.166 F 
ATOM      3  F   UNL     1       7.766  -0.999  22.398  0.00  0.00    -0.166 F 
ATOM     30  C   UNL     1       7.193  -0.389  23.477  0.00  0.00    +0.417 C 
ENDBRANCH  29  30
ENDBRANCH  22  24
ENDBRANCH  19  10
ENDBRANCH  13  19
BRANCH  16  21
ATOM     21  C   UNL     1      -1.926   5.190  25.074  0.00  0.00    +0.190 C 
BRANCH  21   7
ATOM      7  O   UNL     1      -0.589   5.497  24.712  0.00  0.00    -0.392 OA
ATOM     33  H   UNL     1      -0.135   5.796  25.518  0.00  0.00    +0.210 HD
ENDBRANCH  21   7
ENDBRANCH  16  21
TORSDOF 10
ENDMDL
