MODEL 1
REMARK VINA RESULT:      -2.3      0.000      0.000
REMARK  Name = 75367746
REMARK  8 active torsions:
REMARK  status: ('A' for Active; 'I' for Inactive)
REMARK    1  A    between atoms: S_1  and  N_8
REMARK    2  A    between atoms: S_1  and  C_14
REMARK    3  A    between atoms: O_3  and  C_10
REMARK    4  A    between atoms: O_3  and  C_15
REMARK    5  A    between atoms: O_6  and  C_20
REMARK    6  A    between atoms: O_6  and  C_26
REMARK    7  A    between atoms: O_7  and  C_25
REMARK    8  A    between atoms: O_7  and  C_27
REMARK                            x       y       z     vdW  Elec       q    Type
REMARK                         _______ _______ _______ _____ _____    ______ ____
ROOT
ATOM      2  O   UNL     1      -2.283   4.974  24.533  0.00  0.00    -0.375 OA
ATOM      8  N   UNL     1      -4.293   2.876  25.508  0.00  0.00    -0.171 NA
ATOM      9  C   UNL     1      -2.947   2.268  25.283  0.00  0.00    +0.156 C 
ATOM     10  C   UNL     1      -1.898   3.044  26.076  0.00  0.00    +0.215 C 
ATOM     11  C   UNL     1      -4.529   4.136  24.742  0.00  0.00    +0.137 C 
ATOM     12  C   UNL     1      -1.351   4.271  25.343  0.00  0.00    +0.205 C 
ATOM     13  C   UNL     1      -3.543   5.225  25.144  0.00  0.00    +0.177 C 
ENDROOT
BRANCH   8   1
ATOM      1  S   UNL     1      -5.607   1.771  25.500  0.00  0.00    +0.061 S 
ATOM      4  O   UNL     1      -6.433   2.035  24.344  0.00  0.00    -0.153 OA
ATOM      5  O   UNL     1      -6.173   1.713  26.829  0.00  0.00    -0.153 OA
BRANCH   1  14
ATOM     14  C   UNL     1      -4.734   0.264  25.212  0.00  0.00    +0.106 A 
ATOM     16  C   UNL     1      -4.732  -0.310  23.942  0.00  0.00    +0.032 A 
ATOM     17  C   UNL     1      -4.045  -0.352  26.257  0.00  0.00    +0.032 A 
ATOM     18  C   UNL     1      -4.040  -1.500  23.715  0.00  0.00    +0.047 A 
ATOM     19  C   UNL     1      -3.353  -1.543  26.030  0.00  0.00    +0.047 A 
ATOM     20  C   UNL     1      -3.351  -2.116  24.759  0.00  0.00    +0.120 A 
BRANCH  20   6
ATOM      6  O   UNL     1      -2.676  -3.277  24.537  0.00  0.00    -0.495 OA
ATOM     26  C   UNL     1      -1.458  -3.188  23.799  0.00  0.00    +0.277 C 
ENDBRANCH  20   6
ENDBRANCH   1  14
ENDBRANCH   8   1
BRANCH  10   3
ATOM      3  O   UNL     1      -0.811   2.170  26.377  0.00  0.00    -0.485 OA
BRANCH   3  15
ATOM     15  C   UNL     1      -0.225   1.535  25.316  0.00  0.00    +0.121 A 
ATOM     21  C   UNL     1       0.727   2.200  24.544  0.00  0.00    +0.049 A 
ATOM     22  C   UNL     1      -0.581   0.222  25.006  0.00  0.00    +0.049 A 
ATOM     23  C   UNL     1       1.324   1.552  23.462  0.00  0.00    +0.049 A 
ATOM     24  C   UNL     1       0.015  -0.426  23.925  0.00  0.00    +0.049 A 
ATOM     25  C   UNL     1       0.968   0.239  23.153  0.00  0.00    +0.120 A 
BRANCH  25   7
ATOM      7  O   UNL     1       1.550  -0.393  22.097  0.00  0.00    -0.495 OA
ATOM     27  C   UNL     1       2.903  -0.050  21.800  0.00  0.00    +0.277 C 
ENDBRANCH  25   7
ENDBRANCH   3  15
ENDBRANCH  10   3
TORSDOF 6
ENDMDL
MODEL 2
REMARK VINA RESULT:      -1.9      1.455      4.674
REMARK  Name = 75367746
REMARK  8 active torsions:
REMARK  status: ('A' for Active; 'I' for Inactive)
REMARK    1  A    between atoms: S_1  and  N_8
REMARK    2  A    between atoms: S_1  and  C_14
REMARK    3  A    between atoms: O_3  and  C_10
REMARK    4  A    between atoms: O_3  and  C_15
REMARK    5  A    between atoms: O_6  and  C_20
REMARK    6  A    between atoms: O_6  and  C_26
REMARK    7  A    between atoms: O_7  and  C_25
REMARK    8  A    between atoms: O_7  and  C_27
REMARK                            x       y       z     vdW  Elec       q    Type
REMARK                         _______ _______ _______ _____ _____    ______ ____
ROOT
ATOM      2  O   UNL     1      -3.846  -2.911  24.398  0.00  0.00    -0.375 OA
ATOM      8  N   UNL     1      -4.714   0.008  24.736  0.00  0.00    -0.171 NA
ATOM      9  C   UNL     1      -3.572  -0.323  25.642  0.00  0.00    +0.156 C 
ATOM     10  C   UNL     1      -2.421  -0.900  24.822  0.00  0.00    +0.215 C 
ATOM     11  C   UNL     1      -5.511  -1.178  24.303  0.00  0.00    +0.137 C 
ATOM     12  C   UNL     1      -2.529  -2.407  24.579  0.00  0.00    +0.205 C 
ATOM     13  C   UNL     1      -4.661  -2.160  23.507  0.00  0.00    +0.177 C 
ENDROOT
BRANCH   8   1
ATOM      1  S   UNL     1      -5.646   1.373  25.201  0.00  0.00    +0.061 S 
ATOM      4  O   UNL     1      -6.069   1.205  26.573  0.00  0.00    -0.153 OA
ATOM      5  O   UNL     1      -6.598   1.664  24.153  0.00  0.00    -0.153 OA
BRANCH   1  14
ATOM     14  C   UNL     1      -4.397   2.620  25.166  0.00  0.00    +0.106 A 
ATOM     16  C   UNL     1      -4.206   3.446  26.272  0.00  0.00    +0.032 A 
ATOM     17  C   UNL     1      -3.601   2.777  24.032  0.00  0.00    +0.032 A 
ATOM     18  C   UNL     1      -3.216   4.430  26.245  0.00  0.00    +0.047 A 
ATOM     19  C   UNL     1      -2.612   3.761  24.003  0.00  0.00    +0.047 A 
ATOM     20  C   UNL     1      -2.420   4.587  25.110  0.00  0.00    +0.120 A 
BRANCH  20   6
ATOM      6  O   UNL     1      -1.456   5.548  25.084  0.00  0.00    -0.495 OA
ATOM     26  C   UNL     1      -0.155   5.148  24.654  0.00  0.00    +0.277 C 
ENDBRANCH  20   6
ENDBRANCH   1  14
ENDBRANCH   8   1
BRANCH  10   3
ATOM      3  O   UNL     1      -1.194  -0.634  25.501  0.00  0.00    -0.485 OA
BRANCH   3  15
ATOM     15  C   UNL     1      -0.160  -0.168  24.735  0.00  0.00    +0.121 A 
ATOM     21  C   UNL     1       0.157   1.189  24.742  0.00  0.00    +0.049 A 
ATOM     22  C   UNL     1       0.576  -1.053  23.946  0.00  0.00    +0.049 A 
ATOM     23  C   UNL     1       1.212   1.663  23.961  0.00  0.00    +0.049 A 
ATOM     24  C   UNL     1       1.631  -0.580  23.166  0.00  0.00    +0.049 A 
ATOM     25  C   UNL     1       1.948   0.778  23.173  0.00  0.00    +0.120 A 
BRANCH  25   7
ATOM      7  O   UNL     1       2.977   1.241  22.411  0.00  0.00    -0.495 OA
ATOM     27  C   UNL     1       4.295   0.848  22.791  0.00  0.00    +0.277 C 
ENDBRANCH  25   7
ENDBRANCH   3  15
ENDBRANCH  10   3
TORSDOF 6
ENDMDL
MODEL 3
REMARK VINA RESULT:      -1.8      1.732      4.375
REMARK  Name = 75367746
REMARK  8 active torsions:
REMARK  status: ('A' for Active; 'I' for Inactive)
REMARK    1  A    between atoms: S_1  and  N_8
REMARK    2  A    between atoms: S_1  and  C_14
REMARK    3  A    between atoms: O_3  and  C_10
REMARK    4  A    between atoms: O_3  and  C_15
REMARK    5  A    between atoms: O_6  and  C_20
REMARK    6  A    between atoms: O_6  and  C_26
REMARK    7  A    between atoms: O_7  and  C_25
REMARK    8  A    between atoms: O_7  and  C_27
REMARK                            x       y       z     vdW  Elec       q    Type
REMARK                         _______ _______ _______ _____ _____    ______ ____
ROOT
ATOM      2  O   UNL     1      -6.340   3.773  25.647  0.00  0.00    -0.375 OA
ATOM      8  N   UNL     1      -3.300   3.491  25.387  0.00  0.00    -0.171 NA
ATOM      9  C   UNL     1      -3.893   2.308  26.082  0.00  0.00    +0.156 C 
ATOM     10  C   UNL     1      -4.997   1.708  25.215  0.00  0.00    +0.215 C 
ATOM     11  C   UNL     1      -4.139   4.725  25.460  0.00  0.00    +0.137 C 
ATOM     12  C   UNL     1      -6.363   2.373  25.404  0.00  0.00    +0.205 C 
ATOM     13  C   UNL     1      -5.490   4.520  24.787  0.00  0.00    +0.177 C 
ENDROOT
BRANCH   8   1
ATOM      1  S   UNL     1      -1.625   3.741  25.667  0.00  0.00    +0.061 S 
ATOM      4  O   UNL     1      -1.323   3.400  27.038  0.00  0.00    -0.153 OA
ATOM      5  O   UNL     1      -1.247   5.022  25.112  0.00  0.00    -0.153 OA
BRANCH   1  14
ATOM     14  C   UNL     1      -0.952   2.480  24.632  0.00  0.00    +0.106 A 
ATOM     16  C   UNL     1      -1.696   1.985  23.561  0.00  0.00    +0.032 A 
ATOM     17  C   UNL     1       0.325   1.979  24.885  0.00  0.00    +0.032 A 
ATOM     18  C   UNL     1      -1.161   0.990  22.742  0.00  0.00    +0.047 A 
ATOM     19  C   UNL     1       0.859   0.982  24.066  0.00  0.00    +0.047 A 
ATOM     20  C   UNL     1       0.116   0.489  22.995  0.00  0.00    +0.120 A 
BRANCH  20   6
ATOM      6  O   UNL     1       0.635  -0.482  22.195  0.00  0.00    -0.495 OA
ATOM     26  C   UNL     1       1.989  -0.319  21.773  0.00  0.00    +0.277 C 
ENDBRANCH  20   6
ENDBRANCH   1  14
ENDBRANCH   8   1
BRANCH  10   3
ATOM      3  O   UNL     1      -5.118   0.320  25.522  0.00  0.00    -0.485 OA
BRANCH   3  15
ATOM     15  C   UNL     1      -4.019  -0.459  25.278  0.00  0.00    +0.121 A 
ATOM     21  C   UNL     1      -4.048  -1.403  24.253  0.00  0.00    +0.049 A 
ATOM     22  C   UNL     1      -2.871  -0.307  26.056  0.00  0.00    +0.049 A 
ATOM     23  C   UNL     1      -2.927  -2.196  24.004  0.00  0.00    +0.049 A 
ATOM     24  C   UNL     1      -1.751  -1.100  25.807  0.00  0.00    +0.049 A 
ATOM     25  C   UNL     1      -1.779  -2.045  24.781  0.00  0.00    +0.120 A 
BRANCH  25   7
ATOM      7  O   UNL     1      -0.686  -2.819  24.540  0.00  0.00    -0.495 OA
ATOM     27  C   UNL     1       0.449  -2.620  25.381  0.00  0.00    +0.277 C 
ENDBRANCH  25   7
ENDBRANCH   3  15
ENDBRANCH  10   3
TORSDOF 6
ENDMDL
MODEL 4
REMARK VINA RESULT:      -0.6      2.414      6.960
REMARK  Name = 75367746
REMARK  8 active torsions:
REMARK  status: ('A' for Active; 'I' for Inactive)
REMARK    1  A    between atoms: S_1  and  N_8
REMARK    2  A    between atoms: S_1  and  C_14
REMARK    3  A    between atoms: O_3  and  C_10
REMARK    4  A    between atoms: O_3  and  C_15
REMARK    5  A    between atoms: O_6  and  C_20
REMARK    6  A    between atoms: O_6  and  C_26
REMARK    7  A    between atoms: O_7  and  C_25
REMARK    8  A    between atoms: O_7  and  C_27
REMARK                            x       y       z     vdW  Elec       q    Type
REMARK                         _______ _______ _______ _____ _____    ______ ____
ROOT
ATOM      2  O   UNL     1      -2.938  -3.565  24.617  0.00  0.00    -0.375 OA
ATOM      8  N   UNL     1      -1.084  -1.160  24.209  0.00  0.00    -0.171 NA
ATOM      9  C   UNL     1      -2.374  -0.975  23.478  0.00  0.00    +0.156 C 
ATOM     10  C   UNL     1      -3.539  -1.143  24.450  0.00  0.00    +0.215 C 
ATOM     11  C   UNL     1      -0.744  -2.586  24.495  0.00  0.00    +0.137 C 
ATOM     12  C   UNL     1      -3.978  -2.597  24.645  0.00  0.00    +0.205 C 
ATOM     13  C   UNL     1      -1.790  -3.239  25.389  0.00  0.00    +0.177 C 
ENDROOT
BRANCH   8   1
ATOM      1  S   UNL     1       0.225  -0.209  23.636  0.00  0.00    +0.061 S 
ATOM      4  O   UNL     1       0.159  -0.141  22.194  0.00  0.00    -0.153 OA
ATOM      5  O   UNL     1       1.433  -0.625  24.313  0.00  0.00    -0.153 OA
BRANCH   1  14
ATOM     14  C   UNL     1      -0.242   1.368  24.276  0.00  0.00    +0.106 A 
ATOM     16  C   UNL     1      -0.602   1.499  25.616  0.00  0.00    +0.032 A 
ATOM     17  C   UNL     1      -0.250   2.485  23.440  0.00  0.00    +0.032 A 
ATOM     18  C   UNL     1      -0.968   2.747  26.122  0.00  0.00    +0.047 A 
ATOM     19  C   UNL     1      -0.617   3.733  23.945  0.00  0.00    +0.047 A 
ATOM     20  C   UNL     1      -0.976   3.863  25.286  0.00  0.00    +0.120 A 
BRANCH  20   6
ATOM      6  O   UNL     1      -1.334   5.080  25.780  0.00  0.00    -0.495 OA
ATOM     26  C   UNL     1      -1.857   6.028  24.850  0.00  0.00    +0.277 C 
ENDBRANCH  20   6
ENDBRANCH   1  14
ENDBRANCH   8   1
BRANCH  10   3
ATOM      3  O   UNL     1      -4.652  -0.391  23.968  0.00  0.00    -0.485 OA
BRANCH   3  15
ATOM     15  C   UNL     1      -4.794   0.877  24.465  0.00  0.00    +0.121 A 
ATOM     21  C   UNL     1      -5.667   1.116  25.525  0.00  0.00    +0.049 A 
ATOM     22  C   UNL     1      -4.066   1.929  23.909  0.00  0.00    +0.049 A 
ATOM     23  C   UNL     1      -5.812   2.408  26.031  0.00  0.00    +0.049 A 
ATOM     24  C   UNL     1      -4.211   3.221  24.414  0.00  0.00    +0.049 A 
ATOM     25  C   UNL     1      -5.083   3.460  25.476  0.00  0.00    +0.120 A 
BRANCH  25   7
ATOM      7  O   UNL     1      -5.225   4.721  25.968  0.00  0.00    -0.495 OA
ATOM     27  C   UNL     1      -6.311   5.497  25.463  0.00  0.00    +0.277 C 
ENDBRANCH  25   7
ENDBRANCH   3  15
ENDBRANCH  10   3
TORSDOF 6
ENDMDL
MODEL 5
REMARK VINA RESULT:       0.3      1.272      2.048
REMARK  Name = 75367746
REMARK  8 active torsions:
REMARK  status: ('A' for Active; 'I' for Inactive)
REMARK    1  A    between atoms: S_1  and  N_8
REMARK    2  A    between atoms: S_1  and  C_14
REMARK    3  A    between atoms: O_3  and  C_10
REMARK    4  A    between atoms: O_3  and  C_15
REMARK    5  A    between atoms: O_6  and  C_20
REMARK    6  A    between atoms: O_6  and  C_26
REMARK    7  A    between atoms: O_7  and  C_25
REMARK    8  A    between atoms: O_7  and  C_27
REMARK                            x       y       z     vdW  Elec       q    Type
REMARK                         _______ _______ _______ _____ _____    ______ ____
ROOT
ATOM      2  O   UNL     1      -2.419   5.584  25.539  0.00  0.00    -0.375 OA
ATOM      8  N   UNL     1      -4.162   3.064  25.550  0.00  0.00    -0.171 NA
ATOM      9  C   UNL     1      -3.297   3.115  24.332  0.00  0.00    +0.156 C 
ATOM     10  C   UNL     1      -1.838   3.283  24.749  0.00  0.00    +0.215 C 
ATOM     11  C   UNL     1      -4.411   4.396  26.177  0.00  0.00    +0.137 C 
ATOM     12  C   UNL     1      -1.424   4.739  24.978  0.00  0.00    +0.205 C 
ATOM     13  C   UNL     1      -3.114   5.038  26.653  0.00  0.00    +0.177 C 
ENDROOT
BRANCH   8   1
ATOM      1  S   UNL     1      -5.546   2.056  25.423  0.00  0.00    +0.061 S 
ATOM      4  O   UNL     1      -6.236   2.361  24.190  0.00  0.00    -0.153 OA
ATOM      5  O   UNL     1      -6.241   2.059  26.691  0.00  0.00    -0.153 OA
BRANCH   1  14
ATOM     14  C   UNL     1      -4.763   0.486  25.234  0.00  0.00    +0.106 A 
ATOM     16  C   UNL     1      -4.202  -0.152  26.339  0.00  0.00    +0.032 A 
ATOM     17  C   UNL     1      -4.709  -0.118  23.978  0.00  0.00    +0.032 A 
ATOM     18  C   UNL     1      -3.586  -1.395  26.189  0.00  0.00    +0.047 A 
ATOM     19  C   UNL     1      -4.092  -1.361  23.827  0.00  0.00    +0.047 A 
ATOM     20  C   UNL     1      -3.531  -1.999  24.932  0.00  0.00    +0.120 A 
BRANCH  20   6
ATOM      6  O   UNL     1      -2.930  -3.211  24.787  0.00  0.00    -0.495 OA
ATOM     26  C   UNL     1      -2.296  -3.474  23.534  0.00  0.00    +0.277 C 
ENDBRANCH  20   6
ENDBRANCH   1  14
ENDBRANCH   8   1
BRANCH  10   3
ATOM      3  O   UNL     1      -1.003   2.724  23.736  0.00  0.00    -0.485 OA
BRANCH   3  15
ATOM     15  C   UNL     1      -0.551   1.450  23.950  0.00  0.00    +0.121 A 
ATOM     21  C   UNL     1      -1.034   0.711  25.028  0.00  0.00    +0.049 A 
ATOM     22  C   UNL     1       0.394   0.893  23.087  0.00  0.00    +0.049 A 
ATOM     23  C   UNL     1      -0.572  -0.588  25.246  0.00  0.00    +0.049 A 
ATOM     24  C   UNL     1       0.855  -0.406  23.304  0.00  0.00    +0.049 A 
ATOM     25  C   UNL     1       0.372  -1.146  24.384  0.00  0.00    +0.120 A 
BRANCH  25   7
ATOM      7  O   UNL     1       0.823  -2.412  24.596  0.00  0.00    -0.495 OA
ATOM     27  C   UNL     1       0.437  -3.042  25.817  0.00  0.00    +0.277 C 
ENDBRANCH  25   7
ENDBRANCH   3  15
ENDBRANCH  10   3
TORSDOF 6
ENDMDL
MODEL 6
REMARK VINA RESULT:       0.4      2.442      5.584
REMARK  Name = 75367746
REMARK  8 active torsions:
REMARK  status: ('A' for Active; 'I' for Inactive)
REMARK    1  A    between atoms: S_1  and  N_8
REMARK    2  A    between atoms: S_1  and  C_14
REMARK    3  A    between atoms: O_3  and  C_10
REMARK    4  A    between atoms: O_3  and  C_15
REMARK    5  A    between atoms: O_6  and  C_20
REMARK    6  A    between atoms: O_6  and  C_26
REMARK    7  A    between atoms: O_7  and  C_25
REMARK    8  A    between atoms: O_7  and  C_27
REMARK                            x       y       z     vdW  Elec       q    Type
REMARK                         _______ _______ _______ _____ _____    ______ ____
ROOT
ATOM      2  O   UNL     1      -0.784  -1.954  24.956  0.00  0.00    -0.375 OA
ATOM      8  N   UNL     1      -0.707   1.104  24.779  0.00  0.00    -0.171 NA
ATOM      9  C   UNL     1       0.517   0.499  24.172  0.00  0.00    +0.156 C 
ATOM     10  C   UNL     1       0.109  -0.521  23.111  0.00  0.00    +0.215 C 
ATOM     11  C   UNL     1      -1.393   0.225  25.772  0.00  0.00    +0.137 C 
ATOM     12  C   UNL     1      -0.176  -1.916  23.672  0.00  0.00    +0.205 C 
ATOM     13  C   UNL     1      -1.881  -1.067  25.129  0.00  0.00    +0.177 C 
ENDROOT
BRANCH   8   1
ATOM      1  S   UNL     1      -0.554   2.746  25.254  0.00  0.00    +0.061 S 
ATOM      4  O   UNL     1       0.015   3.499  24.160  0.00  0.00    -0.153 OA
ATOM      5  O   UNL     1       0.024   2.795  26.578  0.00  0.00    -0.153 OA
BRANCH   1  14
ATOM     14  C   UNL     1      -2.258   3.185  25.387  0.00  0.00    +0.106 A 
ATOM     16  C   UNL     1      -2.677   4.064  26.385  0.00  0.00    +0.032 A 
ATOM     17  C   UNL     1      -3.186   2.653  24.492  0.00  0.00    +0.032 A 
ATOM     18  C   UNL     1      -4.024   4.412  26.487  0.00  0.00    +0.047 A 
ATOM     19  C   UNL     1      -4.534   3.001  24.594  0.00  0.00    +0.047 A 
ATOM     20  C   UNL     1      -4.952   3.881  25.592  0.00  0.00    +0.120 A 
BRANCH  20   6
ATOM      6  O   UNL     1      -6.266   4.221  25.693  0.00  0.00    -0.495 OA
ATOM     26  C   UNL     1      -6.617   5.561  25.350  0.00  0.00    +0.277 C 
ENDBRANCH  20   6
ENDBRANCH   1  14
ENDBRANCH   8   1
BRANCH  10   3
ATOM      3  O   UNL     1       1.155  -0.622  22.145  0.00  0.00    -0.485 OA
BRANCH   3  15
ATOM     15  C   UNL     1       2.426  -0.386  22.593  0.00  0.00    +0.121 A 
ATOM     21  C   UNL     1       3.029   0.850  22.362  0.00  0.00    +0.049 A 
ATOM     22  C   UNL     1       3.118  -1.383  23.281  0.00  0.00    +0.049 A 
ATOM     23  C   UNL     1       4.325   1.090  22.819  0.00  0.00    +0.049 A 
ATOM     24  C   UNL     1       4.414  -1.143  23.738  0.00  0.00    +0.049 A 
ATOM     25  C   UNL     1       5.017   0.094  23.507  0.00  0.00    +0.120 A 
BRANCH  25   7
ATOM      7  O   UNL     1       6.282   0.328  23.952  0.00  0.00    -0.495 OA
ATOM     27  C   UNL     1       7.337  -0.393  23.317  0.00  0.00    +0.277 C 
ENDBRANCH  25   7
ENDBRANCH   3  15
ENDBRANCH  10   3
TORSDOF 6
ENDMDL
MODEL 7
REMARK VINA RESULT:       0.4      2.155      5.685
REMARK  Name = 75367746
REMARK  8 active torsions:
REMARK  status: ('A' for Active; 'I' for Inactive)
REMARK    1  A    between atoms: S_1  and  N_8
REMARK    2  A    between atoms: S_1  and  C_14
REMARK    3  A    between atoms: O_3  and  C_10
REMARK    4  A    between atoms: O_3  and  C_15
REMARK    5  A    between atoms: O_6  and  C_20
REMARK    6  A    between atoms: O_6  and  C_26
REMARK    7  A    between atoms: O_7  and  C_25
REMARK    8  A    between atoms: O_7  and  C_27
REMARK                            x       y       z     vdW  Elec       q    Type
REMARK                         _______ _______ _______ _____ _____    ______ ____
ROOT
ATOM      2  O   UNL     1       0.907  -0.377  23.162  0.00  0.00    -0.375 OA
ATOM      8  N   UNL     1       0.155   2.295  24.460  0.00  0.00    -0.171 NA
ATOM      9  C   UNL     1      -0.904   1.267  24.693  0.00  0.00    +0.156 C 
ATOM     10  C   UNL     1      -0.280   0.026  25.327  0.00  0.00    +0.215 C 
ATOM     11  C   UNL     1       1.018   2.024  23.272  0.00  0.00    +0.137 C 
ATOM     12  C   UNL     1       0.307  -0.958  24.312  0.00  0.00    +0.205 C 
ATOM     13  C   UNL     1       1.780   0.714  23.425  0.00  0.00    +0.177 C 
ENDROOT
BRANCH   8   1
ATOM      1  S   UNL     1      -0.360   3.925  24.620  0.00  0.00    +0.061 S 
ATOM      4  O   UNL     1      -0.173   4.601  23.356  0.00  0.00    -0.153 OA
ATOM      5  O   UNL     1       0.183   4.465  25.847  0.00  0.00    -0.153 OA
BRANCH   1  14
ATOM     14  C   UNL     1      -2.091   3.676  24.853  0.00  0.00    +0.106 A 
ATOM     16  C   UNL     1      -2.870   3.172  23.812  0.00  0.00    +0.032 A 
ATOM     17  C   UNL     1      -2.680   3.982  26.080  0.00  0.00    +0.032 A 
ATOM     18  C   UNL     1      -4.239   2.973  23.998  0.00  0.00    +0.047 A 
ATOM     19  C   UNL     1      -4.049   3.784  26.266  0.00  0.00    +0.047 A 
ATOM     20  C   UNL     1      -4.828   3.280  25.225  0.00  0.00    +0.120 A 
BRANCH  20   6
ATOM      6  O   UNL     1      -6.163   3.086  25.406  0.00  0.00    -0.495 OA
ATOM     26  C   UNL     1      -6.680   1.796  25.078  0.00  0.00    +0.277 C 
ENDBRANCH  20   6
ENDBRANCH   1  14
ENDBRANCH   8   1
BRANCH  10   3
ATOM      3  O   UNL     1      -1.276  -0.649  26.094  0.00  0.00    -0.485 OA
BRANCH   3  15
ATOM     15  C   UNL     1      -2.329  -1.178  25.398  0.00  0.00    +0.121 A 
ATOM     21  C   UNL     1      -2.337  -2.534  25.071  0.00  0.00    +0.049 A 
ATOM     22  C   UNL     1      -3.393  -0.361  25.016  0.00  0.00    +0.049 A 
ATOM     23  C   UNL     1      -3.411  -3.073  24.362  0.00  0.00    +0.049 A 
ATOM     24  C   UNL     1      -4.466  -0.900  24.307  0.00  0.00    +0.049 A 
ATOM     25  C   UNL     1      -4.475  -2.256  23.980  0.00  0.00    +0.120 A 
BRANCH  25   7
ATOM      7  O   UNL     1      -5.522  -2.782  23.287  0.00  0.00    -0.495 OA
ATOM     27  C   UNL     1      -5.263  -3.948  22.505  0.00  0.00    +0.277 C 
ENDBRANCH  25   7
ENDBRANCH   3  15
ENDBRANCH  10   3
TORSDOF 6
ENDMDL
MODEL 8
REMARK VINA RESULT:       0.6      1.993      6.168
REMARK  Name = 75367746
REMARK  8 active torsions:
REMARK  status: ('A' for Active; 'I' for Inactive)
REMARK    1  A    between atoms: S_1  and  N_8
REMARK    2  A    between atoms: S_1  and  C_14
REMARK    3  A    between atoms: O_3  and  C_10
REMARK    4  A    between atoms: O_3  and  C_15
REMARK    5  A    between atoms: O_6  and  C_20
REMARK    6  A    between atoms: O_6  and  C_26
REMARK    7  A    between atoms: O_7  and  C_25
REMARK    8  A    between atoms: O_7  and  C_27
REMARK                            x       y       z     vdW  Elec       q    Type
REMARK                         _______ _______ _______ _____ _____    ______ ____
ROOT
ATOM      2  O   UNL     1       0.874  -0.224  22.269  0.00  0.00    -0.375 OA
ATOM      8  N   UNL     1       0.429   1.337  24.868  0.00  0.00    -0.171 NA
ATOM      9  C   UNL     1      -0.800   0.582  24.477  0.00  0.00    +0.156 C 
ATOM     10  C   UNL     1      -0.452  -0.892  24.282  0.00  0.00    +0.215 C 
ATOM     11  C   UNL     1       1.356   1.623  23.734  0.00  0.00    +0.137 C 
ATOM     12  C   UNL     1       0.072  -1.224  22.883  0.00  0.00    +0.205 C 
ATOM     13  C   UNL     1       1.879   0.338  23.104  0.00  0.00    +0.177 C 
ENDROOT
BRANCH   8   1
ATOM      1  S   UNL     1       0.168   2.655  25.937  0.00  0.00    +0.061 S 
ATOM      4  O   UNL     1       1.014   3.757  25.536  0.00  0.00    -0.153 OA
ATOM      5  O   UNL     1       0.175   2.161  27.295  0.00  0.00    -0.153 OA
BRANCH   1  14
ATOM     14  C   UNL     1      -1.495   3.065  25.514  0.00  0.00    +0.106 A 
ATOM     16  C   UNL     1      -1.934   2.933  24.198  0.00  0.00    +0.032 A 
ATOM     17  C   UNL     1      -2.372   3.521  26.499  0.00  0.00    +0.032 A 
ATOM     18  C   UNL     1      -3.251   3.254  23.865  0.00  0.00    +0.047 A 
ATOM     19  C   UNL     1      -3.689   3.844  26.167  0.00  0.00    +0.047 A 
ATOM     20  C   UNL     1      -4.127   3.710  24.850  0.00  0.00    +0.120 A 
BRANCH  20   6
ATOM      6  O   UNL     1      -5.411   4.024  24.525  0.00  0.00    -0.495 OA
ATOM     26  C   UNL     1      -6.119   4.873  25.428  0.00  0.00    +0.277 C 
ENDBRANCH  20   6
ENDBRANCH   1  14
ENDBRANCH   8   1
BRANCH  10   3
ATOM      3  O   UNL     1      -1.618  -1.676  24.531  0.00  0.00    -0.485 OA
BRANCH   3  15
ATOM     15  C   UNL     1      -2.785  -0.990  24.730  0.00  0.00    +0.121 A 
ATOM     21  C   UNL     1      -3.172  -0.632  26.020  0.00  0.00    +0.049 A 
ATOM     22  C   UNL     1      -3.587  -0.649  23.640  0.00  0.00    +0.049 A 
ATOM     23  C   UNL     1      -4.362   0.067  26.222  0.00  0.00    +0.049 A 
ATOM     24  C   UNL     1      -4.777   0.050  23.842  0.00  0.00    +0.049 A 
ATOM     25  C   UNL     1      -5.164   0.408  25.133  0.00  0.00    +0.120 A 
BRANCH  25   7
ATOM      7  O   UNL     1      -6.326   1.090  25.330  0.00  0.00    -0.495 OA
ATOM     27  C   UNL     1      -6.578   1.576  26.648  0.00  0.00    +0.277 C 
ENDBRANCH  25   7
ENDBRANCH   3  15
ENDBRANCH  10   3
TORSDOF 6
ENDMDL
MODEL 9
REMARK VINA RESULT:       0.7      1.960      4.258
REMARK  Name = 75367746
REMARK  8 active torsions:
REMARK  status: ('A' for Active; 'I' for Inactive)
REMARK    1  A    between atoms: S_1  and  N_8
REMARK    2  A    between atoms: S_1  and  C_14
REMARK    3  A    between atoms: O_3  and  C_10
REMARK    4  A    between atoms: O_3  and  C_15
REMARK    5  A    between atoms: O_6  and  C_20
REMARK    6  A    between atoms: O_6  and  C_26
REMARK    7  A    between atoms: O_7  and  C_25
REMARK    8  A    between atoms: O_7  and  C_27
REMARK                            x       y       z     vdW  Elec       q    Type
REMARK                         _______ _______ _______ _____ _____    ______ ____
ROOT
ATOM      2  O   UNL     1      -6.577   2.781  24.846  0.00  0.00    -0.375 OA
ATOM      8  N   UNL     1      -4.555   0.485  25.021  0.00  0.00    -0.171 NA
ATOM      9  C   UNL     1      -3.950   1.686  24.369  0.00  0.00    +0.156 C 
ATOM     10  C   UNL     1      -4.117   2.899  25.281  0.00  0.00    +0.215 C 
ATOM     11  C   UNL     1      -6.046   0.437  24.947  0.00  0.00    +0.137 C 
ATOM     12  C   UNL     1      -5.460   3.616  25.118  0.00  0.00    +0.205 C 
ATOM     13  C   UNL     1      -6.677   1.623  25.665  0.00  0.00    +0.177 C 
ENDROOT
BRANCH   8   1
ATOM      1  S   UNL     1      -3.768  -1.004  24.687  0.00  0.00    +0.061 S 
ATOM      4  O   UNL     1      -4.348  -1.583  23.497  0.00  0.00    -0.153 OA
ATOM      5  O   UNL     1      -3.663  -1.760  25.915  0.00  0.00    -0.153 OA
BRANCH   1  14
ATOM     14  C   UNL     1      -2.158  -0.411  24.273  0.00  0.00    +0.106 A 
ATOM     16  C   UNL     1      -2.016   0.705  23.450  0.00  0.00    +0.032 A 
ATOM     17  C   UNL     1      -1.028  -1.058  24.773  0.00  0.00    +0.032 A 
ATOM     18  C   UNL     1      -0.742   1.175  23.126  0.00  0.00    +0.047 A 
ATOM     19  C   UNL     1       0.246  -0.589  24.448  0.00  0.00    +0.047 A 
ATOM     20  C   UNL     1       0.388   0.528  23.625  0.00  0.00    +0.120 A 
BRANCH  20   6
ATOM      6  O   UNL     1       1.630   0.986  23.307  0.00  0.00    -0.495 OA
ATOM     26  C   UNL     1       2.488   0.093  22.597  0.00  0.00    +0.277 C 
ENDBRANCH  20   6
ENDBRANCH   1  14
ENDBRANCH   8   1
BRANCH  10   3
ATOM      3  O   UNL     1      -3.068   3.827  25.007  0.00  0.00    -0.485 OA
BRANCH   3  15
ATOM     15  C   UNL     1      -1.848   3.553  25.563  0.00  0.00    +0.121 A 
ATOM     21  C   UNL     1      -1.746   2.623  26.597  0.00  0.00    +0.049 A 
ATOM     22  C   UNL     1      -0.707   4.206  25.096  0.00  0.00    +0.049 A 
ATOM     23  C   UNL     1      -0.502   2.344  27.163  0.00  0.00    +0.049 A 
ATOM     24  C   UNL     1       0.537   3.927  25.662  0.00  0.00    +0.049 A 
ATOM     25  C   UNL     1       0.639   2.996  26.696  0.00  0.00    +0.120 A 
BRANCH  25   7
ATOM      7  O   UNL     1       1.853   2.725  27.250  0.00  0.00    -0.495 OA
ATOM     27  C   UNL     1       1.930   2.720  28.675  0.00  0.00    +0.277 C 
ENDBRANCH  25   7
ENDBRANCH   3  15
ENDBRANCH  10   3
TORSDOF 6
ENDMDL
MODEL 10
REMARK VINA RESULT:       0.8      1.574      2.155
REMARK  Name = 75367746
REMARK  8 active torsions:
REMARK  status: ('A' for Active; 'I' for Inactive)
REMARK    1  A    between atoms: S_1  and  N_8
REMARK    2  A    between atoms: S_1  and  C_14
REMARK    3  A    between atoms: O_3  and  C_10
REMARK    4  A    between atoms: O_3  and  C_15
REMARK    5  A    between atoms: O_6  and  C_20
REMARK    6  A    between atoms: O_6  and  C_26
REMARK    7  A    between atoms: O_7  and  C_25
REMARK    8  A    between atoms: O_7  and  C_27
REMARK                            x       y       z     vdW  Elec       q    Type
REMARK                         _______ _______ _______ _____ _____    ______ ____
ROOT
ATOM      2  O   UNL     1      -0.800   4.728  24.560  0.00  0.00    -0.375 OA
ATOM      8  N   UNL     1      -3.067   2.722  25.034  0.00  0.00    -0.171 NA
ATOM      9  C   UNL     1      -2.420   2.498  23.706  0.00  0.00    +0.156 C 
ATOM     10  C   UNL     1      -0.915   2.319  23.897  0.00  0.00    +0.215 C 
ATOM     11  C   UNL     1      -2.890   4.103  25.574  0.00  0.00    +0.137 C 
ATOM     12  C   UNL     1      -0.136   3.636  23.938  0.00  0.00    +0.205 C 
ATOM     13  C   UNL     1      -1.420   4.427  25.804  0.00  0.00    +0.177 C 
ENDROOT
BRANCH   8   1
ATOM      1  S   UNL     1      -4.654   2.085  25.192  0.00  0.00    +0.061 S 
ATOM      4  O   UNL     1      -5.434   2.479  24.040  0.00  0.00    -0.153 OA
ATOM      5  O   UNL     1      -5.123   2.334  26.536  0.00  0.00    -0.153 OA
BRANCH   1  14
ATOM     14  C   UNL     1      -4.304   0.361  25.047  0.00  0.00    +0.106 A 
ATOM     16  C   UNL     1      -4.605  -0.315  23.865  0.00  0.00    +0.032 A 
ATOM     17  C   UNL     1      -3.725  -0.325  26.115  0.00  0.00    +0.032 A 
ATOM     18  C   UNL     1      -4.326  -1.678  23.751  0.00  0.00    +0.047 A 
ATOM     19  C   UNL     1      -3.447  -1.688  26.001  0.00  0.00    +0.047 A 
ATOM     20  C   UNL     1      -3.747  -2.363  24.819  0.00  0.00    +0.120 A 
BRANCH  20   6
ATOM      6  O   UNL     1      -3.475  -3.692  24.707  0.00  0.00    -0.495 OA
ATOM     26  C   UNL     1      -3.475  -4.245  23.390  0.00  0.00    +0.277 C 
ENDBRANCH  20   6
ENDBRANCH   1  14
ENDBRANCH   8   1
BRANCH  10   3
ATOM      3  O   UNL     1      -0.408   1.522  22.827  0.00  0.00    -0.485 OA
BRANCH   3  15
ATOM     15  C   UNL     1       0.796   0.908  23.040  0.00  0.00    +0.121 A 
ATOM     21  C   UNL     1       0.847  -0.467  23.264  0.00  0.00    +0.049 A 
ATOM     22  C   UNL     1       1.972   1.659  23.032  0.00  0.00    +0.049 A 
ATOM     23  C   UNL     1       2.075  -1.093  23.481  0.00  0.00    +0.049 A 
ATOM     24  C   UNL     1       3.200   1.033  23.249  0.00  0.00    +0.049 A 
ATOM     25  C   UNL     1       3.251  -0.343  23.473  0.00  0.00    +0.120 A 
BRANCH  25   7
ATOM      7  O   UNL     1       4.449  -0.953  23.685  0.00  0.00    -0.495 OA
ATOM     27  C   UNL     1       5.621  -0.152  23.534  0.00  0.00    +0.277 C 
ENDBRANCH  25   7
ENDBRANCH   3  15
ENDBRANCH  10   3
TORSDOF 6
ENDMDL
