MODEL 1
REMARK VINA RESULT:      -3.4      0.000      0.000
REMARK  Name = 71694041
REMARK  9 active torsions:
REMARK  status: ('A' for Active; 'I' for Inactive)
REMARK    1  A    between atoms: O_4  and  C_10
REMARK    2  A    between atoms: O_5  and  C_12
REMARK    3  A    between atoms: O_6  and  C_26
REMARK    4  A    between atoms: O_6  and  C_27
REMARK    5  A    between atoms: N_7  and  C_9
REMARK    6  A    between atoms: N_7  and  C_14
REMARK    7  A    between atoms: C_8  and  C_13
REMARK    8  A    between atoms: C_14  and  C_17
REMARK    9  A    between atoms: C_20  and  C_23
REMARK                            x       y       z     vdW  Elec       q    Type
REMARK                         _______ _______ _______ _____ _____    ______ ____
ROOT
ATOM      8  C   UNL     1      -5.090   1.851  24.330  0.00  0.00    +0.041 C 
ATOM      9  C   UNL     1      -4.547   3.133  25.001  0.00  0.00    +0.092 C 
ATOM     10  C   UNL     1      -5.819   3.892  25.381  0.00  0.00    +0.160 C 
ATOM     11  C   UNL     1      -6.503   1.634  24.935  0.00  0.00    +0.043 C 
ATOM     12  C   UNL     1      -6.721   2.785  25.917  0.00  0.00    +0.145 C 
ENDROOT
BRANCH   8  13
ATOM     13  C   UNL     1      -4.163   0.663  24.478  0.00  0.00    -0.043 A 
ATOM     15  C   UNL     1      -4.122  -0.317  23.486  0.00  0.00    +0.004 A 
ATOM     16  C   UNL     1      -3.349   0.549  25.605  0.00  0.00    +0.004 A 
ATOM     18  C   UNL     1      -3.268  -1.412  23.621  0.00  0.00    +0.012 A 
ATOM     19  C   UNL     1      -2.495  -0.546  25.741  0.00  0.00    +0.012 A 
ATOM     20  C   UNL     1      -2.455  -1.526  24.749  0.00  0.00    +0.055 A 
BRANCH  20  23
ATOM      1  F   UNL     1      -2.046  -3.694  25.675  0.00  0.00    -0.166 F 
ATOM      2  F   UNL     1      -0.334  -2.380  25.452  0.00  0.00    -0.166 F 
ATOM      3  F   UNL     1      -1.245  -3.281  23.695  0.00  0.00    -0.166 F 
ATOM     23  C   UNL     1      -1.540  -2.695  24.892  0.00  0.00    +0.417 C 
ENDBRANCH  20  23
ENDBRANCH   8  13
BRANCH  10   4
ATOM      4  O   UNL     1      -5.563   4.887  26.353  0.00  0.00    -0.388 OA
ATOM     29  H   UNL     1      -6.303   5.516  26.326  0.00  0.00    +0.210 HD
ENDBRANCH  10   4
BRANCH  12   5
ATOM      5  O   UNL     1      -6.292   2.389  27.217  0.00  0.00    -0.389 OA
ATOM     30  H   UNL     1      -6.854   1.644  27.495  0.00  0.00    +0.210 HD
ENDBRANCH  12   5
BRANCH   9   7
ATOM      7  N   UNL     1      -3.702   3.910  24.100  0.00  0.00    -0.306 NA
ATOM     28  H   UNL     1      -3.603   3.403  23.220  0.00  0.00    +0.123 HD
BRANCH   7  14
ATOM     14  C   UNL     1      -2.381   4.114  24.675  0.00  0.00    +0.116 C 
BRANCH  14  17
ATOM     17  C   UNL     1      -1.450   2.974  24.357  0.00  0.00    -0.033 A 
ATOM     21  C   UNL     1      -0.419   2.649  25.239  0.00  0.00    +0.008 A 
ATOM     22  C   UNL     1      -1.619   2.241  23.182  0.00  0.00    +0.008 A 
ATOM     24  C   UNL     1       0.443   1.593  24.945  0.00  0.00    +0.046 A 
ATOM     25  C   UNL     1      -0.757   1.185  22.888  0.00  0.00    +0.046 A 
ATOM     26  C   UNL     1       0.274   0.861  23.769  0.00  0.00    +0.120 A 
BRANCH  26   6
ATOM      6  O   UNL     1       1.115  -0.171  23.483  0.00  0.00    -0.495 OA
ATOM     27  C   UNL     1       2.150   0.081  22.533  0.00  0.00    +0.277 C 
ENDBRANCH  26   6
ENDBRANCH  14  17
ENDBRANCH   7  14
ENDBRANCH   9   7
TORSDOF 8
ENDMDL
MODEL 2
REMARK VINA RESULT:      -2.8      1.594      1.919
REMARK  Name = 71694041
REMARK  9 active torsions:
REMARK  status: ('A' for Active; 'I' for Inactive)
REMARK    1  A    between atoms: O_4  and  C_10
REMARK    2  A    between atoms: O_5  and  C_12
REMARK    3  A    between atoms: O_6  and  C_26
REMARK    4  A    between atoms: O_6  and  C_27
REMARK    5  A    between atoms: N_7  and  C_9
REMARK    6  A    between atoms: N_7  and  C_14
REMARK    7  A    between atoms: C_8  and  C_13
REMARK    8  A    between atoms: C_14  and  C_17
REMARK    9  A    between atoms: C_20  and  C_23
REMARK                            x       y       z     vdW  Elec       q    Type
REMARK                         _______ _______ _______ _____ _____    ______ ____
ROOT
ATOM      8  C   UNL     1      -3.713   2.704  24.371  0.00  0.00    +0.041 C 
ATOM      9  C   UNL     1      -3.197   3.319  25.692  0.00  0.00    +0.092 C 
ATOM     10  C   UNL     1      -3.982   4.627  25.796  0.00  0.00    +0.160 C 
ATOM     11  C   UNL     1      -5.136   3.290  24.169  0.00  0.00    +0.043 C 
ATOM     12  C   UNL     1      -5.384   4.212  25.364  0.00  0.00    +0.145 C 
ENDROOT
BRANCH   8  13
ATOM     13  C   UNL     1      -3.658   1.191  24.358  0.00  0.00    -0.043 A 
ATOM     15  C   UNL     1      -3.322   0.516  23.183  0.00  0.00    +0.004 A 
ATOM     16  C   UNL     1      -3.943   0.472  25.518  0.00  0.00    +0.004 A 
ATOM     18  C   UNL     1      -3.270  -0.878  23.170  0.00  0.00    +0.012 A 
ATOM     19  C   UNL     1      -3.892  -0.923  25.505  0.00  0.00    +0.012 A 
ATOM     20  C   UNL     1      -3.556  -1.597  24.330  0.00  0.00    +0.055 A 
BRANCH  20  23
ATOM      1  F   UNL     1      -3.522  -3.647  25.563  0.00  0.00    -0.166 F 
ATOM      2  F   UNL     1      -2.374  -3.586  23.723  0.00  0.00    -0.166 F 
ATOM      3  F   UNL     1      -4.546  -3.646  23.644  0.00  0.00    -0.166 F 
ATOM     23  C   UNL     1      -3.499  -3.087  24.317  0.00  0.00    +0.417 C 
ENDBRANCH  20  23
ENDBRANCH   8  13
BRANCH  10   4
ATOM      4  O   UNL     1      -3.961   5.146  27.112  0.00  0.00    -0.388 OA
ATOM     29  H   UNL     1      -4.522   4.570  27.659  0.00  0.00    +0.210 HD
ENDBRANCH  10   4
BRANCH  12   5
ATOM      5  O   UNL     1      -6.021   3.479  26.406  0.00  0.00    -0.389 OA
ATOM     30  H   UNL     1      -6.787   4.000  26.704  0.00  0.00    +0.210 HD
ENDBRANCH  12   5
BRANCH   9   7
ATOM      7  N   UNL     1      -1.758   3.552  25.665  0.00  0.00    -0.306 NA
ATOM     28  H   UNL     1      -1.457   3.660  24.696  0.00  0.00    +0.123 HD
BRANCH   7  14
ATOM     14  C   UNL     1      -1.039   2.432  26.256  0.00  0.00    +0.116 C 
BRANCH  14  17
ATOM     17  C   UNL     1      -0.285   1.641  25.221  0.00  0.00    -0.033 A 
ATOM     21  C   UNL     1      -0.476   0.263  25.120  0.00  0.00    +0.008 A 
ATOM     22  C   UNL     1       0.604   2.286  24.360  0.00  0.00    +0.008 A 
ATOM     24  C   UNL     1       0.223  -0.470  24.161  0.00  0.00    +0.046 A 
ATOM     25  C   UNL     1       1.302   1.554  23.401  0.00  0.00    +0.046 A 
ATOM     26  C   UNL     1       1.112   0.176  23.301  0.00  0.00    +0.120 A 
BRANCH  26   6
ATOM      6  O   UNL     1       1.792  -0.540  22.364  0.00  0.00    -0.495 OA
ATOM     27  C   UNL     1       3.016   0.018  21.886  0.00  0.00    +0.277 C 
ENDBRANCH  26   6
ENDBRANCH  14  17
ENDBRANCH   7  14
ENDBRANCH   9   7
TORSDOF 8
ENDMDL
MODEL 3
REMARK VINA RESULT:      -2.3      4.173      6.085
REMARK  Name = 71694041
REMARK  9 active torsions:
REMARK  status: ('A' for Active; 'I' for Inactive)
REMARK    1  A    between atoms: O_4  and  C_10
REMARK    2  A    between atoms: O_5  and  C_12
REMARK    3  A    between atoms: O_6  and  C_26
REMARK    4  A    between atoms: O_6  and  C_27
REMARK    5  A    between atoms: N_7  and  C_9
REMARK    6  A    between atoms: N_7  and  C_14
REMARK    7  A    between atoms: C_8  and  C_13
REMARK    8  A    between atoms: C_14  and  C_17
REMARK    9  A    between atoms: C_20  and  C_23
REMARK                            x       y       z     vdW  Elec       q    Type
REMARK                         _______ _______ _______ _____ _____    ______ ____
ROOT
ATOM      8  C   UNL     1      -1.523  -0.426  25.684  0.00  0.00    +0.041 C 
ATOM      9  C   UNL     1      -1.157  -1.188  24.390  0.00  0.00    +0.092 C 
ATOM     10  C   UNL     1      -1.857  -2.536  24.570  0.00  0.00    +0.160 C 
ATOM     11  C   UNL     1      -2.860  -1.049  26.167  0.00  0.00    +0.043 C 
ATOM     12  C   UNL     1      -3.210  -2.135  25.149  0.00  0.00    +0.145 C 
ENDROOT
BRANCH   8  13
ATOM     13  C   UNL     1      -1.570   1.076  25.497  0.00  0.00    -0.043 A 
ATOM     15  C   UNL     1      -0.457   1.854  25.820  0.00  0.00    +0.004 A 
ATOM     16  C   UNL     1      -2.724   1.682  25.001  0.00  0.00    +0.004 A 
ATOM     18  C   UNL     1      -0.500   3.237  25.648  0.00  0.00    +0.012 A 
ATOM     19  C   UNL     1      -2.767   3.066  24.829  0.00  0.00    +0.012 A 
ATOM     20  C   UNL     1      -1.655   3.843  25.153  0.00  0.00    +0.055 A 
BRANCH  20  23
ATOM      1  F   UNL     1      -2.282   5.988  26.007  0.00  0.00    -0.166 F 
ATOM      2  F   UNL     1      -2.396   5.713  23.858  0.00  0.00    -0.166 F 
ATOM      3  F   UNL     1      -0.458   5.871  24.829  0.00  0.00    -0.166 F 
ATOM     23  C   UNL     1      -1.699   5.322  24.966  0.00  0.00    +0.417 C 
ENDBRANCH  20  23
ENDBRANCH   8  13
BRANCH  10   4
ATOM      4  O   UNL     1      -1.986  -3.226  23.342  0.00  0.00    -0.388 OA
ATOM     29  H   UNL     1      -2.850  -2.987  22.965  0.00  0.00    +0.210 HD
ENDBRANCH  10   4
BRANCH  12   5
ATOM      5  O   UNL     1      -4.036  -1.581  24.128  0.00  0.00    -0.389 OA
ATOM     30  H   UNL     1      -4.083  -0.621  24.280  0.00  0.00    +0.210 HD
ENDBRANCH  12   5
BRANCH   9   7
ATOM      7  N   UNL     1       0.285  -1.344  24.232  0.00  0.00    -0.306 NA
ATOM     28  H   UNL     1       0.746  -1.046  25.093  0.00  0.00    +0.123 HD
BRANCH   7  14
ATOM     14  C   UNL     1       0.778  -0.531  23.131  0.00  0.00    +0.116 C 
BRANCH  14  17
ATOM     17  C   UNL     1       2.266  -0.317  23.214  0.00  0.00    -0.033 A 
ATOM     21  C   UNL     1       2.825   0.880  22.768  0.00  0.00    +0.008 A 
ATOM     22  C   UNL     1       3.086  -1.316  23.739  0.00  0.00    +0.008 A 
ATOM     24  C   UNL     1       4.203   1.079  22.846  0.00  0.00    +0.046 A 
ATOM     25  C   UNL     1       4.465  -1.119  23.816  0.00  0.00    +0.046 A 
ATOM     26  C   UNL     1       5.023   0.078  23.370  0.00  0.00    +0.120 A 
BRANCH  26   6
ATOM      6  O   UNL     1       6.368   0.273  23.447  0.00  0.00    -0.495 OA
ATOM     27  C   UNL     1       7.200  -0.687  22.795  0.00  0.00    +0.277 C 
ENDBRANCH  26   6
ENDBRANCH  14  17
ENDBRANCH   7  14
ENDBRANCH   9   7
TORSDOF 8
ENDMDL
MODEL 4
REMARK VINA RESULT:      -2.1      3.328      6.955
REMARK  Name = 71694041
REMARK  9 active torsions:
REMARK  status: ('A' for Active; 'I' for Inactive)
REMARK    1  A    between atoms: O_4  and  C_10
REMARK    2  A    between atoms: O_5  and  C_12
REMARK    3  A    between atoms: O_6  and  C_26
REMARK    4  A    between atoms: O_6  and  C_27
REMARK    5  A    between atoms: N_7  and  C_9
REMARK    6  A    between atoms: N_7  and  C_14
REMARK    7  A    between atoms: C_8  and  C_13
REMARK    8  A    between atoms: C_14  and  C_17
REMARK    9  A    between atoms: C_20  and  C_23
REMARK                            x       y       z     vdW  Elec       q    Type
REMARK                         _______ _______ _______ _____ _____    ______ ____
ROOT
ATOM      8  C   UNL     1       0.239  -0.023  23.212  0.00  0.00    +0.041 C 
ATOM      9  C   UNL     1       1.211  -0.673  24.223  0.00  0.00    +0.092 C 
ATOM     10  C   UNL     1       2.283  -1.291  23.325  0.00  0.00    +0.160 C 
ATOM     11  C   UNL     1       1.094   0.277  21.951  0.00  0.00    +0.043 C 
ATOM     12  C   UNL     1       2.507  -0.208  22.276  0.00  0.00    +0.145 C 
ENDROOT
BRANCH   8  13
ATOM     13  C   UNL     1      -0.484   1.184  23.772  0.00  0.00    -0.043 A 
ATOM     15  C   UNL     1       0.041   1.861  24.874  0.00  0.00    +0.004 A 
ATOM     16  C   UNL     1      -1.671   1.621  23.187  0.00  0.00    +0.004 A 
ATOM     18  C   UNL     1      -0.623   2.973  25.390  0.00  0.00    +0.012 A 
ATOM     19  C   UNL     1      -2.337   2.733  23.703  0.00  0.00    +0.012 A 
ATOM     20  C   UNL     1      -1.812   3.409  24.805  0.00  0.00    +0.055 A 
BRANCH  20  23
ATOM      1  F   UNL     1      -1.741   5.719  25.421  0.00  0.00    -0.166 F 
ATOM      2  F   UNL     1      -2.991   4.418  26.626  0.00  0.00    -0.166 F 
ATOM      3  F   UNL     1      -3.609   4.954  24.611  0.00  0.00    -0.166 F 
ATOM     23  C   UNL     1      -2.521   4.600  25.356  0.00  0.00    +0.417 C 
ENDBRANCH  20  23
ENDBRANCH   8  13
BRANCH  10   4
ATOM      4  O   UNL     1       3.464  -1.584  24.048  0.00  0.00    -0.388 OA
ATOM     29  H   UNL     1       3.477  -1.005  24.829  0.00  0.00    +0.210 HD
ENDBRANCH  10   4
BRANCH  12   5
ATOM      5  O   UNL     1       3.262   0.865  22.831  0.00  0.00    -0.389 OA
ATOM     30  H   UNL     1       3.629   0.557  23.678  0.00  0.00    +0.210 HD
ENDBRANCH  12   5
BRANCH   9   7
ATOM      7  N   UNL     1       0.552  -1.678  25.050  0.00  0.00    -0.306 NA
ATOM     28  H   UNL     1       1.221  -2.417  25.269  0.00  0.00    +0.123 HD
BRANCH   7  14
ATOM     14  C   UNL     1      -0.581  -2.265  24.350  0.00  0.00    +0.116 C 
BRANCH  14  17
ATOM     17  C   UNL     1      -1.868  -1.551  24.668  0.00  0.00    -0.033 A 
ATOM     21  C   UNL     1      -1.983  -0.812  25.845  0.00  0.00    +0.008 A 
ATOM     22  C   UNL     1      -2.945  -1.627  23.784  0.00  0.00    +0.008 A 
ATOM     24  C   UNL     1      -3.175  -0.150  26.139  0.00  0.00    +0.046 A 
ATOM     25  C   UNL     1      -4.137  -0.966  24.078  0.00  0.00    +0.046 A 
ATOM     26  C   UNL     1      -4.252  -0.227  25.255  0.00  0.00    +0.120 A 
BRANCH  26   6
ATOM      6  O   UNL     1      -5.415   0.420  25.542  0.00  0.00    -0.495 OA
ATOM     27  C   UNL     1      -5.444   1.830  25.320  0.00  0.00    +0.277 C 
ENDBRANCH  26   6
ENDBRANCH  14  17
ENDBRANCH   7  14
ENDBRANCH   9   7
TORSDOF 8
ENDMDL
MODEL 5
REMARK VINA RESULT:      -2.1      2.555      4.597
REMARK  Name = 71694041
REMARK  9 active torsions:
REMARK  status: ('A' for Active; 'I' for Inactive)
REMARK    1  A    between atoms: O_4  and  C_10
REMARK    2  A    between atoms: O_5  and  C_12
REMARK    3  A    between atoms: O_6  and  C_26
REMARK    4  A    between atoms: O_6  and  C_27
REMARK    5  A    between atoms: N_7  and  C_9
REMARK    6  A    between atoms: N_7  and  C_14
REMARK    7  A    between atoms: C_8  and  C_13
REMARK    8  A    between atoms: C_14  and  C_17
REMARK    9  A    between atoms: C_20  and  C_23
REMARK                            x       y       z     vdW  Elec       q    Type
REMARK                         _______ _______ _______ _____ _____    ______ ____
ROOT
ATOM      8  C   UNL     1      -2.129   2.445  25.297  0.00  0.00    +0.041 C 
ATOM      9  C   UNL     1      -3.091   3.207  24.357  0.00  0.00    +0.092 C 
ATOM     10  C   UNL     1      -3.675   4.291  25.263  0.00  0.00    +0.160 C 
ATOM     11  C   UNL     1      -1.721   3.469  26.390  0.00  0.00    +0.043 C 
ATOM     12  C   UNL     1      -2.455   4.765  26.047  0.00  0.00    +0.145 C 
ENDROOT
BRANCH   8  13
ATOM     13  C   UNL     1      -0.959   1.816  24.569  0.00  0.00    -0.043 A 
ATOM     15  C   UNL     1      -1.036   0.489  24.141  0.00  0.00    +0.004 A 
ATOM     16  C   UNL     1       0.193   2.562  24.324  0.00  0.00    +0.004 A 
ATOM     18  C   UNL     1       0.041  -0.090  23.470  0.00  0.00    +0.012 A 
ATOM     19  C   UNL     1       1.271   1.982  23.653  0.00  0.00    +0.012 A 
ATOM     20  C   UNL     1       1.194   0.656  23.227  0.00  0.00    +0.055 A 
BRANCH  20  23
ATOM      1  F   UNL     1       2.838  -1.078  23.122  0.00  0.00    -0.166 F 
ATOM      2  F   UNL     1       3.416   0.872  22.367  0.00  0.00    -0.166 F 
ATOM      3  F   UNL     1       2.020  -0.356  21.241  0.00  0.00    -0.166 F 
ATOM     23  C   UNL     1       2.344   0.037  22.507  0.00  0.00    +0.417 C 
ENDBRANCH  20  23
ENDBRANCH   8  13
BRANCH  10   4
ATOM      4  O   UNL     1      -4.265   5.336  24.513  0.00  0.00    -0.388 OA
ATOM     29  H   UNL     1      -4.874   4.928  23.875  0.00  0.00    +0.210 HD
ENDBRANCH  10   4
BRANCH  12   5
ATOM      5  O   UNL     1      -1.626   5.577  25.221  0.00  0.00    -0.389 OA
ATOM     30  H   UNL     1      -0.704   5.306  25.377  0.00  0.00    +0.210 HD
ENDBRANCH  12   5
BRANCH   9   7
ATOM      7  N   UNL     1      -4.130   2.339  23.813  0.00  0.00    -0.306 NA
ATOM     28  H   UNL     1      -4.859   2.918  23.394  0.00  0.00    +0.123 HD
BRANCH   7  14
ATOM     14  C   UNL     1      -4.724   1.521  24.859  0.00  0.00    +0.116 C 
BRANCH  14  17
ATOM     17  C   UNL     1      -4.292   0.082  24.759  0.00  0.00    -0.033 A 
ATOM     21  C   UNL     1      -4.399  -0.596  23.546  0.00  0.00    +0.008 A 
ATOM     22  C   UNL     1      -3.782  -0.573  25.881  0.00  0.00    +0.008 A 
ATOM     24  C   UNL     1      -3.999  -1.929  23.453  0.00  0.00    +0.046 A 
ATOM     25  C   UNL     1      -3.381  -1.905  25.789  0.00  0.00    +0.046 A 
ATOM     26  C   UNL     1      -3.489  -2.584  24.576  0.00  0.00    +0.120 A 
BRANCH  26   6
ATOM      6  O   UNL     1      -3.097  -3.884  24.485  0.00  0.00    -0.495 OA
ATOM     27  C   UNL     1      -2.290  -4.240  23.362  0.00  0.00    +0.277 C 
ENDBRANCH  26   6
ENDBRANCH  14  17
ENDBRANCH   7  14
ENDBRANCH   9   7
TORSDOF 8
ENDMDL
MODEL 6
REMARK VINA RESULT:      -1.9      2.190      4.286
REMARK  Name = 71694041
REMARK  9 active torsions:
REMARK  status: ('A' for Active; 'I' for Inactive)
REMARK    1  A    between atoms: O_4  and  C_10
REMARK    2  A    between atoms: O_5  and  C_12
REMARK    3  A    between atoms: O_6  and  C_26
REMARK    4  A    between atoms: O_6  and  C_27
REMARK    5  A    between atoms: N_7  and  C_9
REMARK    6  A    between atoms: N_7  and  C_14
REMARK    7  A    between atoms: C_8  and  C_13
REMARK    8  A    between atoms: C_14  and  C_17
REMARK    9  A    between atoms: C_20  and  C_23
REMARK                            x       y       z     vdW  Elec       q    Type
REMARK                         _______ _______ _______ _____ _____    ______ ____
ROOT
ATOM      8  C   UNL     1      -0.911   3.120  25.985  0.00  0.00    +0.041 C 
ATOM      9  C   UNL     1      -2.097   3.897  25.368  0.00  0.00    +0.092 C 
ATOM     10  C   UNL     1      -1.521   5.297  25.153  0.00  0.00    +0.160 C 
ATOM     11  C   UNL     1       0.366   3.849  25.485  0.00  0.00    +0.043 C 
ATOM     12  C   UNL     1      -0.125   5.006  24.613  0.00  0.00    +0.145 C 
ENDROOT
BRANCH   8  13
ATOM     13  C   UNL     1      -0.941   1.639  25.671  0.00  0.00    -0.043 A 
ATOM     15  C   UNL     1      -1.566   0.754  26.551  0.00  0.00    +0.004 A 
ATOM     16  C   UNL     1      -0.347   1.160  24.504  0.00  0.00    +0.004 A 
ATOM     18  C   UNL     1      -1.595  -0.611  26.262  0.00  0.00    +0.012 A 
ATOM     19  C   UNL     1      -0.376  -0.205  24.216  0.00  0.00    +0.012 A 
ATOM     20  C   UNL     1      -1.000  -1.090  25.095  0.00  0.00    +0.055 A 
BRANCH  20  23
ATOM      1  F   UNL     1      -1.016  -2.824  23.448  0.00  0.00    -0.166 F 
ATOM      2  F   UNL     1      -2.144  -3.184  25.266  0.00  0.00    -0.166 F 
ATOM      3  F   UNL     1       0.030  -3.221  25.314  0.00  0.00    -0.166 F 
ATOM     23  C   UNL     1      -1.034  -2.548  24.786  0.00  0.00    +0.417 C 
ENDBRANCH  20  23
ENDBRANCH   8  13
BRANCH  10   4
ATOM      4  O   UNL     1      -2.299   6.047  24.240  0.00  0.00    -0.388 OA
ATOM     29  H   UNL     1      -2.441   6.925  24.632  0.00  0.00    +0.210 HD
ENDBRANCH  10   4
BRANCH  12   5
ATOM      5  O   UNL     1      -0.203   4.578  23.256  0.00  0.00    -0.389 OA
ATOM     30  H   UNL     1      -0.969   3.983  23.181  0.00  0.00    +0.210 HD
ENDBRANCH  12   5
BRANCH   9   7
ATOM      7  N   UNL     1      -3.258   3.919  26.250  0.00  0.00    -0.306 NA
ATOM     28  H   UNL     1      -3.112   3.250  27.007  0.00  0.00    +0.123 HD
BRANCH   7  14
ATOM     14  C   UNL     1      -4.466   3.551  25.528  0.00  0.00    +0.116 C 
BRANCH  14  17
ATOM     17  C   UNL     1      -4.343   2.197  24.881  0.00  0.00    -0.033 A 
ATOM     21  C   UNL     1      -3.673   2.062  23.666  0.00  0.00    +0.008 A 
ATOM     22  C   UNL     1      -4.898   1.075  25.500  0.00  0.00    +0.008 A 
ATOM     24  C   UNL     1      -3.559   0.807  23.067  0.00  0.00    +0.046 A 
ATOM     25  C   UNL     1      -4.784  -0.179  24.902  0.00  0.00    +0.046 A 
ATOM     26  C   UNL     1      -4.114  -0.314  23.686  0.00  0.00    +0.120 A 
BRANCH  26   6
ATOM      6  O   UNL     1      -4.001  -1.538  23.102  0.00  0.00    -0.495 OA
ATOM     27  C   UNL     1      -4.510  -2.654  23.833  0.00  0.00    +0.277 C 
ENDBRANCH  26   6
ENDBRANCH  14  17
ENDBRANCH   7  14
ENDBRANCH   9   7
TORSDOF 8
ENDMDL
MODEL 7
REMARK VINA RESULT:      -1.5      2.029      4.073
REMARK  Name = 71694041
REMARK  9 active torsions:
REMARK  status: ('A' for Active; 'I' for Inactive)
REMARK    1  A    between atoms: O_4  and  C_10
REMARK    2  A    between atoms: O_5  and  C_12
REMARK    3  A    between atoms: O_6  and  C_26
REMARK    4  A    between atoms: O_6  and  C_27
REMARK    5  A    between atoms: N_7  and  C_9
REMARK    6  A    between atoms: N_7  and  C_14
REMARK    7  A    between atoms: C_8  and  C_13
REMARK    8  A    between atoms: C_14  and  C_17
REMARK    9  A    between atoms: C_20  and  C_23
REMARK                            x       y       z     vdW  Elec       q    Type
REMARK                         _______ _______ _______ _____ _____    ______ ____
ROOT
ATOM      8  C   UNL     1      -3.028   3.058  25.832  0.00  0.00    +0.041 C 
ATOM      9  C   UNL     1      -4.459   2.707  25.363  0.00  0.00    +0.092 C 
ATOM     10  C   UNL     1      -5.241   3.991  25.641  0.00  0.00    +0.160 C 
ATOM     11  C   UNL     1      -2.919   4.602  25.708  0.00  0.00    +0.043 C 
ATOM     12  C   UNL     1      -4.274   5.078  25.181  0.00  0.00    +0.145 C 
ENDROOT
BRANCH   8  13
ATOM     13  C   UNL     1      -1.953   2.299  25.084  0.00  0.00    -0.043 A 
ATOM     15  C   UNL     1      -0.762   1.961  25.729  0.00  0.00    +0.004 A 
ATOM     16  C   UNL     1      -2.152   1.936  23.753  0.00  0.00    +0.004 A 
ATOM     18  C   UNL     1       0.229   1.260  25.041  0.00  0.00    +0.012 A 
ATOM     19  C   UNL     1      -1.161   1.236  23.064  0.00  0.00    +0.012 A 
ATOM     20  C   UNL     1       0.029   0.899  23.709  0.00  0.00    +0.055 A 
BRANCH  20  23
ATOM      1  F   UNL     1       2.256   0.842  22.836  0.00  0.00    -0.166 F 
ATOM      2  F   UNL     1       0.729  -0.201  21.703  0.00  0.00    -0.166 F 
ATOM      3  F   UNL     1       1.427  -1.021  23.592  0.00  0.00    -0.166 F 
ATOM     23  C   UNL     1       1.088   0.148  22.974  0.00  0.00    +0.417 C 
ENDBRANCH  20  23
ENDBRANCH   8  13
BRANCH  10   4
ATOM      4  O   UNL     1      -6.460   4.026  24.924  0.00  0.00    -0.388 OA
ATOM     29  H   UNL     1      -7.176   4.130  25.573  0.00  0.00    +0.210 HD
ENDBRANCH  10   4
BRANCH  12   5
ATOM      5  O   UNL     1      -4.238   5.133  23.758  0.00  0.00    -0.389 OA
ATOM     30  H   UNL     1      -3.650   4.421  23.453  0.00  0.00    +0.210 HD
ENDBRANCH  12   5
BRANCH   9   7
ATOM      7  N   UNL     1      -5.012   1.569  26.089  0.00  0.00    -0.306 NA
ATOM     28  H   UNL     1      -4.332   1.258  26.784  0.00  0.00    +0.123 HD
BRANCH   7  14
ATOM     14  C   UNL     1      -5.297   0.465  25.185  0.00  0.00    +0.116 C 
BRANCH  14  17
ATOM     17  C   UNL     1      -4.130  -0.479  25.068  0.00  0.00    -0.033 A 
ATOM     21  C   UNL     1      -3.957  -1.234  23.908  0.00  0.00    +0.008 A 
ATOM     22  C   UNL     1      -3.219  -0.598  26.118  0.00  0.00    +0.008 A 
ATOM     24  C   UNL     1      -2.876  -2.109  23.799  0.00  0.00    +0.046 A 
ATOM     25  C   UNL     1      -2.138  -1.472  26.011  0.00  0.00    +0.046 A 
ATOM     26  C   UNL     1      -1.966  -2.227  24.851  0.00  0.00    +0.120 A 
BRANCH  26   6
ATOM      6  O   UNL     1      -0.910  -3.080  24.744  0.00  0.00    -0.495 OA
ATOM     27  C   UNL     1       0.235  -2.797  25.548  0.00  0.00    +0.277 C 
ENDBRANCH  26   6
ENDBRANCH  14  17
ENDBRANCH   7  14
ENDBRANCH   9   7
TORSDOF 8
ENDMDL
MODEL 8
REMARK VINA RESULT:      -0.9      1.583      2.255
REMARK  Name = 71694041
REMARK  9 active torsions:
REMARK  status: ('A' for Active; 'I' for Inactive)
REMARK    1  A    between atoms: O_4  and  C_10
REMARK    2  A    between atoms: O_5  and  C_12
REMARK    3  A    between atoms: O_6  and  C_26
REMARK    4  A    between atoms: O_6  and  C_27
REMARK    5  A    between atoms: N_7  and  C_9
REMARK    6  A    between atoms: N_7  and  C_14
REMARK    7  A    between atoms: C_8  and  C_13
REMARK    8  A    between atoms: C_14  and  C_17
REMARK    9  A    between atoms: C_20  and  C_23
REMARK                            x       y       z     vdW  Elec       q    Type
REMARK                         _______ _______ _______ _____ _____    ______ ____
ROOT
ATOM      8  C   UNL     1      -5.189   1.906  24.467  0.00  0.00    +0.041 C 
ATOM      9  C   UNL     1      -4.176   3.051  24.236  0.00  0.00    +0.092 C 
ATOM     10  C   UNL     1      -4.885   4.267  24.833  0.00  0.00    +0.160 C 
ATOM     11  C   UNL     1      -6.034   2.343  25.694  0.00  0.00    +0.043 C 
ATOM     12  C   UNL     1      -5.487   3.706  26.117  0.00  0.00    +0.145 C 
ENDROOT
BRANCH   8  13
ATOM     13  C   UNL     1      -4.531   0.551  24.618  0.00  0.00    -0.043 A 
ATOM     15  C   UNL     1      -4.525  -0.344  23.546  0.00  0.00    +0.004 A 
ATOM     16  C   UNL     1      -3.930   0.197  25.825  0.00  0.00    +0.004 A 
ATOM     18  C   UNL     1      -3.918  -1.592  23.684  0.00  0.00    +0.012 A 
ATOM     19  C   UNL     1      -3.323  -1.052  25.964  0.00  0.00    +0.012 A 
ATOM     20  C   UNL     1      -3.318  -1.946  24.893  0.00  0.00    +0.055 A 
BRANCH  20  23
ATOM      1  F   UNL     1      -1.332  -3.209  25.321  0.00  0.00    -0.166 F 
ATOM      2  F   UNL     1      -2.755  -4.057  23.920  0.00  0.00    -0.166 F 
ATOM      3  F   UNL     1      -3.214  -4.024  26.044  0.00  0.00    -0.166 F 
ATOM     23  C   UNL     1      -2.667  -3.280  25.039  0.00  0.00    +0.417 C 
ENDBRANCH  20  23
ENDBRANCH   8  13
BRANCH  10   4
ATOM      4  O   UNL     1      -3.981   5.325  25.087  0.00  0.00    -0.388 OA
ATOM     29  H   UNL     1      -3.437   5.440  24.290  0.00  0.00    +0.210 HD
ENDBRANCH  10   4
BRANCH  12   5
ATOM      5  O   UNL     1      -4.470   3.527  27.099  0.00  0.00    -0.389 OA
ATOM     30  H   UNL     1      -4.664   2.698  27.572  0.00  0.00    +0.210 HD
ENDBRANCH  12   5
BRANCH   9   7
ATOM      7  N   UNL     1      -3.875   3.242  22.821  0.00  0.00    -0.306 NA
ATOM     28  H   UNL     1      -4.599   2.785  22.264  0.00  0.00    +0.123 HD
BRANCH   7  14
ATOM     14  C   UNL     1      -2.585   2.659  22.482  0.00  0.00    +0.116 C 
BRANCH  14  17
ATOM     17  C   UNL     1      -1.639   2.673  23.652  0.00  0.00    -0.033 A 
ATOM     21  C   UNL     1      -1.169   1.473  24.185  0.00  0.00    +0.008 A 
ATOM     22  C   UNL     1      -1.228   3.888  24.203  0.00  0.00    +0.008 A 
ATOM     24  C   UNL     1      -0.292   1.486  25.269  0.00  0.00    +0.046 A 
ATOM     25  C   UNL     1      -0.352   3.902  25.287  0.00  0.00    +0.046 A 
ATOM     26  C   UNL     1       0.117   2.701  25.820  0.00  0.00    +0.120 A 
BRANCH  26   6
ATOM      6  O   UNL     1       0.974   2.714  26.877  0.00  0.00    -0.495 OA
ATOM     27  C   UNL     1       0.515   2.120  28.092  0.00  0.00    +0.277 C 
ENDBRANCH  26   6
ENDBRANCH  14  17
ENDBRANCH   7  14
ENDBRANCH   9   7
TORSDOF 8
ENDMDL
MODEL 9
REMARK VINA RESULT:       0.1      2.238      3.482
REMARK  Name = 71694041
REMARK  9 active torsions:
REMARK  status: ('A' for Active; 'I' for Inactive)
REMARK    1  A    between atoms: O_4  and  C_10
REMARK    2  A    between atoms: O_5  and  C_12
REMARK    3  A    between atoms: O_6  and  C_26
REMARK    4  A    between atoms: O_6  and  C_27
REMARK    5  A    between atoms: N_7  and  C_9
REMARK    6  A    between atoms: N_7  and  C_14
REMARK    7  A    between atoms: C_8  and  C_13
REMARK    8  A    between atoms: C_14  and  C_17
REMARK    9  A    between atoms: C_20  and  C_23
REMARK                            x       y       z     vdW  Elec       q    Type
REMARK                         _______ _______ _______ _____ _____    ______ ____
ROOT
ATOM      8  C   UNL     1      -3.792   0.807  23.550  0.00  0.00    +0.041 C 
ATOM      9  C   UNL     1      -4.184   2.026  24.416  0.00  0.00    +0.092 C 
ATOM     10  C   UNL     1      -5.525   1.606  25.020  0.00  0.00    +0.160 C 
ATOM     11  C   UNL     1      -4.508  -0.409  24.198  0.00  0.00    +0.043 C 
ATOM     12  C   UNL     1      -5.280   0.148  25.395  0.00  0.00    +0.145 C 
ENDROOT
BRANCH   8  13
ATOM     13  C   UNL     1      -2.294   0.638  23.404  0.00  0.00    -0.043 A 
ATOM     15  C   UNL     1      -1.585  -0.124  24.334  0.00  0.00    +0.004 A 
ATOM     16  C   UNL     1      -1.623   1.241  22.341  0.00  0.00    +0.004 A 
ATOM     18  C   UNL     1      -0.206  -0.282  24.200  0.00  0.00    +0.012 A 
ATOM     19  C   UNL     1      -0.243   1.085  22.207  0.00  0.00    +0.012 A 
ATOM     20  C   UNL     1       0.465   0.323  23.137  0.00  0.00    +0.055 A 
BRANCH  20  23
ATOM      1  F   UNL     1       2.441  -0.900  23.704  0.00  0.00    -0.166 F 
ATOM      2  F   UNL     1       2.659   1.238  23.406  0.00  0.00    -0.166 F 
ATOM      3  F   UNL     1       2.318  -0.065  21.700  0.00  0.00    -0.166 F 
ATOM     23  C   UNL     1       1.939   0.153  22.993  0.00  0.00    +0.417 C 
ENDBRANCH  20  23
ENDBRANCH   8  13
BRANCH  10   4
ATOM      4  O   UNL     1      -5.861   2.395  26.145  0.00  0.00    -0.388 OA
ATOM     29  H   UNL     1      -5.849   1.812  26.922  0.00  0.00    +0.210 HD
ENDBRANCH  10   4
BRANCH  12   5
ATOM      5  O   UNL     1      -4.467   0.070  26.562  0.00  0.00    -0.389 OA
ATOM     30  H   UNL     1      -3.538   0.071  26.271  0.00  0.00    +0.210 HD
ENDBRANCH  12   5
BRANCH   9   7
ATOM      7  N   UNL     1      -4.306   3.246  23.625  0.00  0.00    -0.306 NA
ATOM     28  H   UNL     1      -3.911   3.081  22.698  0.00  0.00    +0.123 HD
BRANCH   7  14
ATOM     14  C   UNL     1      -3.588   4.345  24.252  0.00  0.00    +0.116 C 
BRANCH  14  17
ATOM     17  C   UNL     1      -2.336   3.875  24.943  0.00  0.00    -0.033 A 
ATOM     21  C   UNL     1      -2.417   3.259  26.191  0.00  0.00    +0.008 A 
ATOM     22  C   UNL     1      -1.093   4.054  24.333  0.00  0.00    +0.008 A 
ATOM     24  C   UNL     1      -1.256   2.823  26.831  0.00  0.00    +0.046 A 
ATOM     25  C   UNL     1       0.067   3.618  24.972  0.00  0.00    +0.046 A 
ATOM     26  C   UNL     1      -0.014   3.003  26.221  0.00  0.00    +0.120 A 
BRANCH  26   6
ATOM      6  O   UNL     1       1.118   2.577  26.845  0.00  0.00    -0.495 OA
ATOM     27  C   UNL     1       1.060   2.431  28.264  0.00  0.00    +0.277 C 
ENDBRANCH  26   6
ENDBRANCH  14  17
ENDBRANCH   7  14
ENDBRANCH   9   7
TORSDOF 8
ENDMDL
MODEL 10
REMARK VINA RESULT:       0.3      1.789      2.871
REMARK  Name = 71694041
REMARK  9 active torsions:
REMARK  status: ('A' for Active; 'I' for Inactive)
REMARK    1  A    between atoms: O_4  and  C_10
REMARK    2  A    between atoms: O_5  and  C_12
REMARK    3  A    between atoms: O_6  and  C_26
REMARK    4  A    between atoms: O_6  and  C_27
REMARK    5  A    between atoms: N_7  and  C_9
REMARK    6  A    between atoms: N_7  and  C_14
REMARK    7  A    between atoms: C_8  and  C_13
REMARK    8  A    between atoms: C_14  and  C_17
REMARK    9  A    between atoms: C_20  and  C_23
REMARK                            x       y       z     vdW  Elec       q    Type
REMARK                         _______ _______ _______ _____ _____    ______ ____
ROOT
ATOM      8  C   UNL     1      -2.900   2.493  23.902  0.00  0.00    +0.041 C 
ATOM      9  C   UNL     1      -1.887   3.182  24.844  0.00  0.00    +0.092 C 
ATOM     10  C   UNL     1      -2.449   4.598  24.983  0.00  0.00    +0.160 C 
ATOM     11  C   UNL     1      -4.236   3.259  24.099  0.00  0.00    +0.043 C 
ATOM     12  C   UNL     1      -3.946   4.350  25.131  0.00  0.00    +0.145 C 
ENDROOT
BRANCH   8  13
ATOM     13  C   UNL     1      -3.004   0.999  24.129  0.00  0.00    -0.043 A 
ATOM     15  C   UNL     1      -2.170   0.376  25.059  0.00  0.00    +0.004 A 
ATOM     16  C   UNL     1      -3.933   0.247  23.412  0.00  0.00    +0.004 A 
ATOM     18  C   UNL     1      -2.265  -0.999  25.270  0.00  0.00    +0.012 A 
ATOM     19  C   UNL     1      -4.029  -1.129  23.622  0.00  0.00    +0.012 A 
ATOM     20  C   UNL     1      -3.194  -1.752  24.551  0.00  0.00    +0.055 A 
BRANCH  20  23
ATOM      1  F   UNL     1      -4.308  -3.815  24.074  0.00  0.00    -0.166 F 
ATOM      2  F   UNL     1      -3.527  -3.559  26.082  0.00  0.00    -0.166 F 
ATOM      3  F   UNL     1      -2.162  -3.889  24.422  0.00  0.00    -0.166 F 
ATOM     23  C   UNL     1      -3.298  -3.222  24.778  0.00  0.00    +0.417 C 
ENDBRANCH  20  23
ENDBRANCH   8  13
BRANCH  10   4
ATOM      4  O   UNL     1      -1.907   5.267  26.105  0.00  0.00    -0.388 OA
ATOM     29  H   UNL     1      -1.256   5.908  25.774  0.00  0.00    +0.210 HD
ENDBRANCH  10   4
BRANCH  12   5
ATOM      5  O   UNL     1      -4.237   3.859  26.436  0.00  0.00    -0.389 OA
ATOM     30  H   UNL     1      -5.175   4.045  26.616  0.00  0.00    +0.210 HD
ENDBRANCH  12   5
BRANCH   9   7
ATOM      7  N   UNL     1      -0.537   3.187  24.291  0.00  0.00    -0.306 NA
ATOM     28  H   UNL     1      -0.294   4.141  24.021  0.00  0.00    +0.123 HD
BRANCH   7  14
ATOM     14  C   UNL     1      -0.455   2.332  23.116  0.00  0.00    +0.116 C 
BRANCH  14  17
ATOM     17  C   UNL     1       0.728   1.403  23.181  0.00  0.00    -0.033 A 
ATOM     21  C   UNL     1       0.529   0.025  23.271  0.00  0.00    +0.008 A 
ATOM     22  C   UNL     1       2.024   1.919  23.150  0.00  0.00    +0.008 A 
ATOM     24  C   UNL     1       1.624  -0.836  23.331  0.00  0.00    +0.046 A 
ATOM     25  C   UNL     1       3.119   1.059  23.210  0.00  0.00    +0.046 A 
ATOM     26  C   UNL     1       2.920  -0.318  23.301  0.00  0.00    +0.120 A 
BRANCH  26   6
ATOM      6  O   UNL     1       3.989  -1.159  23.358  0.00  0.00    -0.495 OA
ATOM     27  C   UNL     1       5.192  -0.641  23.926  0.00  0.00    +0.277 C 
ENDBRANCH  26   6
ENDBRANCH  14  17
ENDBRANCH   7  14
ENDBRANCH   9   7
TORSDOF 8
ENDMDL
