MODEL 1
REMARK VINA RESULT:       4.9      0.000      0.000
REMARK  Name = 7051997
REMARK  10 active torsions:
REMARK  status: ('A' for Active; 'I' for Inactive)
REMARK    1  A    between atoms: N_5  and  C_17
REMARK    2  A    between atoms: N_9  and  C_32
REMARK    3  A    between atoms: N_9  and  C_33
REMARK    4  A    between atoms: N_9  and  C_34
REMARK    5  A    between atoms: C_10  and  C_13
REMARK    6  A    between atoms: C_13  and  C_17
REMARK    7  A    between atoms: C_17  and  C_23
REMARK    8  A    between atoms: C_18  and  C_20
REMARK    9  A    between atoms: C_24  and  C_26
REMARK   10  A    between atoms: C_25  and  C_27
REMARK                            x       y       z     vdW  Elec       q    Type
REMARK                         _______ _______ _______ _____ _____    ______ ____
ROOT
ATOM      3  O   UNL     1      -2.241   3.807  26.535  0.00  0.00    -0.276 OA
ATOM      4  O   UNL     1       0.616  -0.612  21.422  0.00  0.00    -0.270 OA
ATOM      6  N   UNL     1      -1.567   2.728  24.587  0.00  0.00    -0.287 N 
ATOM      7  N   UNL     1       0.232   0.978  23.091  0.00  0.00    -0.294 N 
ATOM     18  C   UNL     1      -0.413   2.101  25.237  0.00  0.00    +0.179 C 
ATOM     19  C   UNL     1       0.703   1.733  24.260  0.00  0.00    +0.140 C 
ATOM     21  C   UNL     1      -1.730   2.495  23.146  0.00  0.00    +0.127 C 
ATOM     22  C   UNL     1      -1.166   1.153  22.704  0.00  0.00    +0.127 C 
ATOM     24  C   UNL     1      -2.368   3.605  25.325  0.00  0.00    +0.213 C 
ATOM     25  C   UNL     1       1.013   0.066  22.370  0.00  0.00    +0.247 C 
ATOM     26  C   UNL     1      -3.453   4.325  24.562  0.00  0.00    +0.109 C 
ENDROOT
BRANCH  25  27
ATOM     27  C   UNL     1       2.423  -0.105  22.759  0.00  0.00    +0.037 A 
ATOM     28  C   UNL     1       2.821  -1.263  23.423  0.00  0.00    +0.015 A 
ATOM     29  C   UNL     1       3.349   0.891  22.464  0.00  0.00    +0.015 A 
ATOM     30  C   UNL     1       4.157  -1.425  23.793  0.00  0.00    +0.024 A 
ATOM     31  C   UNL     1       4.684   0.729  22.834  0.00  0.00    +0.024 A 
ATOM     32  C   UNL     1       5.088  -0.430  23.499  0.00  0.00    +0.029 A 
BRANCH  32   9
ATOM      9  N   UNL     1       6.437  -0.593  23.874  0.00  0.00    -0.336 N 
ATOM     33  C   UNL     1       6.777  -1.121  25.181  0.00  0.00    +0.129 C 
ATOM     34  C   UNL     1       7.502  -0.248  22.953  0.00  0.00    +0.129 C 
ENDBRANCH  32   9
ENDBRANCH  25  27
BRANCH  18  20
ATOM      1  O   UNL     1      -0.635   0.677  27.142  0.00  0.00    -0.274 OA
ATOM      5  N   UNL     1      -1.714   0.089  25.166  0.00  0.00    -0.302 N 
ATOM     20  C   UNL     1      -0.925   0.894  25.970  0.00  0.00    +0.236 C 
ATOM     35  H   UNL     1      -1.866   0.348  24.196  0.00  0.00    +0.150 HD
BRANCH   5  17
ATOM     17  C   UNL     1      -2.310  -1.145  25.626  0.00  0.00    +0.159 C 
BRANCH  17  23
ATOM      2  O   UNL     1      -1.040  -2.420  23.993  0.00  0.00    -0.274 OA
ATOM      8  N   UNL     1      -3.270  -2.900  24.264  0.00  0.00    -0.328 N 
ATOM     23  C   UNL     1      -2.112  -2.212  24.557  0.00  0.00    +0.231 C 
ATOM     36  H   UNL     1      -3.273  -3.631  23.560  0.00  0.00    +0.145 HD
ATOM     37  H   UNL     1      -4.152  -2.720  24.730  0.00  0.00    +0.145 HD
ENDBRANCH  17  23
BRANCH  17  13
ATOM     13  C   UNL     1      -3.779  -0.966  26.021  0.00  0.00    +0.035 C 
BRANCH  13  10
ATOM     10  C   UNL     1      -4.346   0.420  25.713  0.00  0.00    -0.009 C 
ATOM     11  C   UNL     1      -5.584   0.702  26.574  0.00  0.00    +0.003 C 
ATOM     12  C   UNL     1      -4.676   0.551  24.220  0.00  0.00    +0.003 C 
ATOM     14  C   UNL     1      -6.201   2.060  26.247  0.00  0.00    +0.000 C 
ATOM     15  C   UNL     1      -5.294   1.910  23.897  0.00  0.00    +0.000 C 
ATOM     16  C   UNL     1      -6.520   2.191  24.761  0.00  0.00    +0.000 C 
ENDBRANCH  13  10
ENDBRANCH  17  13
ENDBRANCH   5  17
ENDBRANCH  18  20
TORSDOF 7
ENDMDL
MODEL 2
REMARK VINA RESULT:       7.8      1.381      2.038
REMARK  Name = 7051997
REMARK  10 active torsions:
REMARK  status: ('A' for Active; 'I' for Inactive)
REMARK    1  A    between atoms: N_5  and  C_17
REMARK    2  A    between atoms: N_9  and  C_32
REMARK    3  A    between atoms: N_9  and  C_33
REMARK    4  A    between atoms: N_9  and  C_34
REMARK    5  A    between atoms: C_10  and  C_13
REMARK    6  A    between atoms: C_13  and  C_17
REMARK    7  A    between atoms: C_17  and  C_23
REMARK    8  A    between atoms: C_18  and  C_20
REMARK    9  A    between atoms: C_24  and  C_26
REMARK   10  A    between atoms: C_25  and  C_27
REMARK                            x       y       z     vdW  Elec       q    Type
REMARK                         _______ _______ _______ _____ _____    ______ ____
ROOT
ATOM      3  O   UNL     1      -2.315   4.316  26.096  0.00  0.00    -0.276 OA
ATOM      4  O   UNL     1       0.476  -0.867  21.717  0.00  0.00    -0.270 OA
ATOM      6  N   UNL     1      -1.722   2.898  24.349  0.00  0.00    -0.287 N 
ATOM      7  N   UNL     1       0.094   1.010  23.054  0.00  0.00    -0.294 N 
ATOM     18  C   UNL     1      -0.456   2.517  24.981  0.00  0.00    +0.179 C 
ATOM     19  C   UNL     1       0.595   2.034  23.983  0.00  0.00    +0.140 C 
ATOM     21  C   UNL     1      -1.994   2.349  23.015  0.00  0.00    +0.127 C 
ATOM     22  C   UNL     1      -1.344   0.991  22.799  0.00  0.00    +0.127 C 
ATOM     24  C   UNL     1      -2.534   3.849  24.975  0.00  0.00    +0.213 C 
ATOM     25  C   UNL     1       0.891   0.028  22.454  0.00  0.00    +0.247 C 
ATOM     26  C   UNL     1      -3.751   4.302  24.207  0.00  0.00    +0.109 C 
ENDROOT
BRANCH  25  27
ATOM     27  C   UNL     1       2.341   0.054  22.710  0.00  0.00    +0.037 A 
ATOM     28  C   UNL     1       3.106   1.123  22.250  0.00  0.00    +0.015 A 
ATOM     29  C   UNL     1       2.940  -0.991  23.409  0.00  0.00    +0.015 A 
ATOM     30  C   UNL     1       4.480   1.146  22.492  0.00  0.00    +0.024 A 
ATOM     31  C   UNL     1       4.314  -0.967  23.650  0.00  0.00    +0.024 A 
ATOM     32  C   UNL     1       5.083   0.103  23.191  0.00  0.00    +0.029 A 
BRANCH  32   9
ATOM      9  N   UNL     1       6.472   0.126  23.434  0.00  0.00    -0.336 N 
ATOM     33  C   UNL     1       7.344  -0.846  22.804  0.00  0.00    +0.129 C 
ATOM     34  C   UNL     1       7.048   1.131  24.305  0.00  0.00    +0.129 C 
ENDBRANCH  32   9
ENDBRANCH  25  27
BRANCH  18  20
ATOM      1  O   UNL     1      -1.084   1.745  27.153  0.00  0.00    -0.274 OA
ATOM      5  N   UNL     1      -0.656   0.181  25.484  0.00  0.00    -0.302 N 
ATOM     20  C   UNL     1      -0.776   1.460  25.999  0.00  0.00    +0.236 C 
ATOM     35  H   UNL     1      -0.363   0.057  24.519  0.00  0.00    +0.150 HD
BRANCH   5  17
ATOM     17  C   UNL     1      -0.887  -1.012  26.266  0.00  0.00    +0.159 C 
BRANCH  17  23
ATOM      2  O   UNL     1      -1.110  -2.335  24.240  0.00  0.00    -0.274 OA
ATOM      8  N   UNL     1       0.073  -3.217  26.000  0.00  0.00    -0.328 N 
ATOM     23  C   UNL     1      -0.661  -2.229  25.379  0.00  0.00    +0.231 C 
ATOM     36  H   UNL     1       0.284  -4.085  25.518  0.00  0.00    +0.145 HD
ATOM     37  H   UNL     1       0.437  -3.125  26.942  0.00  0.00    +0.145 HD
ENDBRANCH  17  23
BRANCH  17  13
ATOM     13  C   UNL     1      -2.267  -1.009  26.930  0.00  0.00    +0.035 C 
BRANCH  13  10
ATOM     10  C   UNL     1      -3.429  -1.226  25.961  0.00  0.00    -0.009 C 
ATOM     11  C   UNL     1      -3.195  -2.480  25.108  0.00  0.00    +0.003 C 
ATOM     12  C   UNL     1      -3.632   0.009  25.074  0.00  0.00    +0.003 C 
ATOM     14  C   UNL     1      -4.318  -2.689  24.093  0.00  0.00    +0.000 C 
ATOM     15  C   UNL     1      -4.753  -0.204  24.059  0.00  0.00    +0.000 C 
ATOM     16  C   UNL     1      -4.523  -1.456  23.219  0.00  0.00    +0.000 C 
ENDBRANCH  13  10
ENDBRANCH  17  13
ENDBRANCH   5  17
ENDBRANCH  18  20
TORSDOF 7
ENDMDL
