MODEL 1
REMARK VINA RESULT:       1.5      0.000      0.000
REMARK  Name = 71693199
REMARK  15 active torsions:
REMARK  status: ('A' for Active; 'I' for Inactive)
REMARK    1  A    between atoms: O_2  and  C_28
REMARK    2  A    between atoms: O_4  and  C_34
REMARK    3  A    between atoms: O_4  and  C_36
REMARK    4  A    between atoms: N_5  and  C_20
REMARK    5  A    between atoms: C_8  and  C_17
REMARK    6  A    between atoms: C_8  and  C_19
REMARK    7  A    between atoms: C_9  and  C_18
REMARK    8  A    between atoms: C_10  and  C_20
REMARK    9  A    between atoms: C_14  and  C_23
REMARK   10  A    between atoms: C_17  and  C_24
REMARK   11  A    between atoms: C_18  and  C_25
REMARK   12  A    between atoms: C_18  and  C_26
REMARK   13  A    between atoms: C_19  and  C_28
REMARK   14  A    between atoms: C_21  and  C_27
REMARK   15  A    between atoms: C_23  and  C_29
REMARK                            x       y       z     vdW  Elec       q    Type
REMARK                         _______ _______ _______ _____ _____    ______ ____
ROOT
ATOM      9  C   UNL     1      -1.662   3.160  24.681  0.00  0.00    +0.000 C 
ATOM     10  C   UNL     1      -3.001   3.656  24.080  0.00  0.00    +0.032 C 
ATOM     13  C   UNL     1      -0.597   3.026  23.582  0.00  0.00    +0.012 C 
ATOM     14  C   UNL     1      -1.025   2.047  22.473  0.00  0.00    +0.022 C 
ATOM     21  C   UNL     1      -2.445   2.305  22.011  0.00  0.00    -0.073 C 
ATOM     22  C   UNL     1      -3.309   3.037  22.736  0.00  0.00    -0.022 C 
ATOM     27  C   UNL     1      -2.836   1.740  20.675  0.00  0.00    +0.039 C 
ENDROOT
BRANCH   9  18
ATOM     18  C   UNL     1      -1.154   4.094  25.784  0.00  0.00    -0.013 C 
ATOM     25  C   UNL     1      -0.740   5.439  25.193  0.00  0.00    +0.007 C 
ATOM     26  C   UNL     1       0.009   3.451  26.533  0.00  0.00    +0.007 C 
ENDBRANCH   9  18
BRANCH  10  20
ATOM     20  C   UNL     1      -4.167   3.399  25.040  0.00  0.00    +0.112 C 
BRANCH  20   5
ATOM      1  O   UNL     1      -6.182   1.366  24.607  0.00  0.00    -0.276 OA
ATOM      5  N   UNL     1      -4.150   2.049  25.511  0.00  0.00    -0.315 N 
ATOM     24  C   UNL     1      -5.167   1.128  25.256  0.00  0.00    +0.214 C 
ATOM     37  H   UNL     1      -3.325   1.729  26.011  0.00  0.00    +0.149 HD
BRANCH  24  17
ATOM     17  C   UNL     1      -4.878  -0.227  25.877  0.00  0.00    +0.103 C 
BRANCH  17   8
ATOM      8  C   UNL     1      -3.689  -0.937  25.216  0.00  0.00    -0.011 C 
ATOM     11  C   UNL     1      -3.914  -1.074  23.692  0.00  0.00    +0.008 C 
ATOM     12  C   UNL     1      -3.569  -2.388  25.740  0.00  0.00    +0.008 C 
ATOM     15  C   UNL     1      -4.322  -2.525  23.478  0.00  0.00    +0.001 C 
ATOM     16  C   UNL     1      -3.481  -3.269  24.498  0.00  0.00    +0.001 C 
BRANCH   8  19
ATOM     19  C   UNL     1      -2.409  -0.143  25.500  0.00  0.00    +0.127 C 
BRANCH  19  28
ATOM      3  O   UNL     1      -0.780  -1.953  25.385  0.00  0.00    -0.251 OA
ATOM     28  C   UNL     1      -1.310  -1.036  25.995  0.00  0.00    +0.305 C 
BRANCH  28   2
ATOM      2  O   UNL     1      -0.971  -0.676  27.259  0.00  0.00    -0.481 OA
ATOM     39  H   UNL     1      -0.570   0.219  27.290  0.00  0.00    +0.295 HD
ENDBRANCH  28   2
ENDBRANCH  19  28
ENDBRANCH   8  19
ENDBRANCH  17   8
ENDBRANCH  24  17
ENDBRANCH  20   5
ENDBRANCH  10  20
BRANCH  14  23
ATOM     23  C   UNL     1      -0.850   0.592  22.922  0.00  0.00    +0.082 C 
BRANCH  23  29
ATOM      6  N   UNL     1       1.586   1.160  22.860  0.00  0.00    -0.342 N 
ATOM      7  N   UNL     1       1.091  -0.923  23.453  0.00  0.00    -0.232 NA
ATOM     29  C   UNL     1       0.601   0.241  23.089  0.00  0.00    +0.109 A 
ATOM     30  C   UNL     1       2.791   0.550  23.092  0.00  0.00    +0.070 A 
ATOM     31  C   UNL     1       2.456  -0.749  23.460  0.00  0.00    +0.089 A 
ATOM     32  C   UNL     1       4.106   1.009  23.013  0.00  0.00    +0.073 A 
ATOM     33  C   UNL     1       3.480  -1.659  23.773  0.00  0.00    +0.033 A 
ATOM     34  C   UNL     1       5.114   0.091  23.328  0.00  0.00    +0.122 A 
ATOM     35  C   UNL     1       4.808  -1.220  23.701  0.00  0.00    +0.048 A 
ATOM     38  H   UNL     1       1.452   2.121  22.572  0.00  0.00    +0.167 HD
BRANCH  34   4
ATOM      4  O   UNL     1       6.418   0.485  23.269  0.00  0.00    -0.495 OA
ATOM     36  C   UNL     1       7.389  -0.530  23.021  0.00  0.00    +0.277 C 
ENDBRANCH  34   4
ENDBRANCH  23  29
ENDBRANCH  14  23
TORSDOF 11
ENDMDL
MODEL 2
REMARK VINA RESULT:       1.6      1.585      4.829
REMARK  Name = 71693199
REMARK  15 active torsions:
REMARK  status: ('A' for Active; 'I' for Inactive)
REMARK    1  A    between atoms: O_2  and  C_28
REMARK    2  A    between atoms: O_4  and  C_34
REMARK    3  A    between atoms: O_4  and  C_36
REMARK    4  A    between atoms: N_5  and  C_20
REMARK    5  A    between atoms: C_8  and  C_17
REMARK    6  A    between atoms: C_8  and  C_19
REMARK    7  A    between atoms: C_9  and  C_18
REMARK    8  A    between atoms: C_10  and  C_20
REMARK    9  A    between atoms: C_14  and  C_23
REMARK   10  A    between atoms: C_17  and  C_24
REMARK   11  A    between atoms: C_18  and  C_25
REMARK   12  A    between atoms: C_18  and  C_26
REMARK   13  A    between atoms: C_19  and  C_28
REMARK   14  A    between atoms: C_21  and  C_27
REMARK   15  A    between atoms: C_23  and  C_29
REMARK                            x       y       z     vdW  Elec       q    Type
REMARK                         _______ _______ _______ _____ _____    ______ ____
ROOT
ATOM      9  C   UNL     1      -3.293  -1.944  24.357  0.00  0.00    +0.000 C 
ATOM     10  C   UNL     1      -3.733  -1.052  25.545  0.00  0.00    +0.032 C 
ATOM     13  C   UNL     1      -1.872  -2.481  24.586  0.00  0.00    +0.012 C 
ATOM     14  C   UNL     1      -0.842  -1.349  24.753  0.00  0.00    +0.022 C 
ATOM     21  C   UNL     1      -1.326  -0.284  25.716  0.00  0.00    -0.073 C 
ATOM     22  C   UNL     1      -2.619  -0.175  26.069  0.00  0.00    -0.022 C 
ATOM     27  C   UNL     1      -0.282   0.625  26.301  0.00  0.00    +0.039 C 
ENDROOT
BRANCH   9  18
ATOM     18  C   UNL     1      -4.260  -3.112  24.135  0.00  0.00    -0.013 C 
ATOM     25  C   UNL     1      -3.488  -4.382  23.791  0.00  0.00    +0.007 C 
ATOM     26  C   UNL     1      -5.260  -2.772  23.035  0.00  0.00    +0.007 C 
ENDBRANCH   9  18
BRANCH  10  20
ATOM     20  C   UNL     1      -4.934  -0.180  25.167  0.00  0.00    +0.112 C 
BRANCH  20   5
ATOM      1  O   UNL     1      -6.702   2.072  24.739  0.00  0.00    -0.276 OA
ATOM      5  N   UNL     1      -4.614   1.208  25.291  0.00  0.00    -0.315 N 
ATOM     24  C   UNL     1      -5.530   2.236  25.065  0.00  0.00    +0.214 C 
ATOM     37  H   UNL     1      -3.683   1.456  25.615  0.00  0.00    +0.149 HD
BRANCH  24  17
ATOM     17  C   UNL     1      -4.911   3.607  25.274  0.00  0.00    +0.103 C 
BRANCH  17   8
ATOM      8  C   UNL     1      -3.550   3.752  24.579  0.00  0.00    -0.011 C 
ATOM     11  C   UNL     1      -2.456   2.984  25.357  0.00  0.00    +0.008 C 
ATOM     12  C   UNL     1      -3.094   5.230  24.591  0.00  0.00    +0.008 C 
ATOM     15  C   UNL     1      -1.680   4.054  26.113  0.00  0.00    +0.001 C 
ATOM     16  C   UNL     1      -1.672   5.218  25.141  0.00  0.00    +0.001 C 
BRANCH   8  19
ATOM     19  C   UNL     1      -3.661   3.222  23.145  0.00  0.00    +0.127 C 
BRANCH  19  28
ATOM      3  O   UNL     1      -1.391   2.392  22.821  0.00  0.00    -0.251 OA
ATOM     28  C   UNL     1      -2.598   2.203  22.856  0.00  0.00    +0.305 C 
BRANCH  28   2
ATOM      2  O   UNL     1      -3.179   0.997  22.629  0.00  0.00    -0.481 OA
ATOM     39  H   UNL     1      -3.382   0.861  21.679  0.00  0.00    +0.295 HD
ENDBRANCH  28   2
ENDBRANCH  19  28
ENDBRANCH   8  19
ENDBRANCH  17   8
ENDBRANCH  24  17
ENDBRANCH  20   5
ENDBRANCH  10  20
BRANCH  14  23
ATOM     23  C   UNL     1      -0.470  -0.736  23.398  0.00  0.00    +0.082 C 
BRANCH  23  29
ATOM      6  N   UNL     1       1.932  -1.290  23.821  0.00  0.00    -0.342 N 
ATOM      7  N   UNL     1       1.550   0.643  22.795  0.00  0.00    -0.232 NA
ATOM     29  C   UNL     1       0.998  -0.428  23.320  0.00  0.00    +0.109 A 
ATOM     30  C   UNL     1       3.169  -0.740  23.605  0.00  0.00    +0.070 A 
ATOM     31  C   UNL     1       2.905   0.466  22.964  0.00  0.00    +0.089 A 
ATOM     32  C   UNL     1       4.458  -1.181  23.907  0.00  0.00    +0.073 A 
ATOM     33  C   UNL     1       3.976   1.296  22.594  0.00  0.00    +0.033 A 
ATOM     34  C   UNL     1       5.514  -0.343  23.531  0.00  0.00    +0.122 A 
ATOM     35  C   UNL     1       5.279   0.874  22.887  0.00  0.00    +0.048 A 
ATOM     38  H   UNL     1       1.747  -2.178  24.271  0.00  0.00    +0.167 HD
BRANCH  34   4
ATOM      4  O   UNL     1       6.796  -0.723  23.800  0.00  0.00    -0.495 OA
ATOM     36  C   UNL     1       7.739  -0.615  22.736  0.00  0.00    +0.277 C 
ENDBRANCH  34   4
ENDBRANCH  23  29
ENDBRANCH  14  23
TORSDOF 11
ENDMDL
MODEL 3
REMARK VINA RESULT:       1.7      1.994      3.546
REMARK  Name = 71693199
REMARK  15 active torsions:
REMARK  status: ('A' for Active; 'I' for Inactive)
REMARK    1  A    between atoms: O_2  and  C_28
REMARK    2  A    between atoms: O_4  and  C_34
REMARK    3  A    between atoms: O_4  and  C_36
REMARK    4  A    between atoms: N_5  and  C_20
REMARK    5  A    between atoms: C_8  and  C_17
REMARK    6  A    between atoms: C_8  and  C_19
REMARK    7  A    between atoms: C_9  and  C_18
REMARK    8  A    between atoms: C_10  and  C_20
REMARK    9  A    between atoms: C_14  and  C_23
REMARK   10  A    between atoms: C_17  and  C_24
REMARK   11  A    between atoms: C_18  and  C_25
REMARK   12  A    between atoms: C_18  and  C_26
REMARK   13  A    between atoms: C_19  and  C_28
REMARK   14  A    between atoms: C_21  and  C_27
REMARK   15  A    between atoms: C_23  and  C_29
REMARK                            x       y       z     vdW  Elec       q    Type
REMARK                         _______ _______ _______ _____ _____    ______ ____
ROOT
ATOM      9  C   UNL     1      -4.019   3.239  25.640  0.00  0.00    +0.000 C 
ATOM     10  C   UNL     1      -3.983   3.597  24.133  0.00  0.00    +0.032 C 
ATOM     13  C   UNL     1      -3.114   4.189  26.439  0.00  0.00    +0.012 C 
ATOM     14  C   UNL     1      -1.651   4.136  25.961  0.00  0.00    +0.022 C 
ATOM     21  C   UNL     1      -1.548   4.214  24.451  0.00  0.00    -0.073 C 
ATOM     22  C   UNL     1      -2.604   3.983  23.651  0.00  0.00    -0.022 C 
ATOM     27  C   UNL     1      -0.214   4.609  23.882  0.00  0.00    +0.039 C 
ENDROOT
BRANCH   9  18
ATOM     18  C   UNL     1      -5.444   3.287  26.201  0.00  0.00    -0.013 C 
ATOM     25  C   UNL     1      -6.171   1.975  25.918  0.00  0.00    +0.007 C 
ATOM     26  C   UNL     1      -6.209   4.467  25.611  0.00  0.00    +0.007 C 
ENDBRANCH   9  18
BRANCH  10  20
ATOM     20  C   UNL     1      -4.518   2.443  23.278  0.00  0.00    +0.112 C 
BRANCH  20   5
ATOM      1  O   UNL     1      -4.910  -0.196  24.398  0.00  0.00    -0.276 OA
ATOM      5  N   UNL     1      -3.595   1.352  23.263  0.00  0.00    -0.315 N 
ATOM     24  C   UNL     1      -3.864   0.104  23.829  0.00  0.00    +0.214 C 
ATOM     37  H   UNL     1      -2.718   1.474  22.764  0.00  0.00    +0.149 HD
BRANCH  24  17
ATOM     17  C   UNL     1      -2.703  -0.860  23.661  0.00  0.00    +0.103 C 
BRANCH  17   8
ATOM      8  C   UNL     1      -2.453  -1.705  24.917  0.00  0.00    -0.011 C 
ATOM     11  C   UNL     1      -2.369  -0.806  26.173  0.00  0.00    +0.008 C 
ATOM     12  C   UNL     1      -1.076  -2.406  24.829  0.00  0.00    +0.008 C 
ATOM     15  C   UNL     1      -0.884  -0.703  26.490  0.00  0.00    +0.001 C 
ATOM     16  C   UNL     1      -0.364  -2.083  26.138  0.00  0.00    +0.001 C 
BRANCH   8  19
ATOM     19  C   UNL     1      -3.582  -2.731  25.066  0.00  0.00    +0.127 C 
BRANCH  19  28
ATOM      3  O   UNL     1      -3.172  -4.212  23.174  0.00  0.00    -0.251 OA
ATOM     28  C   UNL     1      -3.880  -3.408  23.761  0.00  0.00    +0.305 C 
BRANCH  28   2
ATOM      2  O   UNL     1      -5.090  -2.992  23.303  0.00  0.00    -0.481 OA
ATOM     39  H   UNL     1      -5.829  -3.467  23.737  0.00  0.00    +0.295 HD
ENDBRANCH  28   2
ENDBRANCH  19  28
ENDBRANCH   8  19
ENDBRANCH  17   8
ENDBRANCH  24  17
ENDBRANCH  20   5
ENDBRANCH  10  20
BRANCH  14  23
ATOM     23  C   UNL     1      -0.938   2.889  26.496  0.00  0.00    +0.082 C 
BRANCH  23  29
ATOM      6  N   UNL     1       1.135   2.237  25.256  0.00  0.00    -0.342 N 
ATOM      7  N   UNL     1      -0.765   1.384  24.483  0.00  0.00    -0.232 NA
ATOM     29  C   UNL     1      -0.222   2.155  25.398  0.00  0.00    +0.109 A 
ATOM     30  C   UNL     1       1.491   1.469  24.178  0.00  0.00    +0.070 A 
ATOM     31  C   UNL     1       0.288   0.947  23.713  0.00  0.00    +0.089 A 
ATOM     32  C   UNL     1       2.725   1.194  23.588  0.00  0.00    +0.073 A 
ATOM     33  C   UNL     1       0.296   0.098  22.593  0.00  0.00    +0.033 A 
ATOM     34  C   UNL     1       2.716   0.347  22.475  0.00  0.00    +0.122 A 
ATOM     35  C   UNL     1       1.523  -0.192  21.984  0.00  0.00    +0.048 A 
ATOM     38  H   UNL     1       1.766   2.769  25.842  0.00  0.00    +0.167 HD
BRANCH  34   4
ATOM      4  O   UNL     1       3.893   0.043  21.858  0.00  0.00    -0.495 OA
ATOM     36  C   UNL     1       5.071   0.080  22.659  0.00  0.00    +0.277 C 
ENDBRANCH  34   4
ENDBRANCH  23  29
ENDBRANCH  14  23
TORSDOF 11
ENDMDL
MODEL 4
REMARK VINA RESULT:       1.9      1.707      3.109
REMARK  Name = 71693199
REMARK  15 active torsions:
REMARK  status: ('A' for Active; 'I' for Inactive)
REMARK    1  A    between atoms: O_2  and  C_28
REMARK    2  A    between atoms: O_4  and  C_34
REMARK    3  A    between atoms: O_4  and  C_36
REMARK    4  A    between atoms: N_5  and  C_20
REMARK    5  A    between atoms: C_8  and  C_17
REMARK    6  A    between atoms: C_8  and  C_19
REMARK    7  A    between atoms: C_9  and  C_18
REMARK    8  A    between atoms: C_10  and  C_20
REMARK    9  A    between atoms: C_14  and  C_23
REMARK   10  A    between atoms: C_17  and  C_24
REMARK   11  A    between atoms: C_18  and  C_25
REMARK   12  A    between atoms: C_18  and  C_26
REMARK   13  A    between atoms: C_19  and  C_28
REMARK   14  A    between atoms: C_21  and  C_27
REMARK   15  A    between atoms: C_23  and  C_29
REMARK                            x       y       z     vdW  Elec       q    Type
REMARK                         _______ _______ _______ _____ _____    ______ ____
ROOT
ATOM      9  C   UNL     1      -4.096   3.280  25.195  0.00  0.00    +0.000 C 
ATOM     10  C   UNL     1      -3.759   3.838  23.789  0.00  0.00    +0.032 C 
ATOM     13  C   UNL     1      -3.417   4.123  26.284  0.00  0.00    +0.012 C 
ATOM     14  C   UNL     1      -1.886   4.153  26.128  0.00  0.00    +0.022 C 
ATOM     21  C   UNL     1      -1.471   4.435  24.697  0.00  0.00    -0.073 C 
ATOM     22  C   UNL     1      -2.325   4.302  23.667  0.00  0.00    -0.022 C 
ATOM     27  C   UNL     1      -0.064   4.918  24.483  0.00  0.00    +0.039 C 
ENDROOT
BRANCH   9  18
ATOM     18  C   UNL     1      -5.608   3.235  25.440  0.00  0.00    -0.013 C 
ATOM     25  C   UNL     1      -6.129   4.623  25.799  0.00  0.00    +0.007 C 
ATOM     26  C   UNL     1      -5.939   2.231  26.539  0.00  0.00    +0.007 C 
ENDBRANCH   9  18
BRANCH  10  20
ATOM     20  C   UNL     1      -4.055   2.804  22.697  0.00  0.00    +0.112 C 
BRANCH  20   5
ATOM      1  O   UNL     1      -4.763   0.351  24.061  0.00  0.00    -0.276 OA
ATOM      5  N   UNL     1      -3.241   1.641  22.864  0.00  0.00    -0.315 N 
ATOM     24  C   UNL     1      -3.661   0.494  23.539  0.00  0.00    +0.214 C 
ATOM     37  H   UNL     1      -2.327   1.630  22.420  0.00  0.00    +0.149 HD
BRANCH  24  17
ATOM     17  C   UNL     1      -2.589  -0.582  23.557  0.00  0.00    +0.103 C 
BRANCH  17   8
ATOM      8  C   UNL     1      -2.958  -1.766  24.461  0.00  0.00    -0.011 C 
ATOM     11  C   UNL     1      -2.148  -3.024  24.071  0.00  0.00    +0.008 C 
ATOM     12  C   UNL     1      -4.441  -2.158  24.256  0.00  0.00    +0.008 C 
ATOM     15  C   UNL     1      -3.120  -3.896  23.290  0.00  0.00    +0.001 C 
ATOM     16  C   UNL     1      -4.437  -3.662  24.004  0.00  0.00    +0.001 C 
BRANCH   8  19
ATOM     19  C   UNL     1      -2.687  -1.385  25.922  0.00  0.00    +0.127 C 
BRANCH  19  28
ATOM      3  O   UNL     1      -0.327  -1.903  25.596  0.00  0.00    -0.251 OA
ATOM     28  C   UNL     1      -1.215  -1.328  26.207  0.00  0.00    +0.305 C 
BRANCH  28   2
ATOM      2  O   UNL     1      -0.995  -0.521  27.277  0.00  0.00    -0.481 OA
ATOM     39  H   UNL     1      -0.114  -0.676  27.678  0.00  0.00    +0.295 HD
ENDBRANCH  28   2
ENDBRANCH  19  28
ENDBRANCH   8  19
ENDBRANCH  17   8
ENDBRANCH  24  17
ENDBRANCH  20   5
ENDBRANCH  10  20
BRANCH  14  23
ATOM     23  C   UNL     1      -1.252   2.853  26.636  0.00  0.00    +0.082 C 
BRANCH  23  29
ATOM      6  N   UNL     1       0.872   2.320  25.426  0.00  0.00    -0.342 N 
ATOM      7  N   UNL     1      -0.964   1.356  24.631  0.00  0.00    -0.232 NA
ATOM     29  C   UNL     1      -0.479   2.159  25.551  0.00  0.00    +0.109 A 
ATOM     30  C   UNL     1       1.287   1.571  24.355  0.00  0.00    +0.070 A 
ATOM     31  C   UNL     1       0.122   0.979  23.876  0.00  0.00    +0.089 A 
ATOM     32  C   UNL     1       2.542   1.367  23.782  0.00  0.00    +0.073 A 
ATOM     33  C   UNL     1       0.195   0.129  22.759  0.00  0.00    +0.033 A 
ATOM     34  C   UNL     1       2.597   0.518  22.672  0.00  0.00    +0.122 A 
ATOM     35  C   UNL     1       1.445  -0.090  22.167  0.00  0.00    +0.048 A 
ATOM     38  H   UNL     1       1.463   2.890  26.018  0.00  0.00    +0.167 HD
BRANCH  34   4
ATOM      4  O   UNL     1       3.798   0.282  22.071  0.00  0.00    -0.495 OA
ATOM     36  C   UNL     1       4.947   0.248  22.915  0.00  0.00    +0.277 C 
ENDBRANCH  34   4
ENDBRANCH  23  29
ENDBRANCH  14  23
TORSDOF 11
ENDMDL
MODEL 5
REMARK VINA RESULT:       1.9      1.822      5.025
REMARK  Name = 71693199
REMARK  15 active torsions:
REMARK  status: ('A' for Active; 'I' for Inactive)
REMARK    1  A    between atoms: O_2  and  C_28
REMARK    2  A    between atoms: O_4  and  C_34
REMARK    3  A    between atoms: O_4  and  C_36
REMARK    4  A    between atoms: N_5  and  C_20
REMARK    5  A    between atoms: C_8  and  C_17
REMARK    6  A    between atoms: C_8  and  C_19
REMARK    7  A    between atoms: C_9  and  C_18
REMARK    8  A    between atoms: C_10  and  C_20
REMARK    9  A    between atoms: C_14  and  C_23
REMARK   10  A    between atoms: C_17  and  C_24
REMARK   11  A    between atoms: C_18  and  C_25
REMARK   12  A    between atoms: C_18  and  C_26
REMARK   13  A    between atoms: C_19  and  C_28
REMARK   14  A    between atoms: C_21  and  C_27
REMARK   15  A    between atoms: C_23  and  C_29
REMARK                            x       y       z     vdW  Elec       q    Type
REMARK                         _______ _______ _______ _____ _____    ______ ____
ROOT
ATOM      9  C   UNL     1      -3.287  -1.619  24.235  0.00  0.00    +0.000 C 
ATOM     10  C   UNL     1      -3.798  -0.504  25.181  0.00  0.00    +0.032 C 
ATOM     13  C   UNL     1      -1.899  -2.104  24.677  0.00  0.00    +0.012 C 
ATOM     14  C   UNL     1      -0.862  -0.966  24.691  0.00  0.00    +0.022 C 
ATOM     21  C   UNL     1      -1.396   0.274  25.380  0.00  0.00    -0.073 C 
ATOM     22  C   UNL     1      -2.709   0.457  25.602  0.00  0.00    -0.022 C 
ATOM     27  C   UNL     1      -0.381   1.278  25.849  0.00  0.00    +0.039 C 
ENDROOT
BRANCH   9  18
ATOM     18  C   UNL     1      -4.257  -2.804  24.178  0.00  0.00    -0.013 C 
ATOM     25  C   UNL     1      -3.593  -4.061  24.731  0.00  0.00    +0.007 C 
ATOM     26  C   UNL     1      -4.738  -3.030  22.748  0.00  0.00    +0.007 C 
ENDBRANCH   9  18
BRANCH  10  20
ATOM     20  C   UNL     1      -4.951   0.279  24.544  0.00  0.00    +0.112 C 
BRANCH  20   5
ATOM      1  O   UNL     1      -3.235   1.657  22.664  0.00  0.00    -0.276 OA
ATOM      5  N   UNL     1      -4.656   1.677  24.506  0.00  0.00    -0.315 N 
ATOM     24  C   UNL     1      -3.813   2.265  23.561  0.00  0.00    +0.214 C 
ATOM     37  H   UNL     1      -5.129   2.283  25.171  0.00  0.00    +0.149 HD
BRANCH  24  17
ATOM     17  C   UNL     1      -3.687   3.764  23.763  0.00  0.00    +0.103 C 
BRANCH  17   8
ATOM      8  C   UNL     1      -2.866   4.125  25.008  0.00  0.00    -0.011 C 
ATOM     11  C   UNL     1      -2.519   5.632  25.017  0.00  0.00    +0.008 C 
ATOM     12  C   UNL     1      -1.501   3.395  24.982  0.00  0.00    +0.008 C 
ATOM     15  C   UNL     1      -1.062   5.708  24.584  0.00  0.00    +0.001 C 
ATOM     16  C   UNL     1      -0.452   4.475  25.223  0.00  0.00    +0.001 C 
BRANCH   8  19
ATOM     19  C   UNL     1      -3.665   3.750  26.262  0.00  0.00    +0.127 C 
BRANCH  19  28
ATOM      3  O   UNL     1      -5.698   4.766  25.378  0.00  0.00    -0.251 OA
ATOM     28  C   UNL     1      -5.140   3.897  26.033  0.00  0.00    +0.305 C 
BRANCH  28   2
ATOM      2  O   UNL     1      -5.798   2.898  26.676  0.00  0.00    -0.481 OA
ATOM     39  H   UNL     1      -5.546   2.841  27.621  0.00  0.00    +0.295 HD
ENDBRANCH  28   2
ENDBRANCH  19  28
ENDBRANCH   8  19
ENDBRANCH  17   8
ENDBRANCH  24  17
ENDBRANCH  20   5
ENDBRANCH  10  20
BRANCH  14  23
ATOM     23  C   UNL     1      -0.378  -0.640  23.274  0.00  0.00    +0.082 C 
BRANCH  23  29
ATOM      6  N   UNL     1       2.002  -1.271  23.720  0.00  0.00    -0.342 N 
ATOM      7  N   UNL     1       1.684   0.728  22.803  0.00  0.00    -0.232 NA
ATOM     29  C   UNL     1       1.098  -0.360  23.250  0.00  0.00    +0.109 A 
ATOM     30  C   UNL     1       3.255  -0.735  23.567  0.00  0.00    +0.070 A 
ATOM     31  C   UNL     1       3.030   0.512  22.993  0.00  0.00    +0.089 A 
ATOM     32  C   UNL     1       4.526  -1.221  23.872  0.00  0.00    +0.073 A 
ATOM     33  C   UNL     1       4.127   1.339  22.699  0.00  0.00    +0.033 A 
ATOM     34  C   UNL     1       5.608  -0.386  23.573  0.00  0.00    +0.122 A 
ATOM     35  C   UNL     1       5.414   0.873  22.997  0.00  0.00    +0.048 A 
ATOM     38  H   UNL     1       1.787  -2.179  24.110  0.00  0.00    +0.167 HD
BRANCH  34   4
ATOM      4  O   UNL     1       6.875  -0.808  23.849  0.00  0.00    -0.495 OA
ATOM     36  C   UNL     1       7.864  -0.581  22.848  0.00  0.00    +0.277 C 
ENDBRANCH  34   4
ENDBRANCH  23  29
ENDBRANCH  14  23
TORSDOF 11
ENDMDL
MODEL 6
REMARK VINA RESULT:       2.2      1.711      4.697
REMARK  Name = 71693199
REMARK  15 active torsions:
REMARK  status: ('A' for Active; 'I' for Inactive)
REMARK    1  A    between atoms: O_2  and  C_28
REMARK    2  A    between atoms: O_4  and  C_34
REMARK    3  A    between atoms: O_4  and  C_36
REMARK    4  A    between atoms: N_5  and  C_20
REMARK    5  A    between atoms: C_8  and  C_17
REMARK    6  A    between atoms: C_8  and  C_19
REMARK    7  A    between atoms: C_9  and  C_18
REMARK    8  A    between atoms: C_10  and  C_20
REMARK    9  A    between atoms: C_14  and  C_23
REMARK   10  A    between atoms: C_17  and  C_24
REMARK   11  A    between atoms: C_18  and  C_25
REMARK   12  A    between atoms: C_18  and  C_26
REMARK   13  A    between atoms: C_19  and  C_28
REMARK   14  A    between atoms: C_21  and  C_27
REMARK   15  A    between atoms: C_23  and  C_29
REMARK                            x       y       z     vdW  Elec       q    Type
REMARK                         _______ _______ _______ _____ _____    ______ ____
ROOT
ATOM      9  C   UNL     1      -3.204  -2.011  24.322  0.00  0.00    +0.000 C 
ATOM     10  C   UNL     1      -3.710  -1.228  25.560  0.00  0.00    +0.032 C 
ATOM     13  C   UNL     1      -1.756  -2.477  24.538  0.00  0.00    +0.012 C 
ATOM     14  C   UNL     1      -0.797  -1.300  24.794  0.00  0.00    +0.022 C 
ATOM     21  C   UNL     1      -1.356  -0.331  25.818  0.00  0.00    -0.073 C 
ATOM     22  C   UNL     1      -2.657  -0.323  26.157  0.00  0.00    -0.022 C 
ATOM     27  C   UNL     1      -0.375   0.597  26.476  0.00  0.00    +0.039 C 
ENDROOT
BRANCH   9  18
ATOM     18  C   UNL     1      -4.096  -3.216  24.009  0.00  0.00    -0.013 C 
ATOM     25  C   UNL     1      -3.292  -4.304  23.304  0.00  0.00    +0.007 C 
ATOM     26  C   UNL     1      -5.289  -2.789  23.160  0.00  0.00    +0.007 C 
ENDBRANCH   9  18
BRANCH  10  20
ATOM     20  C   UNL     1      -4.958  -0.405  25.222  0.00  0.00    +0.112 C 
BRANCH  20   5
ATOM      1  O   UNL     1      -6.798   1.778  24.745  0.00  0.00    -0.276 OA
ATOM      5  N   UNL     1      -4.712   0.991  25.411  0.00  0.00    -0.315 N 
ATOM     24  C   UNL     1      -5.659   1.984  25.156  0.00  0.00    +0.214 C 
ATOM     37  H   UNL     1      -3.817   1.269  25.804  0.00  0.00    +0.149 HD
BRANCH  24  17
ATOM     17  C   UNL     1      -5.121   3.374  25.449  0.00  0.00    +0.103 C 
BRANCH  17   8
ATOM      8  C   UNL     1      -3.729   3.606  24.846  0.00  0.00    -0.011 C 
ATOM     11  C   UNL     1      -3.828   4.448  23.552  0.00  0.00    +0.008 C 
ATOM     12  C   UNL     1      -3.101   2.262  24.407  0.00  0.00    +0.008 C 
ATOM     15  C   UNL     1      -3.662   3.451  22.415  0.00  0.00    +0.001 C 
ATOM     16  C   UNL     1      -2.646   2.470  22.967  0.00  0.00    +0.001 C 
BRANCH   8  19
ATOM     19  C   UNL     1      -2.846   4.314  25.880  0.00  0.00    +0.127 C 
BRANCH  19  28
ATOM      3  O   UNL     1      -0.554   3.763  25.260  0.00  0.00    -0.251 OA
ATOM     28  C   UNL     1      -1.470   4.568  25.341  0.00  0.00    +0.305 C 
BRANCH  28   2
ATOM      2  O   UNL     1      -1.375   5.862  24.939  0.00  0.00    -0.481 OA
ATOM     39  H   UNL     1      -1.470   5.952  23.968  0.00  0.00    +0.295 HD
ENDBRANCH  28   2
ENDBRANCH  19  28
ENDBRANCH   8  19
ENDBRANCH  17   8
ENDBRANCH  24  17
ENDBRANCH  20   5
ENDBRANCH  10  20
BRANCH  14  23
ATOM     23  C   UNL     1      -0.448  -0.576  23.488  0.00  0.00    +0.082 C 
BRANCH  23  29
ATOM      6  N   UNL     1       1.934  -1.247  23.854  0.00  0.00    -0.342 N 
ATOM      7  N   UNL     1       1.622   0.695  22.822  0.00  0.00    -0.232 NA
ATOM     29  C   UNL     1       1.031  -0.343  23.370  0.00  0.00    +0.109 A 
ATOM     30  C   UNL     1       3.191  -0.761  23.602  0.00  0.00    +0.070 A 
ATOM     31  C   UNL     1       2.970   0.452  22.958  0.00  0.00    +0.089 A 
ATOM     32  C   UNL     1       4.464  -1.263  23.874  0.00  0.00    +0.073 A 
ATOM     33  C   UNL     1       4.071   1.225  22.552  0.00  0.00    +0.033 A 
ATOM     34  C   UNL     1       5.550  -0.482  23.465  0.00  0.00    +0.122 A 
ATOM     35  C   UNL     1       5.359   0.740  22.816  0.00  0.00    +0.048 A 
ATOM     38  H   UNL     1       1.717  -2.121  24.316  0.00  0.00    +0.167 HD
BRANCH  34   4
ATOM      4  O   UNL     1       6.818  -0.924  23.704  0.00  0.00    -0.495 OA
ATOM     36  C   UNL     1       7.868  -0.298  22.971  0.00  0.00    +0.277 C 
ENDBRANCH  34   4
ENDBRANCH  23  29
ENDBRANCH  14  23
TORSDOF 11
ENDMDL
MODEL 7
REMARK VINA RESULT:       4.1      1.543      4.299
REMARK  Name = 71693199
REMARK  15 active torsions:
REMARK  status: ('A' for Active; 'I' for Inactive)
REMARK    1  A    between atoms: O_2  and  C_28
REMARK    2  A    between atoms: O_4  and  C_34
REMARK    3  A    between atoms: O_4  and  C_36
REMARK    4  A    between atoms: N_5  and  C_20
REMARK    5  A    between atoms: C_8  and  C_17
REMARK    6  A    between atoms: C_8  and  C_19
REMARK    7  A    between atoms: C_9  and  C_18
REMARK    8  A    between atoms: C_10  and  C_20
REMARK    9  A    between atoms: C_14  and  C_23
REMARK   10  A    between atoms: C_17  and  C_24
REMARK   11  A    between atoms: C_18  and  C_25
REMARK   12  A    between atoms: C_18  and  C_26
REMARK   13  A    between atoms: C_19  and  C_28
REMARK   14  A    between atoms: C_21  and  C_27
REMARK   15  A    between atoms: C_23  and  C_29
REMARK                            x       y       z     vdW  Elec       q    Type
REMARK                         _______ _______ _______ _____ _____    ______ ____
ROOT
ATOM      9  C   UNL     1      -3.039   0.806  23.692  0.00  0.00    +0.000 C 
ATOM     10  C   UNL     1      -4.475   0.370  24.077  0.00  0.00    +0.032 C 
ATOM     13  C   UNL     1      -2.308  -0.334  22.967  0.00  0.00    +0.012 C 
ATOM     14  C   UNL     1      -2.215  -1.606  23.828  0.00  0.00    +0.022 C 
ATOM     21  C   UNL     1      -3.546  -1.953  24.466  0.00  0.00    -0.073 C 
ATOM     22  C   UNL     1      -4.548  -1.062  24.556  0.00  0.00    -0.022 C 
ATOM     27  C   UNL     1      -3.714  -3.364  24.957  0.00  0.00    +0.039 C 
ENDROOT
BRANCH   9  18
ATOM     18  C   UNL     1      -3.043   2.062  22.813  0.00  0.00    -0.013 C 
ATOM     25  C   UNL     1      -4.467   2.581  22.636  0.00  0.00    +0.007 C 
ATOM     26  C   UNL     1      -2.403   1.767  21.461  0.00  0.00    +0.007 C 
ENDBRANCH   9  18
BRANCH  10  20
ATOM     20  C   UNL     1      -5.067   1.296  25.145  0.00  0.00    +0.112 C 
BRANCH  20   5
ATOM      1  O   UNL     1      -5.201   4.169  25.470  0.00  0.00    -0.276 OA
ATOM      5  N   UNL     1      -4.061   2.153  25.689  0.00  0.00    -0.315 N 
ATOM     24  C   UNL     1      -4.205   3.536  25.811  0.00  0.00    +0.214 C 
ATOM     37  H   UNL     1      -3.216   1.724  26.057  0.00  0.00    +0.149 HD
BRANCH  24  17
ATOM     17  C   UNL     1      -2.978   4.186  26.426  0.00  0.00    +0.103 C 
BRANCH  17   8
ATOM      8  C   UNL     1      -1.682   3.800  25.701  0.00  0.00    -0.011 C 
ATOM     11  C   UNL     1      -0.575   4.847  25.967  0.00  0.00    +0.008 C 
ATOM     12  C   UNL     1      -1.896   3.819  24.168  0.00  0.00    +0.008 C 
ATOM     15  C   UNL     1      -0.506   5.686  24.699  0.00  0.00    +0.001 C 
ATOM     16  C   UNL     1      -0.763   4.668  23.604  0.00  0.00    +0.001 C 
BRANCH   8  19
ATOM     19  C   UNL     1      -1.234   2.413  26.176  0.00  0.00    +0.127 C 
BRANCH  19  28
ATOM      3  O   UNL     1       0.778   2.604  27.539  0.00  0.00    -0.251 OA
ATOM     28  C   UNL     1       0.237   2.383  26.465  0.00  0.00    +0.305 C 
BRANCH  28   2
ATOM      2  O   UNL     1       0.913   2.066  25.331  0.00  0.00    -0.481 OA
ATOM     39  H   UNL     1       1.635   1.424  25.501  0.00  0.00    +0.295 HD
ENDBRANCH  28   2
ENDBRANCH  19  28
ENDBRANCH   8  19
ENDBRANCH  17   8
ENDBRANCH  24  17
ENDBRANCH  20   5
ENDBRANCH  10  20
BRANCH  14  23
ATOM     23  C   UNL     1      -1.116  -1.478  24.889  0.00  0.00    +0.082 C 
BRANCH  23  29
ATOM      6  N   UNL     1       1.361  -1.599  24.558  0.00  0.00    -0.342 N 
ATOM      7  N   UNL     1       0.317   0.037  23.477  0.00  0.00    -0.232 NA
ATOM     29  C   UNL     1       0.170  -0.985  24.289  0.00  0.00    +0.109 A 
ATOM     30  C   UNL     1       2.342  -0.928  23.875  0.00  0.00    +0.070 A 
ATOM     31  C   UNL     1       1.666   0.088  23.208  0.00  0.00    +0.089 A 
ATOM     32  C   UNL     1       3.721  -1.119  23.786  0.00  0.00    +0.073 A 
ATOM     33  C   UNL     1       2.391   0.979  22.398  0.00  0.00    +0.033 A 
ATOM     34  C   UNL     1       4.429  -0.224  22.976  0.00  0.00    +0.122 A 
ATOM     35  C   UNL     1       3.778   0.807  22.294  0.00  0.00    +0.048 A 
ATOM     38  H   UNL     1       1.497  -2.405  25.155  0.00  0.00    +0.167 HD
BRANCH  34   4
ATOM      4  O   UNL     1       5.780  -0.362  22.851  0.00  0.00    -0.495 OA
ATOM     36  C   UNL     1       6.541  -0.385  24.056  0.00  0.00    +0.277 C 
ENDBRANCH  34   4
ENDBRANCH  23  29
ENDBRANCH  14  23
TORSDOF 11
ENDMDL
MODEL 8
REMARK VINA RESULT:       4.6      2.005      6.526
REMARK  Name = 71693199
REMARK  15 active torsions:
REMARK  status: ('A' for Active; 'I' for Inactive)
REMARK    1  A    between atoms: O_2  and  C_28
REMARK    2  A    between atoms: O_4  and  C_34
REMARK    3  A    between atoms: O_4  and  C_36
REMARK    4  A    between atoms: N_5  and  C_20
REMARK    5  A    between atoms: C_8  and  C_17
REMARK    6  A    between atoms: C_8  and  C_19
REMARK    7  A    between atoms: C_9  and  C_18
REMARK    8  A    between atoms: C_10  and  C_20
REMARK    9  A    between atoms: C_14  and  C_23
REMARK   10  A    between atoms: C_17  and  C_24
REMARK   11  A    between atoms: C_18  and  C_25
REMARK   12  A    between atoms: C_18  and  C_26
REMARK   13  A    between atoms: C_19  and  C_28
REMARK   14  A    between atoms: C_21  and  C_27
REMARK   15  A    between atoms: C_23  and  C_29
REMARK                            x       y       z     vdW  Elec       q    Type
REMARK                         _______ _______ _______ _____ _____    ______ ____
ROOT
ATOM      9  C   UNL     1      -2.606   2.537  23.826  0.00  0.00    +0.000 C 
ATOM     10  C   UNL     1      -1.515   3.222  24.688  0.00  0.00    +0.032 C 
ATOM     13  C   UNL     1      -3.826   3.458  23.675  0.00  0.00    +0.012 C 
ATOM     14  C   UNL     1      -4.445   3.833  25.034  0.00  0.00    +0.022 C 
ATOM     21  C   UNL     1      -3.390   4.267  26.032  0.00  0.00    -0.073 C 
ATOM     22  C   UNL     1      -2.085   3.996  25.855  0.00  0.00    -0.022 C 
ATOM     27  C   UNL     1      -3.865   5.058  27.218  0.00  0.00    +0.039 C 
ENDROOT
BRANCH   9  18
ATOM     18  C   UNL     1      -2.074   2.148  22.443  0.00  0.00    -0.013 C 
ATOM     25  C   UNL     1      -3.016   2.649  21.351  0.00  0.00    +0.007 C 
ATOM     26  C   UNL     1      -1.893   0.637  22.349  0.00  0.00    +0.007 C 
ENDBRANCH   9  18
BRANCH  10  20
ATOM     20  C   UNL     1      -0.495   2.201  25.204  0.00  0.00    +0.112 C 
BRANCH  20   5
ATOM      1  O   UNL     1       1.058   0.044  24.057  0.00  0.00    -0.276 OA
ATOM      5  N   UNL     1       0.737   2.308  24.487  0.00  0.00    -0.315 N 
ATOM     24  C   UNL     1       1.426   1.212  23.965  0.00  0.00    +0.214 C 
ATOM     37  H   UNL     1       1.102   3.238  24.302  0.00  0.00    +0.149 HD
BRANCH  24  17
ATOM     17  C   UNL     1       2.701   1.627  23.252  0.00  0.00    +0.103 C 
BRANCH  17   8
ATOM      8  C   UNL     1       3.463   0.431  22.665  0.00  0.00    -0.011 C 
ATOM     11  C   UNL     1       3.417  -0.775  23.633  0.00  0.00    +0.008 C 
ATOM     12  C   UNL     1       4.965   0.772  22.514  0.00  0.00    +0.008 C 
ATOM     15  C   UNL     1       4.785  -0.802  24.299  0.00  0.00    +0.001 C 
ATOM     16  C   UNL     1       5.717  -0.374  23.182  0.00  0.00    +0.001 C 
BRANCH   8  19
ATOM     19  C   UNL     1       2.845   0.057  21.313  0.00  0.00    +0.127 C 
BRANCH  19  28
ATOM      3  O   UNL     1       1.093  -1.142  22.510  0.00  0.00    -0.251 OA
ATOM     28  C   UNL     1       1.524  -0.631  21.487  0.00  0.00    +0.305 C 
BRANCH  28   2
ATOM      2  O   UNL     1       0.845  -0.610  20.311  0.00  0.00    -0.481 OA
ATOM     39  H   UNL     1       1.331  -1.077  19.599  0.00  0.00    +0.295 HD
ENDBRANCH  28   2
ENDBRANCH  19  28
ENDBRANCH   8  19
ENDBRANCH  17   8
ENDBRANCH  24  17
ENDBRANCH  20   5
ENDBRANCH  10  20
BRANCH  14  23
ATOM     23  C   UNL     1      -5.290   2.683  25.593  0.00  0.00    +0.082 C 
BRANCH  23  29
ATOM      6  N   UNL     1      -3.477   0.974  25.824  0.00  0.00    -0.342 N 
ATOM      7  N   UNL     1      -5.170   0.419  24.496  0.00  0.00    -0.232 NA
ATOM     29  C   UNL     1      -4.674   1.349  25.282  0.00  0.00    +0.109 A 
ATOM     30  C   UNL     1      -3.179  -0.280  25.357  0.00  0.00    +0.070 A 
ATOM     31  C   UNL     1      -4.250  -0.605  24.530  0.00  0.00    +0.089 A 
ATOM     32  C   UNL     1      -2.098  -1.132  25.581  0.00  0.00    +0.073 A 
ATOM     33  C   UNL     1      -4.261  -1.850  23.879  0.00  0.00    +0.033 A 
ATOM     34  C   UNL     1      -2.124  -2.368  24.925  0.00  0.00    +0.122 A 
ATOM     35  C   UNL     1      -3.185  -2.722  24.088  0.00  0.00    +0.048 A 
ATOM     38  H   UNL     1      -2.910   1.523  26.457  0.00  0.00    +0.167 HD
BRANCH  34   4
ATOM      4  O   UNL     1      -1.093  -3.242  25.106  0.00  0.00    -0.495 OA
ATOM     36  C   UNL     1       0.154  -2.692  25.526  0.00  0.00    +0.277 C 
ENDBRANCH  34   4
ENDBRANCH  23  29
ENDBRANCH  14  23
TORSDOF 11
ENDMDL
MODEL 9
REMARK VINA RESULT:       4.7      1.927      5.968
REMARK  Name = 71693199
REMARK  15 active torsions:
REMARK  status: ('A' for Active; 'I' for Inactive)
REMARK    1  A    between atoms: O_2  and  C_28
REMARK    2  A    between atoms: O_4  and  C_34
REMARK    3  A    between atoms: O_4  and  C_36
REMARK    4  A    between atoms: N_5  and  C_20
REMARK    5  A    between atoms: C_8  and  C_17
REMARK    6  A    between atoms: C_8  and  C_19
REMARK    7  A    between atoms: C_9  and  C_18
REMARK    8  A    between atoms: C_10  and  C_20
REMARK    9  A    between atoms: C_14  and  C_23
REMARK   10  A    between atoms: C_17  and  C_24
REMARK   11  A    between atoms: C_18  and  C_25
REMARK   12  A    between atoms: C_18  and  C_26
REMARK   13  A    between atoms: C_19  and  C_28
REMARK   14  A    between atoms: C_21  and  C_27
REMARK   15  A    between atoms: C_23  and  C_29
REMARK                            x       y       z     vdW  Elec       q    Type
REMARK                         _______ _______ _______ _____ _____    ______ ____
ROOT
ATOM      9  C   UNL     1      -3.081   2.407  23.835  0.00  0.00    +0.000 C 
ATOM     10  C   UNL     1      -2.511   3.757  24.337  0.00  0.00    +0.032 C 
ATOM     13  C   UNL     1      -4.543   2.573  23.394  0.00  0.00    +0.012 C 
ATOM     14  C   UNL     1      -5.441   3.085  24.535  0.00  0.00    +0.022 C 
ATOM     21  C   UNL     1      -4.815   4.261  25.259  0.00  0.00    -0.073 C 
ATOM     22  C   UNL     1      -3.508   4.553  25.148  0.00  0.00    -0.022 C 
ATOM     27  C   UNL     1      -5.737   5.120  26.079  0.00  0.00    +0.039 C 
ENDROOT
BRANCH   9  18
ATOM     18  C   UNL     1      -2.252   1.836  22.679  0.00  0.00    -0.013 C 
ATOM     25  C   UNL     1      -2.500   2.633  21.402  0.00  0.00    +0.007 C 
ATOM     26  C   UNL     1      -2.580   0.361  22.468  0.00  0.00    +0.007 C 
ENDBRANCH   9  18
BRANCH  10  20
ATOM     20  C   UNL     1      -1.235   3.548  25.160  0.00  0.00    +0.112 C 
BRANCH  20   5
ATOM      1  O   UNL     1       0.167   1.018  25.255  0.00  0.00    -0.276 OA
ATOM      5  N   UNL     1      -0.156   3.125  24.323  0.00  0.00    -0.315 N 
ATOM     24  C   UNL     1       0.469   1.882  24.436  0.00  0.00    +0.214 C 
ATOM     37  H   UNL     1       0.136   3.743  23.571  0.00  0.00    +0.149 HD
BRANCH  24  17
ATOM     17  C   UNL     1       1.580   1.707  23.416  0.00  0.00    +0.103 C 
BRANCH  17   8
ATOM      8  C   UNL     1       1.834   0.234  23.069  0.00  0.00    -0.011 C 
ATOM     11  C   UNL     1       2.011   0.055  21.543  0.00  0.00    +0.008 C 
ATOM     12  C   UNL     1       0.603  -0.627  23.438  0.00  0.00    +0.008 C 
ATOM     15  C   UNL     1       0.691  -0.524  21.055  0.00  0.00    +0.001 C 
ATOM     16  C   UNL     1       0.280  -1.441  22.190  0.00  0.00    +0.001 C 
BRANCH   8  19
ATOM     19  C   UNL     1       3.085  -0.248  23.814  0.00  0.00    +0.127 C 
BRANCH  19  28
ATOM      3  O   UNL     1       4.549   0.785  22.161  0.00  0.00    -0.251 OA
ATOM     28  C   UNL     1       4.319   0.439  23.310  0.00  0.00    +0.305 C 
BRANCH  28   2
ATOM      2  O   UNL     1       5.181   0.632  24.342  0.00  0.00    -0.481 OA
ATOM     39  H   UNL     1       4.915   1.390  24.905  0.00  0.00    +0.295 HD
ENDBRANCH  28   2
ENDBRANCH  19  28
ENDBRANCH   8  19
ENDBRANCH  17   8
ENDBRANCH  24  17
ENDBRANCH  20   5
ENDBRANCH  10  20
BRANCH  14  23
ATOM     23  C   UNL     1      -5.787   1.959  25.516  0.00  0.00    +0.082 C 
BRANCH  23  29
ATOM      6  N   UNL     1      -3.759   0.520  25.790  0.00  0.00    -0.342 N 
ATOM      7  N   UNL     1      -5.341  -0.280  24.451  0.00  0.00    -0.232 NA
ATOM     29  C   UNL     1      -4.989   0.719  25.229  0.00  0.00    +0.109 A 
ATOM     30  C   UNL     1      -3.285  -0.687  25.343  0.00  0.00    +0.070 A 
ATOM     31  C   UNL     1      -4.290  -1.166  24.509  0.00  0.00    +0.089 A 
ATOM     32  C   UNL     1      -2.099  -1.379  25.591  0.00  0.00    +0.073 A 
ATOM     33  C   UNL     1      -4.121  -2.408  23.875  0.00  0.00    +0.033 A 
ATOM     34  C   UNL     1      -1.946  -2.614  24.952  0.00  0.00    +0.122 A 
ATOM     35  C   UNL     1      -2.937  -3.121  24.108  0.00  0.00    +0.048 A 
ATOM     38  H   UNL     1      -3.282   1.149  26.423  0.00  0.00    +0.167 HD
BRANCH  34   4
ATOM      4  O   UNL     1      -0.807  -3.335  25.157  0.00  0.00    -0.495 OA
ATOM     36  C   UNL     1       0.306  -2.640  25.714  0.00  0.00    +0.277 C 
ENDBRANCH  34   4
ENDBRANCH  23  29
ENDBRANCH  14  23
TORSDOF 11
ENDMDL
MODEL 10
REMARK VINA RESULT:       5.0      1.728      6.751
REMARK  Name = 71693199
REMARK  15 active torsions:
REMARK  status: ('A' for Active; 'I' for Inactive)
REMARK    1  A    between atoms: O_2  and  C_28
REMARK    2  A    between atoms: O_4  and  C_34
REMARK    3  A    between atoms: O_4  and  C_36
REMARK    4  A    between atoms: N_5  and  C_20
REMARK    5  A    between atoms: C_8  and  C_17
REMARK    6  A    between atoms: C_8  and  C_19
REMARK    7  A    between atoms: C_9  and  C_18
REMARK    8  A    between atoms: C_10  and  C_20
REMARK    9  A    between atoms: C_14  and  C_23
REMARK   10  A    between atoms: C_17  and  C_24
REMARK   11  A    between atoms: C_18  and  C_25
REMARK   12  A    between atoms: C_18  and  C_26
REMARK   13  A    between atoms: C_19  and  C_28
REMARK   14  A    between atoms: C_21  and  C_27
REMARK   15  A    between atoms: C_23  and  C_29
REMARK                            x       y       z     vdW  Elec       q    Type
REMARK                         _______ _______ _______ _____ _____    ______ ____
ROOT
ATOM      9  C   UNL     1      -2.719   2.421  23.671  0.00  0.00    +0.000 C 
ATOM     10  C   UNL     1      -1.561   2.819  24.621  0.00  0.00    +0.032 C 
ATOM     13  C   UNL     1      -3.745   3.559  23.569  0.00  0.00    +0.012 C 
ATOM     14  C   UNL     1      -4.344   3.927  24.939  0.00  0.00    +0.022 C 
ATOM     21  C   UNL     1      -3.273   4.075  26.001  0.00  0.00    -0.073 C 
ATOM     22  C   UNL     1      -2.032   3.585  25.836  0.00  0.00    -0.022 C 
ATOM     27  C   UNL     1      -3.648   4.839  27.240  0.00  0.00    +0.039 C 
ENDROOT
BRANCH   9  18
ATOM     18  C   UNL     1      -2.207   2.057  22.273  0.00  0.00    -0.013 C 
ATOM     25  C   UNL     1      -2.916   2.894  21.213  0.00  0.00    +0.007 C 
ATOM     26  C   UNL     1      -2.403   0.568  22.006  0.00  0.00    +0.007 C 
ENDBRANCH   9  18
BRANCH  10  20
ATOM     20  C   UNL     1      -0.766   1.588  25.070  0.00  0.00    +0.112 C 
BRANCH  20   5
ATOM      1  O   UNL     1      -0.179  -1.171  24.425  0.00  0.00    -0.276 OA
ATOM      5  N   UNL     1       0.064   1.105  24.010  0.00  0.00    -0.315 N 
ATOM     24  C   UNL     1       0.296  -0.249  23.767  0.00  0.00    +0.214 C 
ATOM     37  H   UNL     1       0.461   1.784  23.367  0.00  0.00    +0.149 HD
BRANCH  24  17
ATOM     17  C   UNL     1       1.213  -0.466  22.576  0.00  0.00    +0.103 C 
BRANCH  17   8
ATOM      8  C   UNL     1       2.689  -0.218  22.917  0.00  0.00    -0.011 C 
ATOM     11  C   UNL     1       2.851   1.090  23.726  0.00  0.00    +0.008 C 
ATOM     12  C   UNL     1       3.511   0.001  21.624  0.00  0.00    +0.008 C 
ATOM     15  C   UNL     1       3.373   2.113  22.728  0.00  0.00    +0.001 C 
ATOM     16  C   UNL     1       4.293   1.290  21.847  0.00  0.00    +0.001 C 
BRANCH   8  19
ATOM     19  C   UNL     1       3.227  -1.412  23.714  0.00  0.00    +0.127 C 
BRANCH  19  28
ATOM      3  O   UNL     1       5.252  -0.245  24.410  0.00  0.00    -0.251 OA
ATOM     28  C   UNL     1       4.689  -1.255  24.013  0.00  0.00    +0.305 C 
BRANCH  28   2
ATOM      2  O   UNL     1       5.327  -2.430  23.774  0.00  0.00    -0.481 OA
ATOM     39  H   UNL     1       4.818  -3.198  24.108  0.00  0.00    +0.295 HD
ENDBRANCH  28   2
ENDBRANCH  19  28
ENDBRANCH   8  19
ENDBRANCH  17   8
ENDBRANCH  24  17
ENDBRANCH  20   5
ENDBRANCH  10  20
BRANCH  14  23
ATOM     23  C   UNL     1      -5.407   2.909  25.370  0.00  0.00    +0.082 C 
BRANCH  23  29
ATOM      6  N   UNL     1      -5.096   0.696  24.246  0.00  0.00    -0.342 N 
ATOM      7  N   UNL     1      -4.163   0.904  26.251  0.00  0.00    -0.232 NA
ATOM     29  C   UNL     1      -4.872   1.506  25.323  0.00  0.00    +0.109 A 
ATOM     30  C   UNL     1      -4.492  -0.509  24.495  0.00  0.00    +0.070 A 
ATOM     31  C   UNL     1      -3.917  -0.355  25.752  0.00  0.00    +0.089 A 
ATOM     32  C   UNL     1      -4.402  -1.685  23.750  0.00  0.00    +0.073 A 
ATOM     33  C   UNL     1      -3.205  -1.426  26.317  0.00  0.00    +0.033 A 
ATOM     34  C   UNL     1      -3.690  -2.743  24.326  0.00  0.00    +0.122 A 
ATOM     35  C   UNL     1      -3.102  -2.617  25.588  0.00  0.00    +0.048 A 
ATOM     38  H   UNL     1      -5.614   0.940  23.412  0.00  0.00    +0.167 HD
BRANCH  34   4
ATOM      4  O   UNL     1      -3.569  -3.917  23.644  0.00  0.00    -0.495 OA
ATOM     36  C   UNL     1      -2.289  -4.213  23.091  0.00  0.00    +0.277 C 
ENDBRANCH  34   4
ENDBRANCH  23  29
ENDBRANCH  14  23
TORSDOF 11
ENDMDL
