MODEL 1
REMARK VINA RESULT:      -3.4      0.000      0.000
REMARK  Name = 45784059
REMARK  3 active torsions:
REMARK  status: ('A' for Active; 'I' for Inactive)
REMARK    1  A    between atoms: C_8  and  C_12
REMARK    2  A    between atoms: C_13  and  C_17
REMARK    3  A    between atoms: C_19  and  C_21
REMARK                            x       y       z     vdW  Elec       q    Type
REMARK                         _______ _______ _______ _____ _____    ______ ____
ROOT
ATOM      6  N   UNL     1      -0.390   3.131  24.494  0.00  0.00    -0.342 N 
ATOM      7  N   UNL     1      -1.791   1.436  24.807  0.00  0.00    -0.232 NA
ATOM     12  C   UNL     1      -1.629   2.736  24.910  0.00  0.00    +0.113 A 
ATOM     14  C   UNL     1       0.296   2.012  24.096  0.00  0.00    +0.067 A 
ATOM     15  C   UNL     1      -0.600   0.967  24.301  0.00  0.00    +0.089 A 
ATOM     16  C   UNL     1       1.583   1.830  23.591  0.00  0.00    +0.040 A 
ATOM     18  C   UNL     1      -0.206  -0.345  23.988  0.00  0.00    +0.030 A 
ATOM     19  C   UNL     1       1.960   0.518  23.284  0.00  0.00    +0.057 A 
ATOM     20  C   UNL     1       1.082  -0.551  23.479  0.00  0.00    +0.014 A 
ATOM     22  H   UNL     1      -0.038   4.080  24.479  0.00  0.00    +0.167 HD
ENDROOT
BRANCH  12   8
ATOM      4  O   UNL     1      -6.140   1.638  26.798  0.00  0.00    -0.276 OA
ATOM      5  N   UNL     1      -4.867   2.891  25.331  0.00  0.00    -0.301 N 
ATOM      8  C   UNL     1      -2.649   3.741  25.419  0.00  0.00    +0.074 C 
ATOM      9  C   UNL     1      -3.410   4.409  24.264  0.00  0.00    +0.032 C 
ATOM     10  C   UNL     1      -3.794   3.182  26.273  0.00  0.00    +0.119 C 
ATOM     11  C   UNL     1      -4.606   3.492  24.030  0.00  0.00    +0.108 C 
ATOM     13  C   UNL     1      -5.966   2.125  25.680  0.00  0.00    +0.212 C 
ATOM     17  C   UNL     1      -6.982   1.911  24.586  0.00  0.00    +0.109 C 
ENDBRANCH  12   8
BRANCH  19  21
ATOM      1  F   UNL     1       3.363   0.303  21.377  0.00  0.00    -0.166 F 
ATOM      2  F   UNL     1       4.262   1.155  23.164  0.00  0.00    -0.166 F 
ATOM      3  F   UNL     1       3.823  -0.968  23.080  0.00  0.00    -0.166 F 
ATOM     21  C   UNL     1       3.325   0.257  22.740  0.00  0.00    +0.417 C 
ENDBRANCH  19  21
TORSDOF 2
ENDMDL
MODEL 2
REMARK VINA RESULT:      -2.7      4.792      7.785
REMARK  Name = 45784059
REMARK  3 active torsions:
REMARK  status: ('A' for Active; 'I' for Inactive)
REMARK    1  A    between atoms: C_8  and  C_12
REMARK    2  A    between atoms: C_13  and  C_17
REMARK    3  A    between atoms: C_19  and  C_21
REMARK                            x       y       z     vdW  Elec       q    Type
REMARK                         _______ _______ _______ _____ _____    ______ ____
ROOT
ATOM      6  N   UNL     1      -0.546   0.379  23.277  0.00  0.00    -0.342 N 
ATOM      7  N   UNL     1       1.196   1.369  24.238  0.00  0.00    -0.232 NA
ATOM     12  C   UNL     1       0.812   0.411  23.424  0.00  0.00    +0.113 A 
ATOM     14  C   UNL     1      -1.075   1.384  24.047  0.00  0.00    +0.067 A 
ATOM     15  C   UNL     1       0.033   1.987  24.637  0.00  0.00    +0.089 A 
ATOM     16  C   UNL     1      -2.385   1.802  24.272  0.00  0.00    +0.040 A 
ATOM     18  C   UNL     1      -0.160   3.074  25.504  0.00  0.00    +0.030 A 
ATOM     19  C   UNL     1      -2.561   2.886  25.138  0.00  0.00    +0.057 A 
ATOM     20  C   UNL     1      -1.469   3.513  25.744  0.00  0.00    +0.014 A 
ATOM     22  H   UNL     1      -1.071  -0.268  22.702  0.00  0.00    +0.167 HD
ENDROOT
BRANCH  12   8
ATOM      4  O   UNL     1       5.390  -1.016  24.883  0.00  0.00    -0.276 OA
ATOM      5  N   UNL     1       4.008  -0.241  23.201  0.00  0.00    -0.301 N 
ATOM      8  C   UNL     1       1.708  -0.579  22.700  0.00  0.00    +0.074 C 
ATOM      9  C   UNL     1       2.408   0.069  21.494  0.00  0.00    +0.032 C 
ATOM     10  C   UNL     1       2.896  -1.138  23.493  0.00  0.00    +0.119 C 
ATOM     11  C   UNL     1       3.700   0.632  22.076  0.00  0.00    +0.108 C 
ATOM     13  C   UNL     1       5.179  -0.255  23.938  0.00  0.00    +0.212 C 
ATOM     17  C   UNL     1       6.227   0.741  23.510  0.00  0.00    +0.109 C 
ENDBRANCH  12   8
BRANCH  19  21
ATOM      1  F   UNL     1      -3.988   4.217  26.498  0.00  0.00    -0.166 F 
ATOM      2  F   UNL     1      -4.489   4.086  24.386  0.00  0.00    -0.166 F 
ATOM      3  F   UNL     1      -4.834   2.386  25.688  0.00  0.00    -0.166 F 
ATOM     21  C   UNL     1      -3.941   3.382  25.420  0.00  0.00    +0.417 C 
ENDBRANCH  19  21
TORSDOF 2
ENDMDL
MODEL 3
REMARK VINA RESULT:      -2.5      4.640      7.585
REMARK  Name = 45784059
REMARK  3 active torsions:
REMARK  status: ('A' for Active; 'I' for Inactive)
REMARK    1  A    between atoms: C_8  and  C_12
REMARK    2  A    between atoms: C_13  and  C_17
REMARK    3  A    between atoms: C_19  and  C_21
REMARK                            x       y       z     vdW  Elec       q    Type
REMARK                         _______ _______ _______ _____ _____    ______ ____
ROOT
ATOM      6  N   UNL     1       1.048   1.328  23.388  0.00  0.00    -0.342 N 
ATOM      7  N   UNL     1       0.004  -0.591  23.797  0.00  0.00    -0.232 NA
ATOM     12  C   UNL     1       1.059  -0.031  23.247  0.00  0.00    +0.113 A 
ATOM     14  C   UNL     1      -0.090   1.669  24.075  0.00  0.00    +0.067 A 
ATOM     15  C   UNL     1      -0.724   0.454  24.318  0.00  0.00    +0.089 A 
ATOM     16  C   UNL     1      -0.602   2.897  24.491  0.00  0.00    +0.040 A 
ATOM     18  C   UNL     1      -1.942   0.445  25.017  0.00  0.00    +0.030 A 
ATOM     19  C   UNL     1      -1.816   2.871  25.185  0.00  0.00    +0.057 A 
ATOM     20  C   UNL     1      -2.475   1.668  25.445  0.00  0.00    +0.014 A 
ATOM     22  H   UNL     1       1.753   1.970  23.050  0.00  0.00    +0.167 HD
ENDROOT
BRANCH  12   8
ATOM      4  O   UNL     1       5.649  -0.853  25.084  0.00  0.00    -0.276 OA
ATOM      5  N   UNL     1       4.326  -0.092  23.349  0.00  0.00    -0.301 N 
ATOM      8  C   UNL     1       2.192  -0.741  22.526  0.00  0.00    +0.074 C 
ATOM      9  C   UNL     1       2.878   0.181  21.506  0.00  0.00    +0.032 C 
ATOM     10  C   UNL     1       3.375  -1.197  23.388  0.00  0.00    +0.119 C 
ATOM     11  C   UNL     1       3.977   0.867  22.309  0.00  0.00    +0.108 C 
ATOM     13  C   UNL     1       5.398  -0.011  24.220  0.00  0.00    +0.212 C 
ATOM     17  C   UNL     1       6.282   1.199  24.051  0.00  0.00    +0.109 C 
ENDBRANCH  12   8
BRANCH  19  21
ATOM      1  F   UNL     1      -3.532   4.501  24.952  0.00  0.00    -0.166 F 
ATOM      2  F   UNL     1      -2.802   4.128  26.966  0.00  0.00    -0.166 F 
ATOM      3  F   UNL     1      -1.572   5.222  25.554  0.00  0.00    -0.166 F 
ATOM     21  C   UNL     1      -2.416   4.154  25.657  0.00  0.00    +0.417 C 
ENDBRANCH  19  21
TORSDOF 2
ENDMDL
MODEL 4
REMARK VINA RESULT:      -2.0      1.908      3.006
REMARK  Name = 45784059
REMARK  3 active torsions:
REMARK  status: ('A' for Active; 'I' for Inactive)
REMARK    1  A    between atoms: C_8  and  C_12
REMARK    2  A    between atoms: C_13  and  C_17
REMARK    3  A    between atoms: C_19  and  C_21
REMARK                            x       y       z     vdW  Elec       q    Type
REMARK                         _______ _______ _______ _____ _____    ______ ____
ROOT
ATOM      6  N   UNL     1      -0.777  -1.215  23.696  0.00  0.00    -0.342 N 
ATOM      7  N   UNL     1      -1.563   0.774  24.300  0.00  0.00    -0.232 NA
ATOM     12  C   UNL     1      -1.856  -0.495  24.125  0.00  0.00    +0.113 A 
ATOM     14  C   UNL     1       0.285  -0.353  23.587  0.00  0.00    +0.067 A 
ATOM     15  C   UNL     1      -0.232   0.882  23.969  0.00  0.00    +0.089 A 
ATOM     16  C   UNL     1       1.610  -0.542  23.198  0.00  0.00    +0.040 A 
ATOM     18  C   UNL     1       0.611   2.006  23.970  0.00  0.00    +0.030 A 
ATOM     19  C   UNL     1       2.436   0.586  23.204  0.00  0.00    +0.057 A 
ATOM     20  C   UNL     1       1.947   1.839  23.583  0.00  0.00    +0.014 A 
ATOM     22  H   UNL     1      -0.760  -2.207  23.497  0.00  0.00    +0.167 HD
ENDROOT
BRANCH  12   8
ATOM      4  O   UNL     1      -6.282   1.854  24.269  0.00  0.00    -0.276 OA
ATOM      5  N   UNL     1      -4.808   0.361  25.239  0.00  0.00    -0.301 N 
ATOM      8  C   UNL     1      -3.206  -1.154  24.350  0.00  0.00    +0.074 C 
ATOM      9  C   UNL     1      -3.442  -1.468  25.836  0.00  0.00    +0.032 C 
ATOM     10  C   UNL     1      -4.445  -0.319  24.002  0.00  0.00    +0.119 C 
ATOM     11  C   UNL     1      -4.100  -0.205  26.380  0.00  0.00    +0.108 C 
ATOM     13  C   UNL     1      -5.708   1.412  25.266  0.00  0.00    +0.212 C 
ATOM     17  C   UNL     1      -5.969   2.009  26.626  0.00  0.00    +0.109 C 
ENDBRANCH  12   8
BRANCH  19  21
ATOM      1  F   UNL     1       4.377  -0.783  23.088  0.00  0.00    -0.166 F 
ATOM      2  F   UNL     1       4.073   0.629  21.461  0.00  0.00    -0.166 F 
ATOM      3  F   UNL     1       4.696   1.343  23.412  0.00  0.00    -0.166 F 
ATOM     21  C   UNL     1       3.866   0.449  22.798  0.00  0.00    +0.417 C 
ENDBRANCH  19  21
TORSDOF 2
ENDMDL
MODEL 5
REMARK VINA RESULT:      -0.4      2.093      3.294
REMARK  Name = 45784059
REMARK  3 active torsions:
REMARK  status: ('A' for Active; 'I' for Inactive)
REMARK    1  A    between atoms: C_8  and  C_12
REMARK    2  A    between atoms: C_13  and  C_17
REMARK    3  A    between atoms: C_19  and  C_21
REMARK                            x       y       z     vdW  Elec       q    Type
REMARK                         _______ _______ _______ _____ _____    ______ ____
ROOT
ATOM      6  N   UNL     1       0.235  -0.990  23.939  0.00  0.00    -0.342 N 
ATOM      7  N   UNL     1      -0.074   1.086  23.209  0.00  0.00    -0.232 NA
ATOM     12  C   UNL     1      -0.665  -0.011  23.629  0.00  0.00    +0.113 A 
ATOM     14  C   UNL     1       1.492  -0.494  23.704  0.00  0.00    +0.067 A 
ATOM     15  C   UNL     1       1.272   0.803  23.248  0.00  0.00    +0.089 A 
ATOM     16  C   UNL     1       2.763  -1.051  23.845  0.00  0.00    +0.040 A 
ATOM     18  C   UNL     1       2.373   1.607  22.911  0.00  0.00    +0.030 A 
ATOM     19  C   UNL     1       3.849  -0.238  23.504  0.00  0.00    +0.057 A 
ATOM     20  C   UNL     1       3.659   1.068  23.045  0.00  0.00    +0.014 A 
ATOM     22  H   UNL     1       0.017  -1.916  24.283  0.00  0.00    +0.167 HD
ENDROOT
BRANCH  12   8
ATOM      4  O   UNL     1      -4.209   3.522  23.348  0.00  0.00    -0.276 OA
ATOM      5  N   UNL     1      -3.299   1.727  24.484  0.00  0.00    -0.301 N 
ATOM      8  C   UNL     1      -2.160  -0.237  23.777  0.00  0.00    +0.074 C 
ATOM      9  C   UNL     1      -2.567  -0.380  25.252  0.00  0.00    +0.032 C 
ATOM     10  C   UNL     1      -3.076   0.899  23.305  0.00  0.00    +0.119 C 
ATOM     11  C   UNL     1      -2.858   1.049  25.696  0.00  0.00    +0.108 C 
ATOM     13  C   UNL     1      -3.852   2.993  24.402  0.00  0.00    +0.212 C 
ATOM     17  C   UNL     1      -4.008   3.720  25.714  0.00  0.00    +0.109 C 
ENDBRANCH  12   8
BRANCH  19  21
ATOM      1  F   UNL     1       5.274  -2.140  23.585  0.00  0.00    -0.166 F 
ATOM      2  F   UNL     1       6.080  -0.349  22.651  0.00  0.00    -0.166 F 
ATOM      3  F   UNL     1       5.846  -0.433  24.805  0.00  0.00    -0.166 F 
ATOM     21  C   UNL     1       5.235  -0.777  23.633  0.00  0.00    +0.417 C 
ENDBRANCH  19  21
TORSDOF 2
ENDMDL
MODEL 6
REMARK VINA RESULT:      -0.3      2.432      2.992
REMARK  Name = 45784059
REMARK  3 active torsions:
REMARK  status: ('A' for Active; 'I' for Inactive)
REMARK    1  A    between atoms: C_8  and  C_12
REMARK    2  A    between atoms: C_13  and  C_17
REMARK    3  A    between atoms: C_19  and  C_21
REMARK                            x       y       z     vdW  Elec       q    Type
REMARK                         _______ _______ _______ _____ _____    ______ ____
ROOT
ATOM      6  N   UNL     1       0.817   1.606  24.443  0.00  0.00    -0.342 N 
ATOM      7  N   UNL     1      -0.064   0.616  22.660  0.00  0.00    -0.232 NA
ATOM     12  C   UNL     1      -0.317   1.334  23.732  0.00  0.00    +0.113 A 
ATOM     14  C   UNL     1       1.873   1.026  23.787  0.00  0.00    +0.067 A 
ATOM     15  C   UNL     1       1.296   0.414  22.678  0.00  0.00    +0.089 A 
ATOM     16  C   UNL     1       3.240   0.985  24.061  0.00  0.00    +0.040 A 
ATOM     18  C   UNL     1       2.118  -0.284  21.777  0.00  0.00    +0.030 A 
ATOM     19  C   UNL     1       4.043   0.286  23.155  0.00  0.00    +0.057 A 
ATOM     20  C   UNL     1       3.494  -0.339  22.032  0.00  0.00    +0.014 A 
ATOM     22  H   UNL     1       0.872   2.143  25.299  0.00  0.00    +0.167 HD
ENDROOT
BRANCH  12   8
ATOM      4  O   UNL     1      -3.750  -1.344  26.216  0.00  0.00    -0.276 OA
ATOM      5  N   UNL     1      -3.242   0.067  24.457  0.00  0.00    -0.301 N 
ATOM      8  C   UNL     1      -1.676   1.835  24.189  0.00  0.00    +0.074 C 
ATOM      9  C   UNL     1      -2.687   1.864  23.033  0.00  0.00    +0.032 C 
ATOM     10  C   UNL     1      -2.408   0.979  25.230  0.00  0.00    +0.119 C 
ATOM     11  C   UNL     1      -3.321   0.478  23.061  0.00  0.00    +0.108 C 
ATOM     13  C   UNL     1      -3.848  -1.040  25.026  0.00  0.00    +0.212 C 
ATOM     17  C   UNL     1      -4.671  -1.885  24.086  0.00  0.00    +0.109 C 
ENDBRANCH  12   8
BRANCH  19  21
ATOM      1  F   UNL     1       5.837  -0.659  24.398  0.00  0.00    -0.166 F 
ATOM      2  F   UNL     1       6.221  -0.217  22.304  0.00  0.00    -0.166 F 
ATOM      3  F   UNL     1       6.077   1.399  23.742  0.00  0.00    -0.166 F 
ATOM     21  C   UNL     1       5.515   0.205  23.393  0.00  0.00    +0.417 C 
ENDBRANCH  19  21
TORSDOF 2
ENDMDL
MODEL 7
REMARK VINA RESULT:      -0.1      4.902      7.716
REMARK  Name = 45784059
REMARK  3 active torsions:
REMARK  status: ('A' for Active; 'I' for Inactive)
REMARK    1  A    between atoms: C_8  and  C_12
REMARK    2  A    between atoms: C_13  and  C_17
REMARK    3  A    between atoms: C_19  and  C_21
REMARK                            x       y       z     vdW  Elec       q    Type
REMARK                         _______ _______ _______ _____ _____    ______ ____
ROOT
ATOM      6  N   UNL     1      -0.096   1.019  22.585  0.00  0.00    -0.342 N 
ATOM      7  N   UNL     1       0.540  -0.652  23.905  0.00  0.00    -0.232 NA
ATOM     12  C   UNL     1       0.846   0.065  22.847  0.00  0.00    +0.113 A 
ATOM     14  C   UNL     1      -1.077   0.912  23.539  0.00  0.00    +0.067 A 
ATOM     15  C   UNL     1      -0.657  -0.138  24.350  0.00  0.00    +0.089 A 
ATOM     16  C   UNL     1      -2.258   1.621  23.753  0.00  0.00    +0.040 A 
ATOM     18  C   UNL     1      -1.450  -0.516  25.446  0.00  0.00    +0.030 A 
ATOM     19  C   UNL     1      -3.036   1.232  24.848  0.00  0.00    +0.057 A 
ATOM     20  C   UNL     1      -2.641   0.182  25.681  0.00  0.00    +0.014 A 
ATOM     22  H   UNL     1      -0.075   1.688  21.826  0.00  0.00    +0.167 HD
ENDROOT
BRANCH  12   8
ATOM      4  O   UNL     1       5.048  -2.367  24.093  0.00  0.00    -0.276 OA
ATOM      5  N   UNL     1       4.047  -0.462  23.249  0.00  0.00    -0.301 N 
ATOM      8  C   UNL     1       2.078  -0.090  21.971  0.00  0.00    +0.074 C 
ATOM      9  C   UNL     1       2.938   1.184  21.974  0.00  0.00    +0.032 C 
ATOM     10  C   UNL     1       3.092  -1.159  22.396  0.00  0.00    +0.119 C 
ATOM     11  C   UNL     1       3.891   0.983  23.146  0.00  0.00    +0.108 C 
ATOM     13  C   UNL     1       4.956  -1.139  24.043  0.00  0.00    +0.212 C 
ATOM     17  C   UNL     1       5.869  -0.271  24.871  0.00  0.00    +0.109 C 
ENDBRANCH  12   8
BRANCH  19  21
ATOM      1  F   UNL     1      -5.250   1.149  25.713  0.00  0.00    -0.166 F 
ATOM      2  F   UNL     1      -4.165   3.016  25.973  0.00  0.00    -0.166 F 
ATOM      3  F   UNL     1      -4.911   2.462  24.014  0.00  0.00    -0.166 F 
ATOM     21  C   UNL     1      -4.313   1.952  25.131  0.00  0.00    +0.417 C 
ENDBRANCH  19  21
TORSDOF 2
ENDMDL
