MODEL 1
REMARK VINA RESULT:       4.8      0.000      0.000
REMARK  Name = 26743300
REMARK  10 active torsions:
REMARK  status: ('A' for Active; 'I' for Inactive)
REMARK    1  A    between atoms: N_5  and  C_22
REMARK    2  A    between atoms: C_7  and  C_11
REMARK    3  A    between atoms: C_8  and  C_13
REMARK    4  A    between atoms: C_11  and  C_14
REMARK    5  A    between atoms: C_13  and  C_15
REMARK    6  A    between atoms: C_21  and  C_23
REMARK    7  A    between atoms: C_24  and  C_25
REMARK    8  A    between atoms: C_24  and  C_30
REMARK    9  A    between atoms: C_24  and  C_31
REMARK   10  A    between atoms: C_24  and  C_32
REMARK                            x       y       z     vdW  Elec       q    Type
REMARK                         _______ _______ _______ _____ _____    ______ ____
ROOT
ATOM      3  N   UNL     1      -6.465   2.942  26.495  0.00  0.00    -0.316 NA
ATOM      7  C   UNL     1      -4.253   1.434  25.254  0.00  0.00    +0.004 C 
ATOM      8  C   UNL     1      -4.354   2.976  25.189  0.00  0.00    +0.012 C 
ATOM      9  C   UNL     1      -5.028   0.932  26.484  0.00  0.00    +0.019 C 
ATOM     10  C   UNL     1      -5.812   3.456  25.292  0.00  0.00    +0.085 C 
ATOM     12  C   UNL     1      -6.454   1.482  26.539  0.00  0.00    +0.081 C 
ATOM     33  H   UNL     1      -7.429   3.272  26.524  0.00  0.00    +0.122 HD
ENDROOT
BRANCH   7  11
ATOM     11  C   UNL     1      -4.729   0.723  23.981  0.00  0.00    +0.100 C 
BRANCH  11  14
ATOM      1  O   UNL     1      -5.367  -1.527  23.598  0.00  0.00    -0.276 OA
ATOM      4  N   UNL     1      -3.449  -1.193  24.865  0.00  0.00    -0.299 N 
ATOM      5  N   UNL     1      -0.866  -2.138  25.665  0.00  0.00    -0.302 NA
ATOM     14  C   UNL     1      -4.552  -0.767  24.127  0.00  0.00    +0.216 C 
ATOM     16  C   UNL     1      -3.205  -2.623  25.049  0.00  0.00    +0.123 C 
ATOM     17  C   UNL     1      -2.541  -0.321  25.614  0.00  0.00    +0.123 C 
ATOM     18  C   UNL     1      -1.734  -2.970  24.818  0.00  0.00    +0.103 C 
ATOM     19  C   UNL     1      -1.081  -0.713  25.378  0.00  0.00    +0.103 C 
ATOM     22  C   UNL     1       0.539  -2.496  25.466  0.00  0.00    +0.105 C 
ENDBRANCH  11  14
ENDBRANCH   7  11
BRANCH   8  13
ATOM     13  C   UNL     1      -3.680   3.569  23.950  0.00  0.00    +0.064 C 
BRANCH  13  15
ATOM      2  O   UNL     1      -1.375   1.318  22.344  0.00  0.00    -0.354 OA
ATOM      6  N   UNL     1      -2.622   1.919  22.469  0.00  0.00    -0.083 NA
ATOM     15  C   UNL     1      -2.506   2.740  23.516  0.00  0.00    +0.085 A 
ATOM     20  C   UNL     1      -1.222   2.700  24.087  0.00  0.00    +0.076 A 
ATOM     21  C   UNL     1      -0.550   1.791  23.313  0.00  0.00    +0.167 A 
BRANCH  21  23
ATOM     23  C   UNL     1       0.781   1.257  23.311  0.00  0.00    +0.020 A 
ATOM     25  C   UNL     1       3.370   0.220  23.304  0.00  0.00    -0.042 A 
ATOM     26  C   UNL     1       0.987  -0.101  23.069  0.00  0.00    +0.012 A 
ATOM     27  C   UNL     1       1.868   2.096  23.550  0.00  0.00    +0.012 A 
ATOM     28  C   UNL     1       2.282  -0.619  23.065  0.00  0.00    +0.005 A 
ATOM     29  C   UNL     1       3.164   1.578  23.547  0.00  0.00    +0.005 A 
BRANCH  25  24
ATOM     24  C   UNL     1       4.755  -0.335  23.302  0.00  0.00    -0.013 C 
ATOM     30  C   UNL     1       5.385  -0.274  21.875  0.00  0.00    +0.015 C 
ATOM     31  C   UNL     1       4.768  -1.827  23.759  0.00  0.00    +0.015 C 
ATOM     32  C   UNL     1       5.773   0.397  24.238  0.00  0.00    +0.015 C 
ENDBRANCH  25  24
ENDBRANCH  21  23
ENDBRANCH  13  15
ENDBRANCH   8  13
TORSDOF 6
ENDMDL
MODEL 2
REMARK VINA RESULT:       6.6      0.868      1.190
REMARK  Name = 26743300
REMARK  10 active torsions:
REMARK  status: ('A' for Active; 'I' for Inactive)
REMARK    1  A    between atoms: N_5  and  C_22
REMARK    2  A    between atoms: C_7  and  C_11
REMARK    3  A    between atoms: C_8  and  C_13
REMARK    4  A    between atoms: C_11  and  C_14
REMARK    5  A    between atoms: C_13  and  C_15
REMARK    6  A    between atoms: C_21  and  C_23
REMARK    7  A    between atoms: C_24  and  C_25
REMARK    8  A    between atoms: C_24  and  C_30
REMARK    9  A    between atoms: C_24  and  C_31
REMARK   10  A    between atoms: C_24  and  C_32
REMARK                            x       y       z     vdW  Elec       q    Type
REMARK                         _______ _______ _______ _____ _____    ______ ____
ROOT
ATOM      3  N   UNL     1      -6.270   2.988  26.131  0.00  0.00    -0.316 NA
ATOM      7  C   UNL     1      -4.571   0.779  25.162  0.00  0.00    +0.004 C 
ATOM      8  C   UNL     1      -4.344   2.252  24.747  0.00  0.00    +0.012 C 
ATOM      9  C   UNL     1      -5.307   0.746  26.512  0.00  0.00    +0.019 C 
ATOM     10  C   UNL     1      -5.647   3.067  24.809  0.00  0.00    +0.085 C 
ATOM     12  C   UNL     1      -6.568   1.610  26.511  0.00  0.00    +0.081 C 
ATOM     33  H   UNL     1      -7.132   3.532  26.130  0.00  0.00    +0.122 HD
ENDROOT
BRANCH   7  11
ATOM     11  C   UNL     1      -5.316  -0.058  24.114  0.00  0.00    +0.100 C 
BRANCH  11  14
ATOM      1  O   UNL     1      -5.163  -2.247  23.218  0.00  0.00    -0.276 OA
ATOM      4  N   UNL     1      -3.563  -1.657  24.796  0.00  0.00    -0.299 N 
ATOM      5  N   UNL     1      -0.887  -1.949  25.775  0.00  0.00    -0.302 NA
ATOM     14  C   UNL     1      -4.681  -1.420  23.998  0.00  0.00    +0.216 C 
ATOM     16  C   UNL     1      -2.888  -2.952  24.738  0.00  0.00    +0.123 C 
ATOM     17  C   UNL     1      -3.048  -0.749  25.825  0.00  0.00    +0.123 C 
ATOM     18  C   UNL     1      -1.370  -2.785  24.666  0.00  0.00    +0.103 C 
ATOM     19  C   UNL     1      -1.525  -0.625  25.738  0.00  0.00    +0.103 C 
ATOM     22  C   UNL     1       0.569  -1.819  25.723  0.00  0.00    +0.105 C 
ENDBRANCH  11  14
ENDBRANCH   7  11
BRANCH   8  13
ATOM     13  C   UNL     1      -3.688   2.393  23.373  0.00  0.00    +0.064 C 
BRANCH  13  15
ATOM      2  O   UNL     1      -0.177   3.049  23.822  0.00  0.00    -0.354 OA
ATOM      6  N   UNL     1      -1.512   3.438  23.828  0.00  0.00    -0.083 NA
ATOM     15  C   UNL     1      -2.191   2.344  23.473  0.00  0.00    +0.085 A 
ATOM     20  C   UNL     1      -1.347   1.245  23.234  0.00  0.00    +0.076 A 
ATOM     21  C   UNL     1      -0.092   1.742  23.466  0.00  0.00    +0.167 A 
BRANCH  21  23
ATOM     23  C   UNL     1       1.233   1.196  23.417  0.00  0.00    +0.020 A 
ATOM     25  C   UNL     1       3.810   0.134  23.316  0.00  0.00    -0.042 A 
ATOM     26  C   UNL     1       1.416  -0.183  23.308  0.00  0.00    +0.012 A 
ATOM     27  C   UNL     1       2.339   2.044  23.475  0.00  0.00    +0.012 A 
ATOM     28  C   UNL     1       2.705  -0.713  23.258  0.00  0.00    +0.005 A 
ATOM     29  C   UNL     1       3.629   1.513  23.426  0.00  0.00    +0.005 A 
BRANCH  25  24
ATOM     24  C   UNL     1       5.189  -0.434  23.265  0.00  0.00    -0.013 C 
ATOM     30  C   UNL     1       5.225  -1.880  23.849  0.00  0.00    +0.015 C 
ATOM     31  C   UNL     1       6.190   0.433  24.089  0.00  0.00    +0.015 C 
ATOM     32  C   UNL     1       5.815  -0.547  21.835  0.00  0.00    +0.015 C 
ENDBRANCH  25  24
ENDBRANCH  21  23
ENDBRANCH  13  15
ENDBRANCH   8  13
TORSDOF 6
ENDMDL
MODEL 3
REMARK VINA RESULT:       6.8      2.388      3.692
REMARK  Name = 26743300
REMARK  10 active torsions:
REMARK  status: ('A' for Active; 'I' for Inactive)
REMARK    1  A    between atoms: N_5  and  C_22
REMARK    2  A    between atoms: C_7  and  C_11
REMARK    3  A    between atoms: C_8  and  C_13
REMARK    4  A    between atoms: C_11  and  C_14
REMARK    5  A    between atoms: C_13  and  C_15
REMARK    6  A    between atoms: C_21  and  C_23
REMARK    7  A    between atoms: C_24  and  C_25
REMARK    8  A    between atoms: C_24  and  C_30
REMARK    9  A    between atoms: C_24  and  C_31
REMARK   10  A    between atoms: C_24  and  C_32
REMARK                            x       y       z     vdW  Elec       q    Type
REMARK                         _______ _______ _______ _____ _____    ______ ____
ROOT
ATOM      3  N   UNL     1      -6.607   3.176  25.673  0.00  0.00    -0.316 NA
ATOM      7  C   UNL     1      -3.814   3.054  24.730  0.00  0.00    +0.004 C 
ATOM      8  C   UNL     1      -4.836   1.923  24.466  0.00  0.00    +0.012 C 
ATOM      9  C   UNL     1      -4.572   4.374  24.948  0.00  0.00    +0.019 C 
ATOM     10  C   UNL     1      -5.933   1.884  25.544  0.00  0.00    +0.085 C 
ATOM     12  C   UNL     1      -5.672   4.248  26.003  0.00  0.00    +0.081 C 
ATOM     33  H   UNL     1      -7.319   3.114  26.401  0.00  0.00    +0.122 HD
ENDROOT
BRANCH   7  11
ATOM     11  C   UNL     1      -2.860   2.774  25.897  0.00  0.00    +0.100 C 
BRANCH  11  14
ATOM      1  O   UNL     1      -1.353   4.150  24.691  0.00  0.00    -0.276 OA
ATOM      4  N   UNL     1      -0.428   2.771  26.315  0.00  0.00    -0.299 N 
ATOM      5  N   UNL     1       1.632   2.345  28.260  0.00  0.00    -0.302 NA
ATOM     14  C   UNL     1      -1.484   3.297  25.574  0.00  0.00    +0.216 C 
ATOM     16  C   UNL     1       0.938   3.230  26.065  0.00  0.00    +0.123 C 
ATOM     17  C   UNL     1      -0.530   1.666  27.273  0.00  0.00    +0.123 C 
ATOM     18  C   UNL     1       1.677   3.515  27.372  0.00  0.00    +0.103 C 
ATOM     19  C   UNL     1       0.241   1.977  28.558  0.00  0.00    +0.103 C 
ATOM     22  C   UNL     1       2.369   2.610  29.496  0.00  0.00    +0.105 C 
ENDBRANCH  11  14
ENDBRANCH   7  11
BRANCH   8  13
ATOM     13  C   UNL     1      -4.183   0.548  24.316  0.00  0.00    +0.064 C 
BRANCH  13  15
ATOM      2  O   UNL     1      -1.097   1.321  22.629  0.00  0.00    -0.354 OA
ATOM      6  N   UNL     1      -2.473   1.439  22.793  0.00  0.00    -0.083 NA
ATOM     15  C   UNL     1      -2.763   0.666  23.843  0.00  0.00    +0.085 A 
ATOM     20  C   UNL     1      -1.623   0.042  24.378  0.00  0.00    +0.076 A 
ATOM     21  C   UNL     1      -0.603   0.487  23.579  0.00  0.00    +0.167 A 
BRANCH  21  23
ATOM     23  C   UNL     1       0.813   0.267  23.536  0.00  0.00    +0.020 A 
ATOM     25  C   UNL     1       3.569  -0.159  23.457  0.00  0.00    -0.042 A 
ATOM     26  C   UNL     1       1.673   1.319  23.219  0.00  0.00    +0.012 A 
ATOM     27  C   UNL     1       1.332  -0.997  23.813  0.00  0.00    +0.012 A 
ATOM     28  C   UNL     1       3.051   1.105  23.179  0.00  0.00    +0.005 A 
ATOM     29  C   UNL     1       2.710  -1.212  23.773  0.00  0.00    +0.005 A 
BRANCH  25  24
ATOM     24  C   UNL     1       5.042  -0.387  23.412  0.00  0.00    -0.013 C 
ATOM     30  C   UNL     1       5.400  -1.849  23.824  0.00  0.00    +0.015 C 
ATOM     31  C   UNL     1       5.794   0.573  24.386  0.00  0.00    +0.015 C 
ATOM     32  C   UNL     1       5.713  -0.173  22.014  0.00  0.00    +0.015 C 
ENDBRANCH  25  24
ENDBRANCH  21  23
ENDBRANCH  13  15
ENDBRANCH   8  13
TORSDOF 6
ENDMDL
MODEL 4
REMARK VINA RESULT:       7.8      1.529      2.290
REMARK  Name = 26743300
REMARK  10 active torsions:
REMARK  status: ('A' for Active; 'I' for Inactive)
REMARK    1  A    between atoms: N_5  and  C_22
REMARK    2  A    between atoms: C_7  and  C_11
REMARK    3  A    between atoms: C_8  and  C_13
REMARK    4  A    between atoms: C_11  and  C_14
REMARK    5  A    between atoms: C_13  and  C_15
REMARK    6  A    between atoms: C_21  and  C_23
REMARK    7  A    between atoms: C_24  and  C_25
REMARK    8  A    between atoms: C_24  and  C_30
REMARK    9  A    between atoms: C_24  and  C_31
REMARK   10  A    between atoms: C_24  and  C_32
REMARK                            x       y       z     vdW  Elec       q    Type
REMARK                         _______ _______ _______ _____ _____    ______ ____
ROOT
ATOM      3  N   UNL     1      -5.060   4.990  25.994  0.00  0.00    -0.316 NA
ATOM      7  C   UNL     1      -2.990   2.963  25.436  0.00  0.00    +0.004 C 
ATOM      8  C   UNL     1      -3.632   3.830  24.327  0.00  0.00    +0.012 C 
ATOM      9  C   UNL     1      -3.104   3.702  26.779  0.00  0.00    +0.019 C 
ATOM     10  C   UNL     1      -5.049   4.286  24.711  0.00  0.00    +0.085 C 
ATOM     12  C   UNL     1      -4.532   4.160  27.074  0.00  0.00    +0.081 C 
ATOM     33  H   UNL     1      -6.015   5.268  26.219  0.00  0.00    +0.122 HD
ENDROOT
BRANCH   7  11
ATOM     11  C   UNL     1      -3.574   1.548  25.539  0.00  0.00    +0.100 C 
BRANCH  11  14
ATOM      1  O   UNL     1      -1.428   0.722  26.114  0.00  0.00    -0.276 OA
ATOM      4  N   UNL     1      -2.699  -0.594  24.682  0.00  0.00    -0.299 N 
ATOM      5  N   UNL     1      -3.378  -3.215  23.745  0.00  0.00    -0.302 NA
ATOM     14  C   UNL     1      -2.467   0.528  25.475  0.00  0.00    +0.216 C 
ATOM     16  C   UNL     1      -1.675  -1.632  24.571  0.00  0.00    +0.123 C 
ATOM     17  C   UNL     1      -3.860  -0.791  23.810  0.00  0.00    +0.123 C 
ATOM     18  C   UNL     1      -2.282  -3.029  24.708  0.00  0.00    +0.103 C 
ATOM     19  C   UNL     1      -4.425  -2.206  23.956  0.00  0.00    +0.103 C 
ATOM     22  C   UNL     1      -3.934  -4.564  23.856  0.00  0.00    +0.105 C 
ENDBRANCH  11  14
ENDBRANCH   7  11
BRANCH   8  13
ATOM     13  C   UNL     1      -3.641   3.144  22.960  0.00  0.00    +0.064 C 
BRANCH  13  15
ATOM      2  O   UNL     1      -1.176   0.711  21.977  0.00  0.00    -0.354 OA
ATOM      6  N   UNL     1      -2.451   1.263  21.920  0.00  0.00    -0.083 NA
ATOM     15  C   UNL     1      -2.416   2.298  22.763  0.00  0.00    +0.085 A 
ATOM     20  C   UNL     1      -1.159   2.448  23.374  0.00  0.00    +0.076 A 
ATOM     21  C   UNL     1      -0.417   1.425  22.846  0.00  0.00    +0.167 A 
BRANCH  21  23
ATOM     23  C   UNL     1       0.933   0.970  23.010  0.00  0.00    +0.020 A 
ATOM     25  C   UNL     1       3.559   0.087  23.333  0.00  0.00    -0.042 A 
ATOM     26  C   UNL     1       1.972   1.895  23.118  0.00  0.00    +0.012 A 
ATOM     27  C   UNL     1       1.207  -0.396  23.064  0.00  0.00    +0.012 A 
ATOM     28  C   UNL     1       3.285   1.453  23.280  0.00  0.00    +0.005 A 
ATOM     29  C   UNL     1       2.521  -0.839  23.225  0.00  0.00    +0.005 A 
BRANCH  25  24
ATOM     24  C   UNL     1       4.963  -0.386  23.504  0.00  0.00    -0.013 C 
ATOM     30  C   UNL     1       5.780  -0.218  22.185  0.00  0.00    +0.015 C 
ATOM     31  C   UNL     1       5.010  -1.895  23.898  0.00  0.00    +0.015 C 
ATOM     32  C   UNL     1       5.793   0.357  24.604  0.00  0.00    +0.015 C 
ENDBRANCH  25  24
ENDBRANCH  21  23
ENDBRANCH  13  15
ENDBRANCH   8  13
TORSDOF 6
ENDMDL
MODEL 5
REMARK VINA RESULT:       8.3      2.006      3.579
REMARK  Name = 26743300
REMARK  10 active torsions:
REMARK  status: ('A' for Active; 'I' for Inactive)
REMARK    1  A    between atoms: N_5  and  C_22
REMARK    2  A    between atoms: C_7  and  C_11
REMARK    3  A    between atoms: C_8  and  C_13
REMARK    4  A    between atoms: C_11  and  C_14
REMARK    5  A    between atoms: C_13  and  C_15
REMARK    6  A    between atoms: C_21  and  C_23
REMARK    7  A    between atoms: C_24  and  C_25
REMARK    8  A    between atoms: C_24  and  C_30
REMARK    9  A    between atoms: C_24  and  C_31
REMARK   10  A    between atoms: C_24  and  C_32
REMARK                            x       y       z     vdW  Elec       q    Type
REMARK                         _______ _______ _______ _____ _____    ______ ____
ROOT
ATOM      3  N   UNL     1      -4.703   1.129  26.741  0.00  0.00    -0.316 NA
ATOM      7  C   UNL     1      -5.278   1.352  23.855  0.00  0.00    +0.004 C 
ATOM      8  C   UNL     1      -5.021  -0.004  24.554  0.00  0.00    +0.012 C 
ATOM      9  C   UNL     1      -5.785   2.364  24.896  0.00  0.00    +0.019 C 
ATOM     10  C   UNL     1      -4.137   0.158  25.803  0.00  0.00    +0.085 C 
ATOM     12  C   UNL     1      -4.880   2.442  26.125  0.00  0.00    +0.081 C 
ATOM     33  H   UNL     1      -4.087   1.216  27.549  0.00  0.00    +0.122 HD
ENDROOT
BRANCH   7  11
ATOM     11  C   UNL     1      -4.063   1.907  23.102  0.00  0.00    +0.100 C 
BRANCH  11  14
ATOM      1  O   UNL     1      -4.327   4.169  23.758  0.00  0.00    -0.276 OA
ATOM      4  N   UNL     1      -2.320   3.150  24.330  0.00  0.00    -0.299 N 
ATOM      5  N   UNL     1      -0.128   2.950  26.164  0.00  0.00    -0.302 NA
ATOM     14  C   UNL     1      -3.589   3.180  23.756  0.00  0.00    +0.216 C 
ATOM     16  C   UNL     1      -1.789   4.343  24.988  0.00  0.00    +0.123 C 
ATOM     17  C   UNL     1      -1.369   2.039  24.230  0.00  0.00    +0.123 C 
ATOM     18  C   UNL     1      -1.145   3.998  26.330  0.00  0.00    +0.103 C 
ATOM     19  C   UNL     1      -0.727   1.738  25.586  0.00  0.00    +0.103 C 
ATOM     22  C   UNL     1       0.510   2.645  27.445  0.00  0.00    +0.105 C 
ENDBRANCH  11  14
ENDBRANCH   7  11
BRANCH   8  13
ATOM     13  C   UNL     1      -4.434  -1.060  23.616  0.00  0.00    +0.064 C 
BRANCH  13  15
ATOM      2  O   UNL     1      -1.177  -2.115  24.729  0.00  0.00    -0.354 OA
ATOM      6  N   UNL     1      -2.565  -2.193  24.738  0.00  0.00    -0.083 NA
ATOM     15  C   UNL     1      -2.968  -1.263  23.868  0.00  0.00    +0.085 A 
ATOM     20  C   UNL     1      -1.891  -0.574  23.284  0.00  0.00    +0.076 A 
ATOM     21  C   UNL     1      -0.788  -1.148  23.860  0.00  0.00    +0.167 A 
BRANCH  21  23
ATOM     23  C   UNL     1       0.627  -0.951  23.743  0.00  0.00    +0.020 A 
ATOM     25  C   UNL     1       3.381  -0.570  23.512  0.00  0.00    -0.042 A 
ATOM     26  C   UNL     1       1.508  -1.807  24.404  0.00  0.00    +0.012 A 
ATOM     27  C   UNL     1       1.124   0.095  22.966  0.00  0.00    +0.012 A 
ATOM     28  C   UNL     1       2.885  -1.616  24.288  0.00  0.00    +0.005 A 
ATOM     29  C   UNL     1       2.501   0.287  22.851  0.00  0.00    +0.005 A 
BRANCH  25  24
ATOM     24  C   UNL     1       4.854  -0.365  23.390  0.00  0.00    -0.013 C 
ATOM     30  C   UNL     1       5.262  -0.070  21.913  0.00  0.00    +0.015 C 
ATOM     31  C   UNL     1       5.642  -1.630  23.852  0.00  0.00    +0.015 C 
ATOM     32  C   UNL     1       5.438   0.820  24.228  0.00  0.00    +0.015 C 
ENDBRANCH  25  24
ENDBRANCH  21  23
ENDBRANCH  13  15
ENDBRANCH   8  13
TORSDOF 6
ENDMDL
