MODEL 1
REMARK VINA RESULT:       1.9      0.000      0.000
REMARK  Name = 11912251
REMARK  4 active torsions:
REMARK  status: ('A' for Active; 'I' for Inactive)
REMARK    1  A    between atoms: S_1  and  N_9
REMARK    2  A    between atoms: S_1  and  C_23
REMARK    3  A    between atoms: N_11  and  C_19
REMARK    4  A    between atoms: C_14  and  C_18
REMARK                            x       y       z     vdW  Elec       q    Type
REMARK                         _______ _______ _______ _____ _____    ______ ____
ROOT
ATOM      6  O   UNL     1       5.277  -0.365  23.905  0.00  0.00    -0.377 OA
ATOM      7  O   UNL     1       0.813  -0.860  21.750  0.00  0.00    -0.252 OA
ATOM      9  N   UNL     1      -1.343   2.656  24.423  0.00  0.00    -0.162 NA
ATOM     10  N   UNL     1       0.603   1.120  22.910  0.00  0.00    -0.282 N 
ATOM     12  N   UNL     1       2.669  -0.094  22.872  0.00  0.00    -0.281 N 
ATOM     14  C   UNL     1      -0.010   2.344  25.008  0.00  0.00    +0.183 C 
ATOM     15  C   UNL     1       1.057   2.054  23.953  0.00  0.00    +0.139 C 
ATOM     16  C   UNL     1      -1.428   2.540  22.943  0.00  0.00    +0.129 C 
ATOM     17  C   UNL     1      -0.799   1.226  22.511  0.00  0.00    +0.126 C 
ATOM     20  C   UNL     1       1.335   0.008  22.462  0.00  0.00    +0.305 C 
ATOM     24  C   UNL     1       3.663   0.970  22.696  0.00  0.00    +0.137 C 
ATOM     25  C   UNL     1       3.261  -1.418  23.056  0.00  0.00    +0.137 C 
ATOM     28  C   UNL     1       4.677   0.933  23.829  0.00  0.00    +0.179 C 
ATOM     29  C   UNL     1       4.299  -1.375  24.170  0.00  0.00    +0.179 C 
ENDROOT
BRANCH  14  18
ATOM      5  O   UNL     1       0.347   1.012  26.952  0.00  0.00    -0.274 OA
ATOM     11  N   UNL     1      -1.185   0.290  25.355  0.00  0.00    -0.303 N 
ATOM     18  C   UNL     1      -0.252   1.161  25.890  0.00  0.00    +0.234 C 
ATOM     35  H   UNL     1      -1.646   0.535  24.483  0.00  0.00    +0.149 HD
BRANCH  11  19
ATOM      8  O   UNL     1       0.324  -2.182  25.229  0.00  0.00    -0.274 OA
ATOM     13  N   UNL     1      -1.702  -2.799  24.373  0.00  0.00    -0.314 N 
ATOM     19  C   UNL     1      -1.580  -0.940  26.001  0.00  0.00    +0.159 C 
ATOM     21  C   UNL     1      -3.094  -1.058  26.127  0.00  0.00    +0.033 C 
ATOM     22  C   UNL     1      -3.726  -1.456  24.801  0.00  0.00    +0.021 C 
ATOM     26  C   UNL     1      -0.903  -2.047  25.205  0.00  0.00    +0.233 C 
ATOM     27  C   UNL     1      -3.151  -2.789  24.366  0.00  0.00    +0.104 C 
ATOM     36  H   UNL     1      -1.242  -3.511  23.813  0.00  0.00    +0.149 HD
ENDBRANCH  11  19
ENDBRANCH  14  18
BRANCH   9   1
ATOM      1  S   UNL     1      -2.213   3.947  25.129  0.00  0.00    +0.062 S 
ATOM      3  O   UNL     1      -2.186   5.071  24.224  0.00  0.00    -0.153 OA
ATOM      4  O   UNL     1      -1.802   4.077  26.507  0.00  0.00    -0.153 OA
BRANCH   1  23
ATOM      2  F   UNL     1      -7.640   1.652  25.038  0.00  0.00    -0.205 F 
ATOM     23  C   UNL     1      -3.837   3.261  25.102  0.00  0.00    +0.106 A 
ATOM     30  C   UNL     1      -4.873   3.891  25.792  0.00  0.00    +0.031 A 
ATOM     31  C   UNL     1      -4.085   2.086  24.391  0.00  0.00    +0.031 A 
ATOM     32  C   UNL     1      -6.158   3.348  25.770  0.00  0.00    +0.040 A 
ATOM     33  C   UNL     1      -5.371   1.543  24.370  0.00  0.00    +0.040 A 
ATOM     34  C   UNL     1      -6.406   2.174  25.059  0.00  0.00    +0.124 A 
ENDBRANCH   1  23
ENDBRANCH   9   1
TORSDOF 4
ENDMDL
MODEL 2
REMARK VINA RESULT:       5.3      3.225      7.170
REMARK  Name = 11912251
REMARK  4 active torsions:
REMARK  status: ('A' for Active; 'I' for Inactive)
REMARK    1  A    between atoms: S_1  and  N_9
REMARK    2  A    between atoms: S_1  and  C_23
REMARK    3  A    between atoms: N_11  and  C_19
REMARK    4  A    between atoms: C_14  and  C_18
REMARK                            x       y       z     vdW  Elec       q    Type
REMARK                         _______ _______ _______ _____ _____    ______ ____
ROOT
ATOM      6  O   UNL     1      -5.382   4.534  24.671  0.00  0.00    -0.377 OA
ATOM      7  O   UNL     1      -1.156   3.345  27.026  0.00  0.00    -0.252 OA
ATOM      9  N   UNL     1       0.509   0.406  23.456  0.00  0.00    -0.162 NA
ATOM     10  N   UNL     1      -0.779   2.583  24.884  0.00  0.00    -0.282 N 
ATOM     12  N   UNL     1      -2.797   3.740  25.463  0.00  0.00    -0.281 N 
ATOM     14  C   UNL     1      -0.915   0.745  23.187  0.00  0.00    +0.183 C 
ATOM     15  C   UNL     1      -1.271   2.186  23.555  0.00  0.00    +0.139 C 
ATOM     16  C   UNL     1       1.302   1.478  24.114  0.00  0.00    +0.129 C 
ATOM     17  C   UNL     1       0.511   2.030  25.289  0.00  0.00    +0.126 C 
ATOM     20  C   UNL     1      -1.551   3.237  25.858  0.00  0.00    +0.305 C 
ATOM     24  C   UNL     1      -2.992   4.636  24.317  0.00  0.00    +0.137 C 
ATOM     25  C   UNL     1      -3.887   3.792  26.435  0.00  0.00    +0.137 C 
ATOM     28  C   UNL     1      -4.353   4.390  23.685  0.00  0.00    +0.179 C 
ATOM     29  C   UNL     1      -5.223   3.587  25.731  0.00  0.00    +0.179 C 
ENDROOT
BRANCH  14  18
ATOM      5  O   UNL     1      -1.226  -1.327  24.323  0.00  0.00    -0.274 OA
ATOM     11  N   UNL     1      -2.974   0.210  24.280  0.00  0.00    -0.303 N 
ATOM     18  C   UNL     1      -1.698  -0.242  23.993  0.00  0.00    +0.234 C 
ATOM     35  H   UNL     1      -3.245   1.145  23.986  0.00  0.00    +0.149 HD
BRANCH  11  19
ATOM      8  O   UNL     1      -2.475  -0.945  26.892  0.00  0.00    -0.274 OA
ATOM     13  N   UNL     1      -3.017  -2.777  25.640  0.00  0.00    -0.314 N 
ATOM     19  C   UNL     1      -3.937  -0.564  25.026  0.00  0.00    +0.159 C 
ATOM     21  C   UNL     1      -4.903  -1.308  24.112  0.00  0.00    +0.033 C 
ATOM     22  C   UNL     1      -4.250  -2.546  23.515  0.00  0.00    +0.021 C 
ATOM     26  C   UNL     1      -3.113  -1.441  25.959  0.00  0.00    +0.233 C 
ATOM     27  C   UNL     1      -3.815  -3.462  24.643  0.00  0.00    +0.104 C 
ATOM     36  H   UNL     1      -2.434  -3.353  26.240  0.00  0.00    +0.149 HD
ENDBRANCH  11  19
ENDBRANCH  14  18
BRANCH   9   1
ATOM      1  S   UNL     1       1.322  -0.510  22.264  0.00  0.00    +0.062 S 
ATOM      3  O   UNL     1       1.225   0.185  21.002  0.00  0.00    -0.153 OA
ATOM      4  O   UNL     1       0.928  -1.892  22.398  0.00  0.00    -0.153 OA
BRANCH   1  23
ATOM      2  F   UNL     1       6.858   0.017  24.217  0.00  0.00    -0.205 F 
ATOM     23  C   UNL     1       2.979  -0.353  22.849  0.00  0.00    +0.106 A 
ATOM     30  C   UNL     1       3.583  -1.412  23.527  0.00  0.00    +0.031 A 
ATOM     31  C   UNL     1       3.685   0.832  22.633  0.00  0.00    +0.031 A 
ATOM     32  C   UNL     1       4.894  -1.287  23.989  0.00  0.00    +0.040 A 
ATOM     33  C   UNL     1       4.995   0.956  23.096  0.00  0.00    +0.040 A 
ATOM     34  C   UNL     1       5.599  -0.103  23.773  0.00  0.00    +0.124 A 
ENDBRANCH   1  23
ENDBRANCH   9   1
TORSDOF 4
ENDMDL
