MODEL 1
REMARK VINA RESULT:      -4.7      0.000      0.000
REMARK  Name = 75537098
REMARK  3 active torsions:
REMARK  status: ('A' for Active; 'I' for Inactive)
REMARK    1  A    between atoms: N_3  and  C_11
REMARK    2  A    between atoms: N_4  and  C_12
REMARK    3  A    between atoms: C_11  and  C_13
REMARK                            x       y       z     vdW  Elec       q    Type
REMARK                         _______ _______ _______ _____ _____    ______ ____
ROOT
ATOM      1  O   UNL     1      -2.805   3.737  25.741  0.00  0.00    -0.252 OA
ATOM      2  N   UNL     1      -1.525   1.892  25.048  0.00  0.00    -0.278 N 
ATOM      3  N   UNL     1       0.499   0.446  23.737  0.00  0.00    -0.295 NA
ATOM      4  N   UNL     1      -3.764   1.703  25.027  0.00  0.00    -0.287 N 
ATOM      5  C   UNL     1      -1.770   0.511  24.688  0.00  0.00    +0.109 C 
ATOM      6  C   UNL     1      -0.918   0.117  23.483  0.00  0.00    +0.109 C 
ATOM      7  C   UNL     1      -3.279   0.459  24.455  0.00  0.00    +0.132 C 
ATOM      8  C   UNL     1      -0.161   2.360  25.178  0.00  0.00    +0.125 C 
ATOM      9  C   UNL     1       0.669   1.893  23.980  0.00  0.00    +0.104 C 
ATOM     10  C   UNL     1      -2.708   2.588  25.329  0.00  0.00    +0.305 C 
ATOM     12  C   UNL     1      -5.174   2.009  25.113  0.00  0.00    +0.133 C 
ENDROOT
BRANCH   3  11
ATOM     11  C   UNL     1       1.330   0.017  22.613  0.00  0.00    +0.119 C 
BRANCH  11  13
ATOM     13  C   UNL     1       2.783  -0.085  22.997  0.00  0.00    -0.033 A 
ATOM     14  C   UNL     1       3.273  -1.260  23.566  0.00  0.00    +0.005 A 
ATOM     15  C   UNL     1       3.638   0.996  22.783  0.00  0.00    +0.005 A 
ATOM     16  C   UNL     1       4.619  -1.355  23.921  0.00  0.00    +0.000 A 
ATOM     17  C   UNL     1       4.984   0.902  23.138  0.00  0.00    +0.000 A 
ATOM     18  C   UNL     1       5.474  -0.273  23.707  0.00  0.00    +0.000 A 
ENDBRANCH  11  13
ENDBRANCH   3  11
TORSDOF 2
ENDMDL
MODEL 2
REMARK VINA RESULT:      -4.6     16.529     18.100
REMARK  Name = 75537098
REMARK  3 active torsions:
REMARK  status: ('A' for Active; 'I' for Inactive)
REMARK    1  A    between atoms: N_3  and  C_11
REMARK    2  A    between atoms: N_4  and  C_12
REMARK    3  A    between atoms: C_11  and  C_13
REMARK                            x       y       z     vdW  Elec       q    Type
REMARK                         _______ _______ _______ _____ _____    ______ ____
ROOT
ATOM      1  O   UNL     1      -0.925 -10.133  14.850  0.00  0.00    -0.252 OA
ATOM      2  N   UNL     1      -2.263 -10.350  12.930  0.00  0.00    -0.278 N 
ATOM      3  N   UNL     1      -3.344  -9.753  10.404  0.00  0.00    -0.295 NA
ATOM      4  N   UNL     1      -3.219 -10.678  14.936  0.00  0.00    -0.287 N 
ATOM      5  C   UNL     1      -3.610 -10.781  12.624  0.00  0.00    +0.109 C 
ATOM      6  C   UNL     1      -4.236  -9.863  11.575  0.00  0.00    +0.109 C 
ATOM      7  C   UNL     1      -4.310 -10.777  13.982  0.00  0.00    +0.132 C 
ATOM      8  C   UNL     1      -1.345 -10.068  11.847  0.00  0.00    +0.125 C 
ATOM      9  C   UNL     1      -2.032  -9.197  10.792  0.00  0.00    +0.104 C 
ATOM     10  C   UNL     1      -1.998 -10.362  14.306  0.00  0.00    +0.305 C 
ATOM     12  C   UNL     1      -3.440 -10.751  16.364  0.00  0.00    +0.133 C 
ENDROOT
BRANCH   3  11
ATOM     11  C   UNL     1      -3.961  -8.925   9.369  0.00  0.00    +0.119 C 
BRANCH  11  13
ATOM     13  C   UNL     1      -5.421  -9.248   9.189  0.00  0.00    -0.033 A 
ATOM     14  C   UNL     1      -6.393  -8.339   9.605  0.00  0.00    +0.005 A 
ATOM     15  C   UNL     1      -5.801 -10.456   8.604  0.00  0.00    +0.005 A 
ATOM     16  C   UNL     1      -7.746  -8.637   9.438  0.00  0.00    +0.000 A 
ATOM     17  C   UNL     1      -7.153 -10.756   8.437  0.00  0.00    +0.000 A 
ATOM     18  C   UNL     1      -8.125  -9.847   8.853  0.00  0.00    +0.000 A 
ENDBRANCH  11  13
ENDBRANCH   3  11
TORSDOF 2
ENDMDL
MODEL 3
REMARK VINA RESULT:      -3.9     17.535     19.269
REMARK  Name = 75537098
REMARK  3 active torsions:
REMARK  status: ('A' for Active; 'I' for Inactive)
REMARK    1  A    between atoms: N_3  and  C_11
REMARK    2  A    between atoms: N_4  and  C_12
REMARK    3  A    between atoms: C_11  and  C_13
REMARK                            x       y       z     vdW  Elec       q    Type
REMARK                         _______ _______ _______ _____ _____    ______ ____
ROOT
ATOM      1  O   UNL     1      -1.364 -10.385  12.053  0.00  0.00    -0.252 OA
ATOM      2  N   UNL     1      -3.608 -10.192  11.384  0.00  0.00    -0.278 N 
ATOM      3  N   UNL     1      -5.877  -9.175  10.072  0.00  0.00    -0.295 NA
ATOM      4  N   UNL     1      -3.174 -10.583  13.553  0.00  0.00    -0.287 N 
ATOM      5  C   UNL     1      -4.911 -10.380  11.987  0.00  0.00    +0.109 C 
ATOM      6  C   UNL     1      -5.865  -9.272  11.545  0.00  0.00    +0.109 C 
ATOM      7  C   UNL     1      -4.615 -10.414  13.486  0.00  0.00    +0.132 C 
ATOM      8  C   UNL     1      -3.515  -9.940   9.962  0.00  0.00    +0.125 C 
ATOM      9  C   UNL     1      -4.529  -8.868   9.553  0.00  0.00    +0.104 C 
ATOM     10  C   UNL     1      -2.563 -10.390  12.297  0.00  0.00    +0.305 C 
ATOM     12  C   UNL     1      -2.481 -10.772  14.809  0.00  0.00    +0.133 C 
ENDROOT
BRANCH   3  11
ATOM     11  C   UNL     1      -6.834  -8.158   9.636  0.00  0.00    +0.119 C 
BRANCH  11  13
ATOM     13  C   UNL     1      -8.110  -8.771   9.124  0.00  0.00    -0.033 A 
ATOM     14  C   UNL     1      -8.102 -10.062   8.598  0.00  0.00    +0.005 A 
ATOM     15  C   UNL     1      -9.301  -8.047   9.177  0.00  0.00    +0.005 A 
ATOM     16  C   UNL     1      -9.284 -10.631   8.124  0.00  0.00    +0.000 A 
ATOM     17  C   UNL     1     -10.484  -8.615   8.703  0.00  0.00    +0.000 A 
ATOM     18  C   UNL     1     -10.476  -9.906   8.176  0.00  0.00    +0.000 A 
ENDBRANCH  11  13
ENDBRANCH   3  11
TORSDOF 2
ENDMDL
MODEL 4
REMARK VINA RESULT:      -3.8      2.846      5.333
REMARK  Name = 75537098
REMARK  3 active torsions:
REMARK  status: ('A' for Active; 'I' for Inactive)
REMARK    1  A    between atoms: N_3  and  C_11
REMARK    2  A    between atoms: N_4  and  C_12
REMARK    3  A    between atoms: C_11  and  C_13
REMARK                            x       y       z     vdW  Elec       q    Type
REMARK                         _______ _______ _______ _____ _____    ______ ____
ROOT
ATOM      1  O   UNL     1      -0.067   4.476  23.205  0.00  0.00    -0.252 OA
ATOM      2  N   UNL     1      -0.034   2.533  24.526  0.00  0.00    -0.278 N 
ATOM      3  N   UNL     1      -0.119  -0.202  25.173  0.00  0.00    -0.295 NA
ATOM      4  N   UNL     1      -1.242   4.286  25.242  0.00  0.00    -0.287 N 
ATOM      5  C   UNL     1      -0.510   2.135  25.834  0.00  0.00    +0.109 C 
ATOM      6  C   UNL     1      -1.094   0.725  25.781  0.00  0.00    +0.109 C 
ATOM      7  C   UNL     1      -1.508   3.231  26.205  0.00  0.00    +0.132 C 
ATOM      8  C   UNL     1       0.813   1.630  23.775  0.00  0.00    +0.125 C 
ATOM      9  C   UNL     1       0.221   0.218  23.798  0.00  0.00    +0.104 C 
ATOM     10  C   UNL     1      -0.401   3.846  24.200  0.00  0.00    +0.305 C 
ATOM     12  C   UNL     1      -1.906   5.569  25.307  0.00  0.00    +0.133 C 
ENDROOT
BRANCH   3  11
ATOM     11  C   UNL     1      -0.644  -1.567  25.173  0.00  0.00    +0.119 C 
BRANCH  11  13
ATOM     13  C   UNL     1      -2.068  -1.620  24.686  0.00  0.00    -0.033 A 
ATOM     14  C   UNL     1      -2.778  -0.439  24.477  0.00  0.00    +0.005 A 
ATOM     15  C   UNL     1      -2.676  -2.852  24.443  0.00  0.00    +0.005 A 
ATOM     16  C   UNL     1      -4.098  -0.488  24.026  0.00  0.00    +0.000 A 
ATOM     17  C   UNL     1      -3.995  -2.902  23.992  0.00  0.00    +0.000 A 
ATOM     18  C   UNL     1      -4.706  -1.720  23.783  0.00  0.00    +0.000 A 
ENDBRANCH  11  13
ENDBRANCH   3  11
TORSDOF 2
ENDMDL
MODEL 5
REMARK VINA RESULT:      -3.7      4.211      5.460
REMARK  Name = 75537098
REMARK  3 active torsions:
REMARK  status: ('A' for Active; 'I' for Inactive)
REMARK    1  A    between atoms: N_3  and  C_11
REMARK    2  A    between atoms: N_4  and  C_12
REMARK    3  A    between atoms: C_11  and  C_13
REMARK                            x       y       z     vdW  Elec       q    Type
REMARK                         _______ _______ _______ _____ _____    ______ ____
ROOT
ATOM      1  O   UNL     1      -3.206   5.264  26.462  0.00  0.00    -0.252 OA
ATOM      2  N   UNL     1      -3.850   3.451  25.114  0.00  0.00    -0.278 N 
ATOM      3  N   UNL     1      -4.933   0.950  24.421  0.00  0.00    -0.295 NA
ATOM      4  N   UNL     1      -1.821   4.355  24.782  0.00  0.00    -0.287 N 
ATOM      5  C   UNL     1      -3.328   2.756  23.956  0.00  0.00    +0.109 C 
ATOM      6  C   UNL     1      -3.521   1.248  24.110  0.00  0.00    +0.109 C 
ATOM      7  C   UNL     1      -1.872   3.213  23.885  0.00  0.00    +0.132 C 
ATOM      8  C   UNL     1      -5.176   3.126  25.597  0.00  0.00    +0.125 C 
ATOM      9  C   UNL     1      -5.346   1.607  25.678  0.00  0.00    +0.104 C 
ATOM     10  C   UNL     1      -2.989   4.461  25.564  0.00  0.00    +0.305 C 
ATOM     12  C   UNL     1      -0.630   5.162  24.929  0.00  0.00    +0.133 C 
ENDROOT
BRANCH   3  11
ATOM     11  C   UNL     1      -5.142  -0.495  24.510  0.00  0.00    +0.119 C 
BRANCH  11  13
ATOM     13  C   UNL     1      -3.843  -1.241  24.664  0.00  0.00    -0.033 A 
ATOM     14  C   UNL     1      -3.626  -2.418  23.949  0.00  0.00    +0.005 A 
ATOM     15  C   UNL     1      -2.856  -0.754  25.521  0.00  0.00    +0.005 A 
ATOM     16  C   UNL     1      -2.423  -3.110  24.091  0.00  0.00    +0.000 A 
ATOM     17  C   UNL     1      -1.653  -1.445  25.663  0.00  0.00    +0.000 A 
ATOM     18  C   UNL     1      -1.436  -2.622  24.949  0.00  0.00    +0.000 A 
ENDBRANCH  11  13
ENDBRANCH   3  11
TORSDOF 2
ENDMDL
MODEL 6
REMARK VINA RESULT:      -2.9      3.262      6.210
REMARK  Name = 75537098
REMARK  3 active torsions:
REMARK  status: ('A' for Active; 'I' for Inactive)
REMARK    1  A    between atoms: N_3  and  C_11
REMARK    2  A    between atoms: N_4  and  C_12
REMARK    3  A    between atoms: C_11  and  C_13
REMARK                            x       y       z     vdW  Elec       q    Type
REMARK                         _______ _______ _______ _____ _____    ______ ____
ROOT
ATOM      1  O   UNL     1      -0.671  -2.852  25.272  0.00  0.00    -0.252 OA
ATOM      2  N   UNL     1      -1.140  -0.824  24.182  0.00  0.00    -0.278 N 
ATOM      3  N   UNL     1      -1.115   1.937  23.652  0.00  0.00    -0.295 NA
ATOM      4  N   UNL     1      -2.822  -2.282  24.488  0.00  0.00    -0.287 N 
ATOM      5  C   UNL     1      -2.265  -0.232  23.488  0.00  0.00    +0.109 C 
ATOM      6  C   UNL     1      -2.402   1.243  23.860  0.00  0.00    +0.109 C 
ATOM      7  C   UNL     1      -3.446  -1.111  23.897  0.00  0.00    +0.132 C 
ATOM      8  C   UNL     1       0.139  -0.146  24.167  0.00  0.00    +0.125 C 
ATOM      9  C   UNL     1      -0.053   1.339  24.485  0.00  0.00    +0.104 C 
ATOM     10  C   UNL     1      -1.445  -2.085  24.714  0.00  0.00    +0.305 C 
ATOM     12  C   UNL     1      -3.594  -3.427  24.917  0.00  0.00    +0.133 C 
ENDROOT
BRANCH   3  11
ATOM     11  C   UNL     1      -1.252   3.363  23.947  0.00  0.00    +0.119 C 
BRANCH  11  13
ATOM     13  C   UNL     1      -2.502   3.656  24.732  0.00  0.00    -0.033 A 
ATOM     14  C   UNL     1      -2.413   4.018  26.076  0.00  0.00    +0.005 A 
ATOM     15  C   UNL     1      -3.750   3.567  24.115  0.00  0.00    +0.005 A 
ATOM     16  C   UNL     1      -3.572   4.291  26.804  0.00  0.00    +0.000 A 
ATOM     17  C   UNL     1      -4.909   3.839  24.842  0.00  0.00    +0.000 A 
ATOM     18  C   UNL     1      -4.820   4.201  26.186  0.00  0.00    +0.000 A 
ENDBRANCH  11  13
ENDBRANCH   3  11
TORSDOF 2
ENDMDL
MODEL 7
REMARK VINA RESULT:      -2.7      1.942      3.079
REMARK  Name = 75537098
REMARK  3 active torsions:
REMARK  status: ('A' for Active; 'I' for Inactive)
REMARK    1  A    between atoms: N_3  and  C_11
REMARK    2  A    between atoms: N_4  and  C_12
REMARK    3  A    between atoms: C_11  and  C_13
REMARK                            x       y       z     vdW  Elec       q    Type
REMARK                         _______ _______ _______ _____ _____    ______ ____
ROOT
ATOM      1  O   UNL     1      -6.496   1.724  25.097  0.00  0.00    -0.252 OA
ATOM      2  N   UNL     1      -4.235   1.652  24.464  0.00  0.00    -0.278 N 
ATOM      3  N   UNL     1      -1.587   0.721  24.287  0.00  0.00    -0.295 NA
ATOM      4  N   UNL     1      -5.096   3.623  25.112  0.00  0.00    -0.287 N 
ATOM      5  C   UNL     1      -3.169   2.606  24.239  0.00  0.00    +0.109 C 
ATOM      6  C   UNL     1      -1.854   2.077  24.809  0.00  0.00    +0.109 C 
ATOM      7  C   UNL     1      -3.685   3.886  24.894  0.00  0.00    +0.132 C 
ATOM      8  C   UNL     1      -4.024   0.260  24.124  0.00  0.00    +0.125 C 
ATOM      9  C   UNL     1      -2.670  -0.210  24.662  0.00  0.00    +0.104 C 
ATOM     10  C   UNL     1      -5.414   2.264  24.910  0.00  0.00    +0.305 C 
ATOM     12  C   UNL     1      -5.995   4.633  25.624  0.00  0.00    +0.133 C 
ENDROOT
BRANCH   3  11
ATOM     11  C   UNL     1      -0.301   0.230  24.779  0.00  0.00    +0.119 C 
BRANCH  11  13
ATOM     13  C   UNL     1       0.742   0.203  23.692  0.00  0.00    -0.033 A 
ATOM     14  C   UNL     1       0.550  -0.591  22.562  0.00  0.00    +0.005 A 
ATOM     15  C   UNL     1       1.899   0.971  23.817  0.00  0.00    +0.005 A 
ATOM     16  C   UNL     1       1.515  -0.617  21.555  0.00  0.00    +0.000 A 
ATOM     17  C   UNL     1       2.865   0.945  22.811  0.00  0.00    +0.000 A 
ATOM     18  C   UNL     1       2.673   0.152  21.680  0.00  0.00    +0.000 A 
ENDBRANCH  11  13
ENDBRANCH   3  11
TORSDOF 2
ENDMDL
MODEL 8
REMARK VINA RESULT:      -2.2      3.395      5.047
REMARK  Name = 75537098
REMARK  3 active torsions:
REMARK  status: ('A' for Active; 'I' for Inactive)
REMARK    1  A    between atoms: N_3  and  C_11
REMARK    2  A    between atoms: N_4  and  C_12
REMARK    3  A    between atoms: C_11  and  C_13
REMARK                            x       y       z     vdW  Elec       q    Type
REMARK                         _______ _______ _______ _____ _____    ______ ____
ROOT
ATOM      1  O   UNL     1      -1.129   5.717  24.978  0.00  0.00    -0.252 OA
ATOM      2  N   UNL     1      -1.599   3.461  25.432  0.00  0.00    -0.278 N 
ATOM      3  N   UNL     1      -1.212   0.680  25.595  0.00  0.00    -0.295 NA
ATOM      4  N   UNL     1      -3.191   4.702  24.447  0.00  0.00    -0.287 N 
ATOM      5  C   UNL     1      -2.751   2.586  25.363  0.00  0.00    +0.109 C 
ATOM      6  C   UNL     1      -2.347   1.217  24.818  0.00  0.00    +0.109 C 
ATOM      7  C   UNL     1      -3.741   3.358  24.492  0.00  0.00    +0.132 C 
ATOM      8  C   UNL     1      -0.379   2.979  26.044  0.00  0.00    +0.125 C 
ATOM      9  C   UNL     1      -0.045   1.582  25.514  0.00  0.00    +0.104 C 
ATOM     10  C   UNL     1      -1.879   4.750  24.960  0.00  0.00    +0.305 C 
ATOM     12  C   UNL     1      -3.887   5.794  23.803  0.00  0.00    +0.133 C 
ENDROOT
BRANCH   3  11
ATOM     11  C   UNL     1      -0.856  -0.656  25.120  0.00  0.00    +0.119 C 
BRANCH  11  13
ATOM     13  C   UNL     1      -2.068  -1.441  24.694  0.00  0.00    -0.033 A 
ATOM     14  C   UNL     1      -2.050  -2.835  24.745  0.00  0.00    +0.005 A 
ATOM     15  C   UNL     1      -3.209  -0.775  24.247  0.00  0.00    +0.005 A 
ATOM     16  C   UNL     1      -3.173  -3.563  24.350  0.00  0.00    +0.000 A 
ATOM     17  C   UNL     1      -4.332  -1.502  23.852  0.00  0.00    +0.000 A 
ATOM     18  C   UNL     1      -4.314  -2.895  23.903  0.00  0.00    +0.000 A 
ENDBRANCH  11  13
ENDBRANCH   3  11
TORSDOF 2
ENDMDL
MODEL 9
REMARK VINA RESULT:      -2.1      4.167      5.876
REMARK  Name = 75537098
REMARK  3 active torsions:
REMARK  status: ('A' for Active; 'I' for Inactive)
REMARK    1  A    between atoms: N_3  and  C_11
REMARK    2  A    between atoms: N_4  and  C_12
REMARK    3  A    between atoms: C_11  and  C_13
REMARK                            x       y       z     vdW  Elec       q    Type
REMARK                         _______ _______ _______ _____ _____    ______ ____
ROOT
ATOM      1  O   UNL     1      -4.374  -2.458  23.442  0.00  0.00    -0.252 OA
ATOM      2  N   UNL     1      -4.125  -0.539  24.773  0.00  0.00    -0.278 N 
ATOM      3  N   UNL     1      -4.281   2.163  25.539  0.00  0.00    -0.295 NA
ATOM      4  N   UNL     1      -2.394  -1.963  24.625  0.00  0.00    -0.287 N 
ATOM      5  C   UNL     1      -3.142  -0.013  25.698  0.00  0.00    +0.109 C 
ATOM      6  C   UNL     1      -2.967   1.490  25.489  0.00  0.00    +0.109 C 
ATOM      7  C   UNL     1      -1.896  -0.851  25.417  0.00  0.00    +0.132 C 
ATOM      8  C   UNL     1      -5.398   0.136  24.634  0.00  0.00    +0.125 C 
ATOM      9  C   UNL     1      -5.178   1.644  24.487  0.00  0.00    +0.104 C 
ATOM     10  C   UNL     1      -3.717  -1.745  24.189  0.00  0.00    +0.305 C 
ATOM     12  C   UNL     1      -1.544  -3.064  24.231  0.00  0.00    +0.133 C 
ENDROOT
BRANCH   3  11
ATOM     11  C   UNL     1      -4.118   3.609  25.401  0.00  0.00    +0.119 C 
BRANCH  11  13
ATOM     13  C   UNL     1      -2.713   3.981  25.009  0.00  0.00    -0.033 A 
ATOM     14  C   UNL     1      -1.921   3.074  24.306  0.00  0.00    +0.005 A 
ATOM     15  C   UNL     1      -2.203   5.234  25.349  0.00  0.00    +0.005 A 
ATOM     16  C   UNL     1      -0.619   3.418  23.942  0.00  0.00    +0.000 A 
ATOM     17  C   UNL     1      -0.901   5.579  24.986  0.00  0.00    +0.000 A 
ATOM     18  C   UNL     1      -0.109   4.672  24.283  0.00  0.00    +0.000 A 
ENDBRANCH  11  13
ENDBRANCH   3  11
TORSDOF 2
ENDMDL
MODEL 10
REMARK VINA RESULT:      -2.0      4.011      5.603
REMARK  Name = 75537098
REMARK  3 active torsions:
REMARK  status: ('A' for Active; 'I' for Inactive)
REMARK    1  A    between atoms: N_3  and  C_11
REMARK    2  A    between atoms: N_4  and  C_12
REMARK    3  A    between atoms: C_11  and  C_13
REMARK                            x       y       z     vdW  Elec       q    Type
REMARK                         _______ _______ _______ _____ _____    ______ ____
ROOT
ATOM      1  O   UNL     1      -3.009  -3.629  24.721  0.00  0.00    -0.252 OA
ATOM      2  N   UNL     1      -2.089  -1.470  24.609  0.00  0.00    -0.278 N 
ATOM      3  N   UNL     1      -0.714   0.842  25.427  0.00  0.00    -0.295 NA
ATOM      4  N   UNL     1      -4.169  -1.783  23.820  0.00  0.00    -0.287 N 
ATOM      5  C   UNL     1      -2.454  -0.194  24.029  0.00  0.00    +0.109 C 
ATOM      6  C   UNL     1      -2.123   0.942  24.994  0.00  0.00    +0.109 C 
ATOM      7  C   UNL     1      -3.939  -0.353  23.707  0.00  0.00    +0.132 C 
ATOM      8  C   UNL     1      -0.777  -1.632  25.199  0.00  0.00    +0.125 C 
ATOM      9  C   UNL     1      -0.463  -0.443  26.111  0.00  0.00    +0.104 C 
ATOM     10  C   UNL     1      -3.077  -2.445  24.418  0.00  0.00    +0.305 C 
ATOM     12  C   UNL     1      -5.442  -2.383  23.487  0.00  0.00    +0.133 C 
ENDROOT
BRANCH   3  11
ATOM     11  C   UNL     1      -0.370   1.961  26.304  0.00  0.00    +0.119 C 
BRANCH  11  13
ATOM     13  C   UNL     1      -1.019   3.244  25.858  0.00  0.00    -0.033 A 
ATOM     14  C   UNL     1      -2.304   3.565  26.295  0.00  0.00    +0.005 A 
ATOM     15  C   UNL     1      -0.335   4.113  25.007  0.00  0.00    +0.005 A 
ATOM     16  C   UNL     1      -2.906   4.754  25.883  0.00  0.00    +0.000 A 
ATOM     17  C   UNL     1      -0.936   5.302  24.594  0.00  0.00    +0.000 A 
ATOM     18  C   UNL     1      -2.221   5.622  25.031  0.00  0.00    +0.000 A 
ENDBRANCH  11  13
ENDBRANCH   3  11
TORSDOF 2
ENDMDL
