MODEL 1
REMARK VINA RESULT:       5.8      0.000      0.000
REMARK  Name = 7127925
REMARK  11 active torsions:
REMARK  status: ('A' for Active; 'I' for Inactive)
REMARK    1  A    between atoms: S_1  and  C_18
REMARK    2  A    between atoms: S_1  and  C_24
REMARK    3  A    between atoms: S_2  and  C_27
REMARK    4  A    between atoms: S_2  and  C_30
REMARK    5  A    between atoms: N_8  and  C_12
REMARK    6  A    between atoms: N_9  and  C_20
REMARK    7  A    between atoms: N_9  and  C_21
REMARK    8  A    between atoms: N_10  and  C_23
REMARK    9  A    between atoms: C_13  and  C_16
REMARK   10  A    between atoms: C_17  and  C_18
REMARK   11  A    between atoms: C_20  and  C_22
REMARK                            x       y       z     vdW  Elec       q    Type
REMARK                         _______ _______ _______ _____ _____    ______ ____
ROOT
ATOM      4  O   UNL     1      -4.666   2.192  26.099  0.00  0.00    -0.275 OA
ATOM      7  N   UNL     1      -3.352   2.156  24.194  0.00  0.00    -0.287 N 
ATOM     12  C   UNL     1      -1.874   1.734  22.383  0.00  0.00    +0.094 C 
ATOM     13  C   UNL     1      -3.137   0.717  24.174  0.00  0.00    +0.164 C 
ATOM     14  C   UNL     1      -2.546   0.423  22.797  0.00  0.00    +0.056 C 
ATOM     15  C   UNL     1      -2.752   2.802  23.027  0.00  0.00    +0.131 C 
ATOM     17  C   UNL     1      -4.177   2.769  25.126  0.00  0.00    +0.226 C 
ENDROOT
BRANCH  12   8
ATOM      5  O   UNL     1       0.058  -0.382  22.373  0.00  0.00    -0.253 OA
ATOM      8  N   UNL     1      -0.511   1.808  22.850  0.00  0.00    -0.295 N 
ATOM     10  N   UNL     1       1.619   1.090  23.327  0.00  0.00    -0.269 N 
ATOM     19  C   UNL     1       0.374   0.722  22.809  0.00  0.00    +0.304 C 
ATOM     31  H   UNL     1      -0.193   2.671  23.282  0.00  0.00    +0.151 HD
ATOM     32  H   UNL     1       1.715   2.050  23.649  0.00  0.00    +0.156 HD
BRANCH  10  23
ATOM     23  C   UNL     1       2.775   0.284  23.460  0.00  0.00    +0.036 A 
ATOM     25  C   UNL     1       4.039   0.875  23.470  0.00  0.00    +0.038 A 
ATOM     26  C   UNL     1       2.650  -1.099  23.584  0.00  0.00    +0.023 A 
ATOM     27  C   UNL     1       5.178   0.081  23.600  0.00  0.00    +0.009 A 
ATOM     28  C   UNL     1       3.789  -1.893  23.716  0.00  0.00    +0.003 A 
ATOM     29  C   UNL     1       5.053  -1.303  23.724  0.00  0.00    +0.015 A 
BRANCH  27   2
ATOM      2  S   UNL     1       6.793   0.833  23.614  0.00  0.00    -0.129 S 
ATOM     30  C   UNL     1       7.828  -0.501  22.948  0.00  0.00    +0.090 C 
ENDBRANCH  27   2
ENDBRANCH  10  23
ENDBRANCH  12   8
BRANCH  13  16
ATOM      3  O   UNL     1      -1.236   1.112  25.517  0.00  0.00    -0.274 OA
ATOM      9  N   UNL     1      -2.431  -0.834  25.954  0.00  0.00    -0.294 N 
ATOM     16  C   UNL     1      -2.181   0.357  25.271  0.00  0.00    +0.236 C 
ATOM     21  C   UNL     1      -1.581  -1.303  27.040  0.00  0.00    +0.132 C 
BRANCH   9  20
ATOM     20  C   UNL     1      -3.563  -1.698  25.627  0.00  0.00    +0.202 C 
BRANCH  20  22
ATOM      6  O   UNL     1      -2.115  -2.990  24.177  0.00  0.00    -0.274 OA
ATOM     11  N   UNL     1      -4.311  -2.682  23.567  0.00  0.00    -0.328 N 
ATOM     22  C   UNL     1      -3.231  -2.534  24.412  0.00  0.00    +0.228 C 
ATOM     33  H   UNL     1      -4.228  -3.207  22.704  0.00  0.00    +0.145 HD
ATOM     34  H   UNL     1      -5.220  -2.282  23.775  0.00  0.00    +0.145 HD
ENDBRANCH  20  22
ENDBRANCH   9  20
ENDBRANCH  13  16
BRANCH  17  18
ATOM     18  C   UNL     1      -4.450   4.233  24.892  0.00  0.00    +0.164 C 
BRANCH  18   1
ATOM      1  S   UNL     1      -3.446   5.169  26.054  0.00  0.00    -0.155 S 
ATOM     24  C   UNL     1      -1.824   4.912  25.293  0.00  0.00    +0.085 C 
ENDBRANCH  18   1
ENDBRANCH  17  18
TORSDOF 8
ENDMDL
MODEL 2
REMARK VINA RESULT:       6.8      2.084      3.302
REMARK  Name = 7127925
REMARK  11 active torsions:
REMARK  status: ('A' for Active; 'I' for Inactive)
REMARK    1  A    between atoms: S_1  and  C_18
REMARK    2  A    between atoms: S_1  and  C_24
REMARK    3  A    between atoms: S_2  and  C_27
REMARK    4  A    between atoms: S_2  and  C_30
REMARK    5  A    between atoms: N_8  and  C_12
REMARK    6  A    between atoms: N_9  and  C_20
REMARK    7  A    between atoms: N_9  and  C_21
REMARK    8  A    between atoms: N_10  and  C_23
REMARK    9  A    between atoms: C_13  and  C_16
REMARK   10  A    between atoms: C_17  and  C_18
REMARK   11  A    between atoms: C_20  and  C_22
REMARK                            x       y       z     vdW  Elec       q    Type
REMARK                         _______ _______ _______ _____ _____    ______ ____
ROOT
ATOM      4  O   UNL     1      -6.186   3.227  24.615  0.00  0.00    -0.275 OA
ATOM      7  N   UNL     1      -4.058   3.586  25.448  0.00  0.00    -0.287 N 
ATOM     12  C   UNL     1      -1.751   3.945  25.889  0.00  0.00    +0.094 C 
ATOM     13  C   UNL     1      -3.479   4.075  24.206  0.00  0.00    +0.164 C 
ATOM     14  C   UNL     1      -2.136   4.683  24.605  0.00  0.00    +0.056 C 
ATOM     15  C   UNL     1      -3.095   3.653  26.548  0.00  0.00    +0.131 C 
ATOM     17  C   UNL     1      -5.404   3.274  25.565  0.00  0.00    +0.226 C 
ENDROOT
BRANCH  12   8
ATOM      5  O   UNL     1      -0.012   3.468  23.663  0.00  0.00    -0.253 OA
ATOM      8  N   UNL     1      -1.017   2.735  25.612  0.00  0.00    -0.295 N 
ATOM     10  N   UNL     1       0.394   1.309  24.491  0.00  0.00    -0.269 N 
ATOM     19  C   UNL     1      -0.183   2.582  24.496  0.00  0.00    +0.304 C 
ATOM     31  H   UNL     1      -1.154   1.934  26.222  0.00  0.00    +0.151 HD
ATOM     32  H   UNL     1       0.145   0.691  25.259  0.00  0.00    +0.156 HD
BRANCH  10  23
ATOM     23  C   UNL     1       1.290   0.767  23.539  0.00  0.00    +0.036 A 
ATOM     25  C   UNL     1       2.667   0.886  23.732  0.00  0.00    +0.038 A 
ATOM     26  C   UNL     1       0.797   0.112  22.411  0.00  0.00    +0.023 A 
ATOM     27  C   UNL     1       3.550   0.352  22.793  0.00  0.00    +0.009 A 
ATOM     28  C   UNL     1       1.681  -0.422  21.474  0.00  0.00    +0.003 A 
ATOM     29  C   UNL     1       3.058  -0.303  21.664  0.00  0.00    +0.015 A 
BRANCH  27   2
ATOM      2  S   UNL     1       5.309   0.502  23.038  0.00  0.00    -0.129 S 
ATOM     30  C   UNL     1       5.617  -0.769  24.297  0.00  0.00    +0.090 C 
ENDBRANCH  27   2
ENDBRANCH  10  23
ENDBRANCH  12   8
BRANCH  13  16
ATOM      3  O   UNL     1      -3.204   3.135  22.058  0.00  0.00    -0.274 OA
ATOM      9  N   UNL     1      -3.258   1.648  23.843  0.00  0.00    -0.294 N 
ATOM     16  C   UNL     1      -3.302   2.919  23.268  0.00  0.00    +0.236 C 
ATOM     21  C   UNL     1      -3.091   0.438  23.048  0.00  0.00    +0.132 C 
BRANCH   9  20
ATOM     20  C   UNL     1      -3.379   1.437  25.284  0.00  0.00    +0.202 C 
BRANCH  20  22
ATOM      6  O   UNL     1      -1.670  -0.201  25.794  0.00  0.00    -0.274 OA
ATOM     11  N   UNL     1      -3.869  -0.872  25.729  0.00  0.00    -0.328 N 
ATOM     22  C   UNL     1      -2.860   0.064  25.643  0.00  0.00    +0.228 C 
ATOM     33  H   UNL     1      -3.663  -1.840  25.949  0.00  0.00    +0.145 HD
ATOM     34  H   UNL     1      -4.844  -0.632  25.585  0.00  0.00    +0.145 HD
ENDBRANCH  20  22
ENDBRANCH   9  20
ENDBRANCH  13  16
BRANCH  17  18
ATOM     18  C   UNL     1      -5.883   2.971  26.962  0.00  0.00    +0.164 C 
BRANCH  18   1
ATOM      1  S   UNL     1      -6.649   1.344  26.937  0.00  0.00    -0.155 S 
ATOM     24  C   UNL     1      -6.630   1.054  25.151  0.00  0.00    +0.085 C 
ENDBRANCH  18   1
ENDBRANCH  17  18
TORSDOF 8
ENDMDL
MODEL 3
REMARK VINA RESULT:       7.5      2.455      4.598
REMARK  Name = 7127925
REMARK  11 active torsions:
REMARK  status: ('A' for Active; 'I' for Inactive)
REMARK    1  A    between atoms: S_1  and  C_18
REMARK    2  A    between atoms: S_1  and  C_24
REMARK    3  A    between atoms: S_2  and  C_27
REMARK    4  A    between atoms: S_2  and  C_30
REMARK    5  A    between atoms: N_8  and  C_12
REMARK    6  A    between atoms: N_9  and  C_20
REMARK    7  A    between atoms: N_9  and  C_21
REMARK    8  A    between atoms: N_10  and  C_23
REMARK    9  A    between atoms: C_13  and  C_16
REMARK   10  A    between atoms: C_17  and  C_18
REMARK   11  A    between atoms: C_20  and  C_22
REMARK                            x       y       z     vdW  Elec       q    Type
REMARK                         _______ _______ _______ _____ _____    ______ ____
ROOT
ATOM      4  O   UNL     1      -4.929  -1.612  23.553  0.00  0.00    -0.275 OA
ATOM      7  N   UNL     1      -3.573  -0.484  25.052  0.00  0.00    -0.287 N 
ATOM     12  C   UNL     1      -2.285   1.024  26.359  0.00  0.00    +0.094 C 
ATOM     13  C   UNL     1      -4.113   0.842  24.790  0.00  0.00    +0.164 C 
ATOM     14  C   UNL     1      -3.575   1.721  25.918  0.00  0.00    +0.056 C 
ATOM     15  C   UNL     1      -2.581  -0.454  26.126  0.00  0.00    +0.131 C 
ATOM     17  C   UNL     1      -4.093  -1.625  24.458  0.00  0.00    +0.226 C 
ENDROOT
BRANCH  12   8
ATOM      5  O   UNL     1      -0.579  -0.598  24.724  0.00  0.00    -0.253 OA
ATOM      8  N   UNL     1      -1.147   1.469  25.593  0.00  0.00    -0.295 N 
ATOM     10  N   UNL     1       0.667   1.319  24.190  0.00  0.00    -0.269 N 
ATOM     19  C   UNL     1      -0.361   0.608  24.815  0.00  0.00    +0.304 C 
ATOM     31  H   UNL     1      -0.865   2.442  25.666  0.00  0.00    +0.151 HD
ATOM     32  H   UNL     1       0.707   2.319  24.372  0.00  0.00    +0.156 HD
BRANCH  10  23
ATOM     23  C   UNL     1       1.668   0.816  23.325  0.00  0.00    +0.036 A 
ATOM     25  C   UNL     1       3.012   0.904  23.689  0.00  0.00    +0.038 A 
ATOM     26  C   UNL     1       1.310   0.230  22.111  0.00  0.00    +0.023 A 
ATOM     27  C   UNL     1       3.998   0.408  22.836  0.00  0.00    +0.009 A 
ATOM     28  C   UNL     1       2.296  -0.267  21.260  0.00  0.00    +0.003 A 
ATOM     29  C   UNL     1       3.641  -0.178  21.622  0.00  0.00    +0.015 A 
BRANCH  27   2
ATOM      2  S   UNL     1       5.715   0.518  23.300  0.00  0.00    -0.129 S 
ATOM     30  C   UNL     1       5.840  -0.775  24.567  0.00  0.00    +0.090 C 
ENDBRANCH  27   2
ENDBRANCH  10  23
ENDBRANCH  12   8
BRANCH  13  16
ATOM      3  O   UNL     1      -3.284   0.469  22.611  0.00  0.00    -0.274 OA
ATOM      9  N   UNL     1      -3.585   2.685  23.242  0.00  0.00    -0.294 N 
ATOM     16  C   UNL     1      -3.624   1.306  23.451  0.00  0.00    +0.236 C 
ATOM     21  C   UNL     1      -3.131   3.271  21.988  0.00  0.00    +0.132 C 
BRANCH   9  20
ATOM     20  C   UNL     1      -3.996   3.642  24.266  0.00  0.00    +0.202 C 
BRANCH  20  22
ATOM      6  O   UNL     1      -1.645   4.185  24.471  0.00  0.00    -0.274 OA
ATOM     11  N   UNL     1      -3.062   4.712  26.204  0.00  0.00    -0.328 N 
ATOM     22  C   UNL     1      -2.774   4.210  24.952  0.00  0.00    +0.228 C 
ATOM     33  H   UNL     1      -2.333   5.112  26.784  0.00  0.00    +0.145 HD
ATOM     34  H   UNL     1      -4.001   4.708  26.587  0.00  0.00    +0.145 HD
ENDBRANCH  20  22
ENDBRANCH   9  20
ENDBRANCH  13  16
BRANCH  17  18
ATOM     18  C   UNL     1      -3.556  -2.933  24.981  0.00  0.00    +0.164 C 
BRANCH  18   1
ATOM      1  S   UNL     1      -2.204  -3.437  23.908  0.00  0.00    -0.155 S 
ATOM     24  C   UNL     1      -0.817  -3.058  25.009  0.00  0.00    +0.085 C 
ENDBRANCH  18   1
ENDBRANCH  17  18
TORSDOF 8
ENDMDL
MODEL 4
REMARK VINA RESULT:       8.7      2.088      7.439
REMARK  Name = 7127925
REMARK  11 active torsions:
REMARK  status: ('A' for Active; 'I' for Inactive)
REMARK    1  A    between atoms: S_1  and  C_18
REMARK    2  A    between atoms: S_1  and  C_24
REMARK    3  A    between atoms: S_2  and  C_27
REMARK    4  A    between atoms: S_2  and  C_30
REMARK    5  A    between atoms: N_8  and  C_12
REMARK    6  A    between atoms: N_9  and  C_20
REMARK    7  A    between atoms: N_9  and  C_21
REMARK    8  A    between atoms: N_10  and  C_23
REMARK    9  A    between atoms: C_13  and  C_16
REMARK   10  A    between atoms: C_17  and  C_18
REMARK   11  A    between atoms: C_20  and  C_22
REMARK                            x       y       z     vdW  Elec       q    Type
REMARK                         _______ _______ _______ _____ _____    ______ ____
ROOT
ATOM      4  O   UNL     1       1.283  -1.203  21.404  0.00  0.00    -0.275 OA
ATOM      7  N   UNL     1       1.297   0.291  23.172  0.00  0.00    -0.287 N 
ATOM     12  C   UNL     1       0.922   1.662  25.075  0.00  0.00    +0.094 C 
ATOM     13  C   UNL     1       0.262  -0.372  23.951  0.00  0.00    +0.164 C 
ATOM     14  C   UNL     1       0.329   0.274  25.334  0.00  0.00    +0.056 C 
ATOM     15  C   UNL     1       1.857   1.435  23.892  0.00  0.00    +0.131 C 
ATOM     17  C   UNL     1       1.780  -0.236  21.983  0.00  0.00    +0.226 C 
ENDROOT
BRANCH  12   8
ATOM      5  O   UNL     1      -1.833   1.551  25.857  0.00  0.00    -0.253 OA
ATOM      8  N   UNL     1      -0.100   2.633  24.771  0.00  0.00    -0.295 N 
ATOM     10  N   UNL     1      -2.189   3.592  24.752  0.00  0.00    -0.269 N 
ATOM     19  C   UNL     1      -1.431   2.504  25.194  0.00  0.00    +0.304 C 
ATOM     31  H   UNL     1       0.140   3.419  24.175  0.00  0.00    +0.151 HD
ATOM     32  H   UNL     1      -1.699   4.300  24.210  0.00  0.00    +0.156 HD
BRANCH  10  23
ATOM     23  C   UNL     1      -3.566   3.834  24.969  0.00  0.00    +0.036 A 
ATOM     25  C   UNL     1      -4.443   2.763  25.145  0.00  0.00    +0.038 A 
ATOM     26  C   UNL     1      -4.045   5.143  25.009  0.00  0.00    +0.023 A 
ATOM     27  C   UNL     1      -5.800   3.003  25.359  0.00  0.00    +0.009 A 
ATOM     28  C   UNL     1      -5.403   5.382  25.224  0.00  0.00    +0.003 A 
ATOM     29  C   UNL     1      -6.281   4.312  25.399  0.00  0.00    +0.015 A 
BRANCH  27   2
ATOM      2  S   UNL     1      -6.922   1.636  25.585  0.00  0.00    -0.129 S 
ATOM     30  C   UNL     1      -6.718   1.280  27.353  0.00  0.00    +0.090 C 
ENDBRANCH  27   2
ENDBRANCH  10  23
ENDBRANCH  12   8
BRANCH  13  16
ATOM      3  O   UNL     1      -1.174   0.787  22.480  0.00  0.00    -0.274 OA
ATOM      9  N   UNL     1      -2.107  -0.984  23.661  0.00  0.00    -0.294 N 
ATOM     16  C   UNL     1      -1.063  -0.132  23.296  0.00  0.00    +0.236 C 
ATOM     21  C   UNL     1      -3.446  -0.862  23.101  0.00  0.00    +0.132 C 
BRANCH   9  20
ATOM     20  C   UNL     1      -1.931  -2.061  24.634  0.00  0.00    +0.202 C 
BRANCH  20  22
ATOM      6  O   UNL     1      -3.913  -3.292  25.284  0.00  0.00    -0.274 OA
ATOM     11  N   UNL     1      -3.569  -1.196  26.164  0.00  0.00    -0.328 N 
ATOM     22  C   UNL     1      -3.224  -2.281  25.387  0.00  0.00    +0.228 C 
ATOM     33  H   UNL     1      -4.421  -1.199  26.714  0.00  0.00    +0.145 HD
ATOM     34  H   UNL     1      -2.990  -0.365  26.222  0.00  0.00    +0.145 HD
ENDBRANCH  20  22
ENDBRANCH   9  20
ENDBRANCH  13  16
BRANCH  17  18
ATOM     18  C   UNL     1       2.982   0.464  21.402  0.00  0.00    +0.164 C 
BRANCH  18   1
ATOM      1  S   UNL     1       4.171   0.703  22.731  0.00  0.00    -0.155 S 
ATOM     24  C   UNL     1       4.272  -1.003  23.326  0.00  0.00    +0.085 C 
ENDBRANCH  18   1
ENDBRANCH  17  18
TORSDOF 8
ENDMDL
MODEL 5
REMARK VINA RESULT:       9.5      3.701      5.174
REMARK  Name = 7127925
REMARK  11 active torsions:
REMARK  status: ('A' for Active; 'I' for Inactive)
REMARK    1  A    between atoms: S_1  and  C_18
REMARK    2  A    between atoms: S_1  and  C_24
REMARK    3  A    between atoms: S_2  and  C_27
REMARK    4  A    between atoms: S_2  and  C_30
REMARK    5  A    between atoms: N_8  and  C_12
REMARK    6  A    between atoms: N_9  and  C_20
REMARK    7  A    between atoms: N_9  and  C_21
REMARK    8  A    between atoms: N_10  and  C_23
REMARK    9  A    between atoms: C_13  and  C_16
REMARK   10  A    between atoms: C_17  and  C_18
REMARK   11  A    between atoms: C_20  and  C_22
REMARK                            x       y       z     vdW  Elec       q    Type
REMARK                         _______ _______ _______ _____ _____    ______ ____
ROOT
ATOM      4  O   UNL     1      -4.690  -0.803  23.841  0.00  0.00    -0.275 OA
ATOM      7  N   UNL     1      -3.706   1.279  24.073  0.00  0.00    -0.287 N 
ATOM     12  C   UNL     1      -2.327   3.194  24.345  0.00  0.00    +0.094 C 
ATOM     13  C   UNL     1      -2.355   0.857  23.733  0.00  0.00    +0.164 C 
ATOM     14  C   UNL     1      -1.578   2.153  23.509  0.00  0.00    +0.056 C 
ATOM     15  C   UNL     1      -3.777   2.725  24.281  0.00  0.00    +0.131 C 
ATOM     17  C   UNL     1      -4.787   0.412  24.019  0.00  0.00    +0.226 C 
ENDROOT
BRANCH  12   8
ATOM      5  O   UNL     1       0.323   2.567  25.237  0.00  0.00    -0.253 OA
ATOM      8  N   UNL     1      -1.840   3.244  25.701  0.00  0.00    -0.295 N 
ATOM     10  N   UNL     1      -0.341   3.060  27.434  0.00  0.00    -0.269 N 
ATOM     19  C   UNL     1      -0.522   2.921  26.055  0.00  0.00    +0.304 C 
ATOM     31  H   UNL     1      -2.495   3.468  26.444  0.00  0.00    +0.151 HD
ATOM     32  H   UNL     1      -1.149   3.364  27.972  0.00  0.00    +0.156 HD
BRANCH  10  23
ATOM     23  C   UNL     1       0.838   2.831  28.181  0.00  0.00    +0.036 A 
ATOM     25  C   UNL     1       0.752   2.417  29.511  0.00  0.00    +0.038 A 
ATOM     26  C   UNL     1       2.086   3.015  27.587  0.00  0.00    +0.023 A 
ATOM     27  C   UNL     1       1.915   2.191  30.247  0.00  0.00    +0.009 A 
ATOM     28  C   UNL     1       3.249   2.787  28.324  0.00  0.00    +0.003 A 
ATOM     29  C   UNL     1       3.163   2.375  29.654  0.00  0.00    +0.015 A 
BRANCH  27   2
ATOM      2  S   UNL     1       1.806   1.662  31.945  0.00  0.00    -0.129 S 
ATOM     30  C   UNL     1       0.236   2.408  32.466  0.00  0.00    +0.090 C 
ENDBRANCH  27   2
ENDBRANCH  10  23
ENDBRANCH  12   8
BRANCH  13  16
ATOM      3  O   UNL     1      -2.229   0.268  26.016  0.00  0.00    -0.274 OA
ATOM      9  N   UNL     1      -0.793  -0.854  24.572  0.00  0.00    -0.294 N 
ATOM     16  C   UNL     1      -1.793   0.070  24.878  0.00  0.00    +0.236 C 
ATOM     21  C   UNL     1      -0.160  -1.683  25.590  0.00  0.00    +0.132 C 
BRANCH   9  20
ATOM     20  C   UNL     1      -0.306  -1.055  23.210  0.00  0.00    +0.202 C 
BRANCH  20  22
ATOM      6  O   UNL     1       1.427   0.520  23.829  0.00  0.00    -0.274 OA
ATOM     11  N   UNL     1       1.317  -0.212  21.652  0.00  0.00    -0.328 N 
ATOM     22  C   UNL     1       0.902  -0.179  22.966  0.00  0.00    +0.228 C 
ATOM     33  H   UNL     1       2.109   0.340  21.342  0.00  0.00    +0.145 HD
ATOM     34  H   UNL     1       0.858  -0.787  20.953  0.00  0.00    +0.145 HD
ENDBRANCH  20  22
ENDBRANCH   9  20
ENDBRANCH  13  16
BRANCH  17  18
ATOM     18  C   UNL     1      -6.141   1.048  24.207  0.00  0.00    +0.164 C 
BRANCH  18   1
ATOM      1  S   UNL     1      -6.298   1.495  25.942  0.00  0.00    -0.155 S 
ATOM     24  C   UNL     1      -6.063   3.284  25.792  0.00  0.00    +0.085 C 
ENDBRANCH  18   1
ENDBRANCH  17  18
TORSDOF 8
ENDMDL
