MODEL 1
REMARK VINA RESULT:      -4.3      0.000      0.000
REMARK  Name = 75368475
REMARK  2 active torsions:
REMARK  status: ('A' for Active; 'I' for Inactive)
REMARK    1  A    between atoms: N_5  and  C_14
REMARK    2  A    between atoms: C_15  and  C_16
REMARK                            x       y       z     vdW  Elec       q    Type
REMARK                         _______ _______ _______ _____ _____    ______ ____
ROOT
ATOM      1  O   UNL     1      -6.755   1.772  25.381  0.00  0.00    -0.252 OA
ATOM      2  O   UNL     1      -1.050  -2.065  24.138  0.00  0.00    -0.268 OA
ATOM      3  N   UNL     1      -4.545   1.241  24.789  0.00  0.00    -0.278 N 
ATOM      4  N   UNL     1      -2.122  -0.120  24.864  0.00  0.00    -0.293 N 
ATOM      5  N   UNL     1      -5.067   3.399  25.128  0.00  0.00    -0.287 N 
ATOM      8  C   UNL     1      -3.336   1.969  24.440  0.00  0.00    +0.112 C 
ATOM      9  C   UNL     1      -2.126   1.335  25.116  0.00  0.00    +0.132 C 
ATOM     10  C   UNL     1      -3.637   3.399  24.878  0.00  0.00    +0.133 C 
ATOM     11  C   UNL     1      -4.579  -0.207  24.659  0.00  0.00    +0.128 C 
ATOM     12  C   UNL     1      -3.337  -0.819  25.304  0.00  0.00    +0.127 C 
ATOM     13  C   UNL     1      -5.602   2.095  25.127  0.00  0.00    +0.305 C 
ATOM     14  C   UNL     1      -5.787   4.607  25.465  0.00  0.00    +0.133 C 
ATOM     15  C   UNL     1      -1.069  -0.847  24.307  0.00  0.00    +0.267 C 
ENDROOT
BRANCH  15  16
ATOM      6  N   UNL     1       0.913  -0.725  22.965  0.00  0.00    -0.247 NA
ATOM      7  N   UNL     1       1.510   1.825  23.969  0.00  0.00    -0.259 NA
ATOM     16  C   UNL     1       0.123  -0.111  23.869  0.00  0.00    +0.144 A 
ATOM     17  C   UNL     1       0.417   1.141  24.361  0.00  0.00    +0.143 A 
ATOM     18  C   UNL     1       2.006  -0.041  22.571  0.00  0.00    +0.131 A 
ATOM     19  C   UNL     1       2.299   1.212  23.064  0.00  0.00    +0.130 A 
ENDBRANCH  15  16
TORSDOF 1
ENDMDL
MODEL 2
REMARK VINA RESULT:      -3.5     19.979     20.864
REMARK  Name = 75368475
REMARK  2 active torsions:
REMARK  status: ('A' for Active; 'I' for Inactive)
REMARK    1  A    between atoms: N_5  and  C_14
REMARK    2  A    between atoms: C_15  and  C_16
REMARK                            x       y       z     vdW  Elec       q    Type
REMARK                         _______ _______ _______ _____ _____    ______ ____
ROOT
ATOM      1  O   UNL     1      17.404  -5.969  22.325  0.00  0.00    -0.252 OA
ATOM      2  O   UNL     1      16.013  -9.270  28.323  0.00  0.00    -0.268 OA
ATOM      3  N   UNL     1      17.094  -6.314  24.627  0.00  0.00    -0.278 N 
ATOM      4  N   UNL     1      15.982  -7.389  26.936  0.00  0.00    -0.293 N 
ATOM      5  N   UNL     1      17.253  -4.202  23.878  0.00  0.00    -0.287 N 
ATOM      8  C   UNL     1      17.083  -5.498  25.830  0.00  0.00    +0.112 C 
ATOM      9  C   UNL     1      15.942  -5.926  26.746  0.00  0.00    +0.132 C 
ATOM     10  C   UNL     1      16.975  -4.072  25.297  0.00  0.00    +0.133 C 
ATOM     11  C   UNL     1      17.035  -7.762  24.736  0.00  0.00    +0.128 C 
ATOM     12  C   UNL     1      15.914  -8.169  25.692  0.00  0.00    +0.127 C 
ATOM     13  C   UNL     1      17.271  -5.550  23.467  0.00  0.00    +0.305 C 
ATOM     14  C   UNL     1      17.357  -3.051  23.009  0.00  0.00    +0.133 C 
ATOM     15  C   UNL     1      16.025  -8.050  28.165  0.00  0.00    +0.267 C 
ENDROOT
BRANCH  15  16
ATOM      6  N   UNL     1      14.935  -6.804  29.898  0.00  0.00    -0.247 NA
ATOM      7  N   UNL     1      17.399  -6.184  31.086  0.00  0.00    -0.259 NA
ATOM     16  C   UNL     1      16.104  -7.237  29.385  0.00  0.00    +0.144 A 
ATOM     17  C   UNL     1      17.313  -6.932  29.969  0.00  0.00    +0.143 A 
ATOM     18  C   UNL     1      15.019  -6.057  31.017  0.00  0.00    +0.131 A 
ATOM     19  C   UNL     1      16.230  -5.752  31.600  0.00  0.00    +0.130 A 
ENDBRANCH  15  16
TORSDOF 1
ENDMDL
MODEL 3
REMARK VINA RESULT:      -2.2      2.034      2.992
REMARK  Name = 75368475
REMARK  2 active torsions:
REMARK  status: ('A' for Active; 'I' for Inactive)
REMARK    1  A    between atoms: N_5  and  C_14
REMARK    2  A    between atoms: C_15  and  C_16
REMARK                            x       y       z     vdW  Elec       q    Type
REMARK                         _______ _______ _______ _____ _____    ______ ____
ROOT
ATOM      1  O   UNL     1      -6.113   4.125  26.134  0.00  0.00    -0.252 OA
ATOM      2  O   UNL     1       0.805   3.446  25.434  0.00  0.00    -0.268 OA
ATOM      3  N   UNL     1      -4.039   3.165  25.593  0.00  0.00    -0.278 N 
ATOM      4  N   UNL     1      -1.395   3.076  24.739  0.00  0.00    -0.293 N 
ATOM      5  N   UNL     1      -5.903   2.181  24.816  0.00  0.00    -0.287 N 
ATOM      8  C   UNL     1      -3.568   1.956  24.937  0.00  0.00    +0.112 C 
ATOM      9  C   UNL     1      -2.402   2.280  24.010  0.00  0.00    +0.132 C 
ATOM     10  C   UNL     1      -4.812   1.417  24.236  0.00  0.00    +0.133 C 
ATOM     11  C   UNL     1      -3.088   4.050  26.246  0.00  0.00    +0.128 C 
ATOM     12  C   UNL     1      -1.907   4.326  25.317  0.00  0.00    +0.127 C 
ATOM     13  C   UNL     1      -5.436   3.264  25.587  0.00  0.00    +0.305 C 
ATOM     14  C   UNL     1      -7.286   1.904  24.498  0.00  0.00    +0.133 C 
ATOM     15  C   UNL     1      -0.042   2.759  24.864  0.00  0.00    +0.267 C 
ENDROOT
BRANCH  15  16
ATOM      6  N   UNL     1       1.574   1.548  23.572  0.00  0.00    -0.247 NA
ATOM      7  N   UNL     1       0.152  -0.844  23.924  0.00  0.00    -0.259 NA
ATOM     16  C   UNL     1       0.429   1.496  24.283  0.00  0.00    +0.144 A 
ATOM     17  C   UNL     1      -0.268   0.321  24.455  0.00  0.00    +0.143 A 
ATOM     18  C   UNL     1       1.995   0.383  23.041  0.00  0.00    +0.131 A 
ATOM     19  C   UNL     1       1.297  -0.792  23.215  0.00  0.00    +0.130 A 
ENDBRANCH  15  16
TORSDOF 1
ENDMDL
MODEL 4
REMARK VINA RESULT:      -2.1     20.290     21.312
REMARK  Name = 75368475
REMARK  2 active torsions:
REMARK  status: ('A' for Active; 'I' for Inactive)
REMARK    1  A    between atoms: N_5  and  C_14
REMARK    2  A    between atoms: C_15  and  C_16
REMARK                            x       y       z     vdW  Elec       q    Type
REMARK                         _______ _______ _______ _____ _____    ______ ____
ROOT
ATOM      1  O   UNL     1      16.810  -5.608  23.621  0.00  0.00    -0.252 OA
ATOM      2  O   UNL     1      15.565 -10.683  28.258  0.00  0.00    -0.268 OA
ATOM      3  N   UNL     1      16.726  -6.739  25.678  0.00  0.00    -0.278 N 
ATOM      4  N   UNL     1      15.722  -8.436  27.636  0.00  0.00    -0.293 N 
ATOM      5  N   UNL     1      17.191  -4.541  25.689  0.00  0.00    -0.287 N 
ATOM      8  C   UNL     1      17.019  -6.434  27.069  0.00  0.00    +0.112 C 
ATOM      9  C   UNL     1      15.939  -7.016  27.974  0.00  0.00    +0.132 C 
ATOM     10  C   UNL     1      17.120  -4.911  27.091  0.00  0.00    +0.133 C 
ATOM     11  C   UNL     1      16.405  -8.102  25.289  0.00  0.00    +0.128 C 
ATOM     12  C   UNL     1      15.354  -8.682  26.235  0.00  0.00    +0.127 C 
ATOM     13  C   UNL     1      16.901  -5.629  24.841  0.00  0.00    +0.305 C 
ATOM     14  C   UNL     1      17.405  -3.175  25.266  0.00  0.00    +0.133 C 
ATOM     15  C   UNL     1      15.789  -9.506  28.531  0.00  0.00    +0.267 C 
ENDROOT
BRANCH  15  16
ATOM      6  N   UNL     1      17.037 -10.080  30.496  0.00  0.00    -0.247 NA
ATOM      7  N   UNL     1      16.006  -7.864  31.872  0.00  0.00    -0.259 NA
ATOM     16  C   UNL     1      16.171  -9.221  29.920  0.00  0.00    +0.144 A 
ATOM     17  C   UNL     1      15.665  -8.134  30.596  0.00  0.00    +0.143 A 
ATOM     18  C   UNL     1      17.378  -9.811  31.771  0.00  0.00    +0.131 A 
ATOM     19  C   UNL     1      16.872  -8.722  32.447  0.00  0.00    +0.130 A 
ENDBRANCH  15  16
TORSDOF 1
ENDMDL
MODEL 5
REMARK VINA RESULT:      -1.9      2.548      3.231
REMARK  Name = 75368475
REMARK  2 active torsions:
REMARK  status: ('A' for Active; 'I' for Inactive)
REMARK    1  A    between atoms: N_5  and  C_14
REMARK    2  A    between atoms: C_15  and  C_16
REMARK                            x       y       z     vdW  Elec       q    Type
REMARK                         _______ _______ _______ _____ _____    ______ ____
ROOT
ATOM      1  O   UNL     1      -3.750   3.049  24.283  0.00  0.00    -0.252 OA
ATOM      2  O   UNL     1       1.222  -0.783  21.217  0.00  0.00    -0.268 OA
ATOM      3  N   UNL     1      -1.624   2.165  23.819  0.00  0.00    -0.278 N 
ATOM      4  N   UNL     1       0.258   0.262  23.071  0.00  0.00    -0.293 N 
ATOM      5  N   UNL     1      -1.897   3.347  25.710  0.00  0.00    -0.287 N 
ATOM      8  C   UNL     1      -0.290   2.257  24.389  0.00  0.00    +0.112 C 
ATOM      9  C   UNL     1       0.370   0.883  24.406  0.00  0.00    +0.132 C 
ATOM     10  C   UNL     1      -0.527   2.870  25.766  0.00  0.00    +0.133 C 
ATOM     11  C   UNL     1      -1.824   1.480  22.553  0.00  0.00    +0.128 C 
ATOM     12  C   UNL     1      -1.118   0.125  22.575  0.00  0.00    +0.127 C 
ATOM     13  C   UNL     1      -2.572   2.878  24.565  0.00  0.00    +0.305 C 
ATOM     14  C   UNL     1      -2.491   4.100  26.792  0.00  0.00    +0.133 C 
ATOM     15  C   UNL     1       1.321  -0.226  22.309  0.00  0.00    +0.267 C 
ENDROOT
BRANCH  15  16
ATOM      6  N   UNL     1       3.257  -1.152  23.375  0.00  0.00    -0.247 NA
ATOM      7  N   UNL     1       4.580   1.318  23.255  0.00  0.00    -0.259 NA
ATOM     16  C   UNL     1       2.682  -0.060  22.833  0.00  0.00    +0.144 A 
ATOM     17  C   UNL     1       3.332   1.153  22.774  0.00  0.00    +0.143 A 
ATOM     18  C   UNL     1       4.506  -0.988  23.855  0.00  0.00    +0.131 A 
ATOM     19  C   UNL     1       5.155   0.226  23.796  0.00  0.00    +0.130 A 
ENDBRANCH  15  16
TORSDOF 1
ENDMDL
MODEL 6
REMARK VINA RESULT:      -1.8      1.557      6.058
REMARK  Name = 75368475
REMARK  2 active torsions:
REMARK  status: ('A' for Active; 'I' for Inactive)
REMARK    1  A    between atoms: N_5  and  C_14
REMARK    2  A    between atoms: C_15  and  C_16
REMARK                            x       y       z     vdW  Elec       q    Type
REMARK                         _______ _______ _______ _____ _____    ______ ____
ROOT
ATOM      1  O   UNL     1       2.379  -1.408  23.499  0.00  0.00    -0.252 OA
ATOM      2  O   UNL     1      -4.320  -0.729  25.360  0.00  0.00    -0.268 OA
ATOM      3  N   UNL     1       0.361  -0.382  24.124  0.00  0.00    -0.278 N 
ATOM      4  N   UNL     1      -2.388   0.002  24.267  0.00  0.00    -0.293 N 
ATOM      5  N   UNL     1       2.021   0.918  23.346  0.00  0.00    -0.287 N 
ATOM      8  C   UNL     1      -0.137   0.976  24.271  0.00  0.00    +0.112 C 
ATOM      9  C   UNL     1      -1.551   1.082  23.710  0.00  0.00    +0.132 C 
ATOM     10  C   UNL     1       0.904   1.824  23.546  0.00  0.00    +0.133 C 
ATOM     11  C   UNL     1      -0.455  -1.502  24.561  0.00  0.00    +0.128 C 
ATOM     12  C   UNL     1      -1.878  -1.355  24.025  0.00  0.00    +0.127 C 
ATOM     13  C   UNL     1       1.676  -0.417  23.642  0.00  0.00    +0.305 C 
ATOM     14  C   UNL     1       3.275   1.360  22.780  0.00  0.00    +0.133 C 
ATOM     15  C   UNL     1      -3.602   0.174  24.935  0.00  0.00    +0.267 C 
ENDROOT
BRANCH  15  16
ATOM      6  N   UNL     1      -3.125   2.484  25.367  0.00  0.00    -0.247 NA
ATOM      7  N   UNL     1      -5.861   3.104  25.405  0.00  0.00    -0.259 NA
ATOM     16  C   UNL     1      -4.073   1.545  25.169  0.00  0.00    +0.144 A 
ATOM     17  C   UNL     1      -5.416   1.850  25.188  0.00  0.00    +0.143 A 
ATOM     18  C   UNL     1      -3.569   3.738  25.583  0.00  0.00    +0.131 A 
ATOM     19  C   UNL     1      -4.913   4.042  25.601  0.00  0.00    +0.130 A 
ENDBRANCH  15  16
TORSDOF 1
ENDMDL
MODEL 7
REMARK VINA RESULT:      -1.6      2.674      4.218
REMARK  Name = 75368475
REMARK  2 active torsions:
REMARK  status: ('A' for Active; 'I' for Inactive)
REMARK    1  A    between atoms: N_5  and  C_14
REMARK    2  A    between atoms: C_15  and  C_16
REMARK                            x       y       z     vdW  Elec       q    Type
REMARK                         _______ _______ _______ _____ _____    ______ ____
ROOT
ATOM      1  O   UNL     1      -1.362   5.595  25.308  0.00  0.00    -0.252 OA
ATOM      2  O   UNL     1      -0.310  -1.299  25.725  0.00  0.00    -0.268 OA
ATOM      3  N   UNL     1      -1.775   3.290  25.128  0.00  0.00    -0.278 N 
ATOM      4  N   UNL     1      -1.202   0.604  24.703  0.00  0.00    -0.293 N 
ATOM      5  N   UNL     1      -3.180   4.708  24.097  0.00  0.00    -0.287 N 
ATOM      8  C   UNL     1      -2.825   2.439  24.591  0.00  0.00    +0.112 C 
ATOM      9  C   UNL     1      -2.215   1.255  23.849  0.00  0.00    +0.132 C 
ATOM     10  C   UNL     1      -3.646   3.386  23.720  0.00  0.00    +0.133 C 
ATOM     11  C   UNL     1      -0.691   2.702  25.896  0.00  0.00    +0.128 C 
ATOM     12  C   UNL     1      -0.123   1.491  25.157  0.00  0.00    +0.127 C 
ATOM     13  C   UNL     1      -2.023   4.650  24.900  0.00  0.00    +0.305 C 
ATOM     14  C   UNL     1      -3.786   5.912  23.575  0.00  0.00    +0.133 C 
ATOM     15  C   UNL     1      -1.178  -0.748  25.050  0.00  0.00    +0.267 C 
ENDROOT
BRANCH  15  16
ATOM      6  N   UNL     1      -1.968  -2.874  24.271  0.00  0.00    -0.247 NA
ATOM      7  N   UNL     1      -4.585  -1.890  24.055  0.00  0.00    -0.259 NA
ATOM     16  C   UNL     1      -2.280  -1.601  24.587  0.00  0.00    +0.144 A 
ATOM     17  C   UNL     1      -3.566  -1.119  24.481  0.00  0.00    +0.143 A 
ATOM     18  C   UNL     1      -2.987  -3.646  23.846  0.00  0.00    +0.131 A 
ATOM     19  C   UNL     1      -4.273  -3.163  23.740  0.00  0.00    +0.130 A 
ENDBRANCH  15  16
TORSDOF 1
ENDMDL
MODEL 8
REMARK VINA RESULT:      -1.6      2.938      4.977
REMARK  Name = 75368475
REMARK  2 active torsions:
REMARK  status: ('A' for Active; 'I' for Inactive)
REMARK    1  A    between atoms: N_5  and  C_14
REMARK    2  A    between atoms: C_15  and  C_16
REMARK                            x       y       z     vdW  Elec       q    Type
REMARK                         _______ _______ _______ _____ _____    ______ ____
ROOT
ATOM      1  O   UNL     1      -2.330  -3.559  24.216  0.00  0.00    -0.252 OA
ATOM      2  O   UNL     1       0.724   2.340  26.377  0.00  0.00    -0.268 OA
ATOM      3  N   UNL     1      -1.976  -1.264  24.565  0.00  0.00    -0.278 N 
ATOM      4  N   UNL     1      -1.152   1.034  25.893  0.00  0.00    -0.293 N 
ATOM      5  N   UNL     1      -3.988  -1.930  23.820  0.00  0.00    -0.287 N 
ATOM      8  C   UNL     1      -2.701  -0.029  24.316  0.00  0.00    +0.112 C 
ATOM      9  C   UNL     1      -2.573   0.906  25.514  0.00  0.00    +0.132 C 
ATOM     10  C   UNL     1      -4.123  -0.498  24.020  0.00  0.00    +0.133 C 
ATOM     11  C   UNL     1      -0.602  -1.213  25.037  0.00  0.00    +0.128 C 
ATOM     12  C   UNL     1      -0.487  -0.238  26.208  0.00  0.00    +0.127 C 
ATOM     13  C   UNL     1      -2.714  -2.398  24.199  0.00  0.00    +0.305 C 
ATOM     14  C   UNL     1      -5.102  -2.754  23.406  0.00  0.00    +0.133 C 
ATOM     15  C   UNL     1      -0.447   2.232  26.017  0.00  0.00    +0.267 C 
ENDROOT
BRANCH  15  16
ATOM      6  N   UNL     1      -2.407   3.607  26.134  0.00  0.00    -0.247 NA
ATOM      7  N   UNL     1      -1.160   5.619  24.629  0.00  0.00    -0.259 NA
ATOM     16  C   UNL     1      -1.143   3.481  25.683  0.00  0.00    +0.144 A 
ATOM     17  C   UNL     1      -0.531   4.469  24.944  0.00  0.00    +0.143 A 
ATOM     18  C   UNL     1      -3.037   4.757  25.819  0.00  0.00    +0.131 A 
ATOM     19  C   UNL     1      -2.424   5.745  25.080  0.00  0.00    +0.130 A 
ENDBRANCH  15  16
TORSDOF 1
ENDMDL
MODEL 9
REMARK VINA RESULT:      -1.3      2.341      5.034
REMARK  Name = 75368475
REMARK  2 active torsions:
REMARK  status: ('A' for Active; 'I' for Inactive)
REMARK    1  A    between atoms: N_5  and  C_14
REMARK    2  A    between atoms: C_15  and  C_16
REMARK                            x       y       z     vdW  Elec       q    Type
REMARK                         _______ _______ _______ _____ _____    ______ ____
ROOT
ATOM      1  O   UNL     1      -3.848  -3.289  24.894  0.00  0.00    -0.252 OA
ATOM      2  O   UNL     1      -4.761   3.585  25.741  0.00  0.00    -0.268 OA
ATOM      3  N   UNL     1      -3.338  -1.001  25.026  0.00  0.00    -0.278 N 
ATOM      4  N   UNL     1      -3.729   1.737  24.751  0.00  0.00    -0.293 N 
ATOM      5  N   UNL     1      -1.789  -2.390  24.180  0.00  0.00    -0.287 N 
ATOM      8  C   UNL     1      -2.174  -0.159  24.804  0.00  0.00    +0.112 C 
ATOM      9  C   UNL     1      -2.578   1.114  24.068  0.00  0.00    +0.132 C 
ATOM     10  C   UNL     1      -1.215  -1.064  24.037  0.00  0.00    +0.133 C 
ATOM     11  C   UNL     1      -4.543  -0.429  25.604  0.00  0.00    +0.128 C 
ATOM     12  C   UNL     1      -4.906   0.868  24.882  0.00  0.00    +0.127 C 
ATOM     13  C   UNL     1      -3.087  -2.346  24.726  0.00  0.00    +0.305 C 
ATOM     14  C   UNL     1      -1.121  -3.572  23.683  0.00  0.00    +0.133 C 
ATOM     15  C   UNL     1      -3.786   3.053  25.212  0.00  0.00    +0.267 C 
ENDROOT
BRANCH  15  16
ATOM      6  N   UNL     1      -1.417   3.239  24.900  0.00  0.00    -0.247 NA
ATOM      7  N   UNL     1      -1.562   6.039  25.002  0.00  0.00    -0.259 NA
ATOM     16  C   UNL     1      -2.586   3.888  25.074  0.00  0.00    +0.144 A 
ATOM     17  C   UNL     1      -2.657   5.262  25.124  0.00  0.00    +0.143 A 
ATOM     18  C   UNL     1      -0.322   4.015  24.777  0.00  0.00    +0.131 A 
ATOM     19  C   UNL     1      -0.393   5.390  24.826  0.00  0.00    +0.130 A 
ENDBRANCH  15  16
TORSDOF 1
ENDMDL
MODEL 10
REMARK VINA RESULT:      -1.2      2.232      6.681
REMARK  Name = 75368475
REMARK  2 active torsions:
REMARK  status: ('A' for Active; 'I' for Inactive)
REMARK    1  A    between atoms: N_5  and  C_14
REMARK    2  A    between atoms: C_15  and  C_16
REMARK                            x       y       z     vdW  Elec       q    Type
REMARK                         _______ _______ _______ _____ _____    ______ ____
ROOT
ATOM      1  O   UNL     1       2.557   1.737  23.431  0.00  0.00    -0.252 OA
ATOM      2  O   UNL     1      -3.154   4.783  26.060  0.00  0.00    -0.268 OA
ATOM      3  N   UNL     1       0.301   2.076  23.985  0.00  0.00    -0.278 N 
ATOM      4  N   UNL     1      -1.874   2.909  25.503  0.00  0.00    -0.293 N 
ATOM      5  N   UNL     1       0.920   0.053  23.231  0.00  0.00    -0.287 N 
ATOM      8  C   UNL     1      -0.943   1.332  23.872  0.00  0.00    +0.112 C 
ATOM      9  C   UNL     1      -1.764   1.481  25.148  0.00  0.00    +0.132 C 
ATOM     10  C   UNL     1      -0.485  -0.092  23.568  0.00  0.00    +0.133 C 
ATOM     11  C   UNL     1       0.276   3.461  24.426  0.00  0.00    +0.128 C 
ATOM     12  C   UNL     1      -0.587   3.596  25.680  0.00  0.00    +0.127 C 
ATOM     13  C   UNL     1       1.404   1.341  23.533  0.00  0.00    +0.305 C 
ATOM     14  C   UNL     1       1.716  -1.063  22.770  0.00  0.00    +0.133 C 
ATOM     15  C   UNL     1      -3.064   3.605  25.721  0.00  0.00    +0.267 C 
ENDROOT
BRANCH  15  16
ATOM      6  N   UNL     1      -5.243   2.991  26.510  0.00  0.00    -0.247 NA
ATOM      7  N   UNL     1      -5.722   1.480  24.196  0.00  0.00    -0.259 NA
ATOM     16  C   UNL     1      -4.330   2.887  25.523  0.00  0.00    +0.144 A 
ATOM     17  C   UNL     1      -4.566   2.145  24.388  0.00  0.00    +0.143 A 
ATOM     18  C   UNL     1      -6.401   2.327  26.318  0.00  0.00    +0.131 A 
ATOM     19  C   UNL     1      -6.635   1.585  25.181  0.00  0.00    +0.130 A 
ENDBRANCH  15  16
TORSDOF 1
ENDMDL
