MODEL 1
REMARK VINA RESULT:       1.6      0.000      0.000
REMARK  Name = 75536153
REMARK  11 active torsions:
REMARK  status: ('A' for Active; 'I' for Inactive)
REMARK    1  A    between atoms: O_3  and  C_26
REMARK    2  A    between atoms: O_3  and  C_31
REMARK    3  A    between atoms: N_4  and  C_15
REMARK    4  A    between atoms: N_7  and  C_28
REMARK    5  A    between atoms: C_8  and  C_12
REMARK    6  A    between atoms: C_9  and  C_15
REMARK    7  A    between atoms: C_11  and  C_16
REMARK    8  A    between atoms: C_12  and  C_17
REMARK    9  A    between atoms: C_12  and  C_18
REMARK   10  A    between atoms: C_13  and  C_19
REMARK   11  A    between atoms: C_16  and  C_20
REMARK                            x       y       z     vdW  Elec       q    Type
REMARK                         _______ _______ _______ _____ _____    ______ ____
ROOT
ATOM      8  C   UNL     1      -3.064   2.524  23.755  0.00  0.00    +0.000 C 
ATOM      9  C   UNL     1      -2.601   3.951  24.142  0.00  0.00    +0.032 C 
ATOM     10  C   UNL     1      -4.561   2.522  23.409  0.00  0.00    +0.012 C 
ATOM     11  C   UNL     1      -5.430   3.015  24.582  0.00  0.00    +0.022 C 
ATOM     13  C   UNL     1      -4.879   4.286  25.195  0.00  0.00    -0.073 C 
ATOM     14  C   UNL     1      -3.616   4.695  24.978  0.00  0.00    -0.022 C 
ATOM     19  C   UNL     1      -5.827   5.101  26.030  0.00  0.00    +0.039 C 
ENDROOT
BRANCH   8  12
ATOM     12  C   UNL     1      -2.259   1.966  22.576  0.00  0.00    -0.013 C 
ATOM     17  C   UNL     1      -2.105   0.454  22.706  0.00  0.00    +0.007 C 
ATOM     18  C   UNL     1      -2.929   2.330  21.255  0.00  0.00    +0.007 C 
ENDBRANCH   8  12
BRANCH   9  15
ATOM     15  C   UNL     1      -1.260   3.914  24.884  0.00  0.00    +0.113 C 
BRANCH  15   4
ATOM      2  O   UNL     1       0.515   1.762  25.534  0.00  0.00    -0.253 OA
ATOM      4  N   UNL     1      -0.233   3.374  24.051  0.00  0.00    -0.299 N 
ATOM      7  N   UNL     1       1.513   1.998  23.422  0.00  0.00    -0.269 N 
ATOM     21  C   UNL     1       0.606   2.311  24.439  0.00  0.00    +0.304 C 
ATOM     35  H   UNL     1      -0.140   3.728  23.104  0.00  0.00    +0.150 HD
ATOM     37  H   UNL     1       1.455   2.555  22.572  0.00  0.00    +0.156 HD
BRANCH   7  28
ATOM      1  F   UNL     1       5.428  -1.925  23.444  0.00  0.00    -0.205 F 
ATOM     28  C   UNL     1       2.511   0.998  23.428  0.00  0.00    +0.035 A 
ATOM     29  C   UNL     1       3.858   1.356  23.375  0.00  0.00    +0.026 A 
ATOM     30  C   UNL     1       2.149  -0.348  23.485  0.00  0.00    +0.026 A 
ATOM     32  C   UNL     1       4.844   0.369  23.382  0.00  0.00    +0.040 A 
ATOM     33  C   UNL     1       3.135  -1.336  23.492  0.00  0.00    +0.040 A 
ATOM     34  C   UNL     1       4.482  -0.977  23.439  0.00  0.00    +0.124 A 
ENDBRANCH   7  28
ENDBRANCH  15   4
ENDBRANCH   9  15
BRANCH  11  16
ATOM     16  C   UNL     1      -5.598   1.922  25.643  0.00  0.00    +0.082 C 
BRANCH  16  20
ATOM      5  N   UNL     1      -3.532   0.517  25.774  0.00  0.00    -0.342 N 
ATOM      6  N   UNL     1      -5.189  -0.308  24.543  0.00  0.00    -0.232 NA
ATOM     20  C   UNL     1      -4.801   0.696  25.299  0.00  0.00    +0.109 A 
ATOM     22  C   UNL     1      -3.069  -0.681  25.293  0.00  0.00    +0.070 A 
ATOM     23  C   UNL     1      -4.121  -1.176  24.527  0.00  0.00    +0.089 A 
ATOM     24  C   UNL     1      -1.858  -1.354  25.456  0.00  0.00    +0.073 A 
ATOM     25  C   UNL     1      -3.974  -2.413  23.879  0.00  0.00    +0.033 A 
ATOM     26  C   UNL     1      -1.728  -2.584  24.805  0.00  0.00    +0.122 A 
ATOM     27  C   UNL     1      -2.766  -3.107  24.029  0.00  0.00    +0.048 A 
ATOM     36  H   UNL     1      -3.023   1.153  26.374  0.00  0.00    +0.167 HD
BRANCH  26   3
ATOM      3  O   UNL     1      -0.565  -3.286  24.928  0.00  0.00    -0.495 OA
ATOM     31  C   UNL     1       0.489  -2.664  25.658  0.00  0.00    +0.277 C 
ENDBRANCH  26   3
ENDBRANCH  16  20
ENDBRANCH  11  16
TORSDOF 7
ENDMDL
MODEL 2
REMARK VINA RESULT:       2.2      1.331      1.693
REMARK  Name = 75536153
REMARK  11 active torsions:
REMARK  status: ('A' for Active; 'I' for Inactive)
REMARK    1  A    between atoms: O_3  and  C_26
REMARK    2  A    between atoms: O_3  and  C_31
REMARK    3  A    between atoms: N_4  and  C_15
REMARK    4  A    between atoms: N_7  and  C_28
REMARK    5  A    between atoms: C_8  and  C_12
REMARK    6  A    between atoms: C_9  and  C_15
REMARK    7  A    between atoms: C_11  and  C_16
REMARK    8  A    between atoms: C_12  and  C_17
REMARK    9  A    between atoms: C_12  and  C_18
REMARK   10  A    between atoms: C_13  and  C_19
REMARK   11  A    between atoms: C_16  and  C_20
REMARK                            x       y       z     vdW  Elec       q    Type
REMARK                         _______ _______ _______ _____ _____    ______ ____
ROOT
ATOM      8  C   UNL     1      -3.162   2.886  23.345  0.00  0.00    +0.000 C 
ATOM      9  C   UNL     1      -1.840   3.030  24.139  0.00  0.00    +0.032 C 
ATOM     10  C   UNL     1      -4.144   4.003  23.730  0.00  0.00    +0.012 C 
ATOM     11  C   UNL     1      -4.475   3.994  25.235  0.00  0.00    +0.022 C 
ATOM     13  C   UNL     1      -3.227   3.866  26.085  0.00  0.00    -0.073 C 
ATOM     14  C   UNL     1      -2.056   3.446  25.576  0.00  0.00    -0.022 C 
ATOM     19  C   UNL     1      -3.346   4.276  27.526  0.00  0.00    +0.039 C 
ENDROOT
BRANCH   8  12
ATOM     12  C   UNL     1      -2.921   2.906  21.832  0.00  0.00    -0.013 C 
ATOM     17  C   UNL     1      -2.587   1.506  21.328  0.00  0.00    +0.007 C 
ATOM     18  C   UNL     1      -4.141   3.465  21.107  0.00  0.00    +0.007 C 
ENDBRANCH   8  12
BRANCH   9  15
ATOM     15  C   UNL     1      -1.028   1.731  24.102  0.00  0.00    +0.113 C 
BRANCH  15   4
ATOM      2  O   UNL     1       1.036  -0.161  23.496  0.00  0.00    -0.253 OA
ATOM      4  N   UNL     1       0.366   2.006  23.950  0.00  0.00    -0.299 N 
ATOM      7  N   UNL     1       2.603   1.585  23.564  0.00  0.00    -0.269 N 
ATOM     21  C   UNL     1       1.327   1.022  23.652  0.00  0.00    +0.304 C 
ATOM     35  H   UNL     1       0.676   2.972  23.995  0.00  0.00    +0.150 HD
ATOM     37  H   UNL     1       2.672   2.587  23.723  0.00  0.00    +0.156 HD
BRANCH   7  28
ATOM      1  F   UNL     1       7.387  -0.990  22.462  0.00  0.00    -0.205 F 
ATOM     28  C   UNL     1       3.823   0.928  23.283  0.00  0.00    +0.035 A 
ATOM     29  C   UNL     1       4.083   0.460  21.995  0.00  0.00    +0.026 A 
ATOM     30  C   UNL     1       4.768   0.749  24.294  0.00  0.00    +0.026 A 
ATOM     32  C   UNL     1       5.287  -0.188  21.717  0.00  0.00    +0.040 A 
ATOM     33  C   UNL     1       5.972   0.102  24.016  0.00  0.00    +0.040 A 
ATOM     34  C   UNL     1       6.231  -0.367  22.728  0.00  0.00    +0.124 A 
ENDBRANCH   7  28
ENDBRANCH  15   4
ENDBRANCH   9  15
BRANCH  11  16
ATOM     16  C   UNL     1      -5.484   2.891  25.572  0.00  0.00    +0.082 C 
BRANCH  16  20
ATOM      5  N   UNL     1      -3.756   1.094  25.783  0.00  0.00    -0.342 N 
ATOM      6  N   UNL     1      -5.483   0.629  24.462  0.00  0.00    -0.232 NA
ATOM     20  C   UNL     1      -4.937   1.529  25.249  0.00  0.00    +0.109 A 
ATOM     22  C   UNL     1      -3.524  -0.172  25.308  0.00  0.00    +0.070 A 
ATOM     23  C   UNL     1      -4.616  -0.439  24.486  0.00  0.00    +0.089 A 
ATOM     24  C   UNL     1      -2.485  -1.078  25.520  0.00  0.00    +0.073 A 
ATOM     25  C   UNL     1      -4.691  -1.678  23.829  0.00  0.00    +0.033 A 
ATOM     26  C   UNL     1      -2.576  -2.307  24.859  0.00  0.00    +0.122 A 
ATOM     27  C   UNL     1      -3.659  -2.604  24.028  0.00  0.00    +0.048 A 
ATOM     36  H   UNL     1      -3.160   1.610  26.414  0.00  0.00    +0.167 HD
BRANCH  26   3
ATOM      3  O   UNL     1      -1.588  -3.231  25.028  0.00  0.00    -0.495 OA
ATOM     31  C   UNL     1      -0.302  -2.741  25.400  0.00  0.00    +0.277 C 
ENDBRANCH  26   3
ENDBRANCH  16  20
ENDBRANCH  11  16
TORSDOF 7
ENDMDL
MODEL 3
REMARK VINA RESULT:       4.2      2.671      5.597
REMARK  Name = 75536153
REMARK  11 active torsions:
REMARK  status: ('A' for Active; 'I' for Inactive)
REMARK    1  A    between atoms: O_3  and  C_26
REMARK    2  A    between atoms: O_3  and  C_31
REMARK    3  A    between atoms: N_4  and  C_15
REMARK    4  A    between atoms: N_7  and  C_28
REMARK    5  A    between atoms: C_8  and  C_12
REMARK    6  A    between atoms: C_9  and  C_15
REMARK    7  A    between atoms: C_11  and  C_16
REMARK    8  A    between atoms: C_12  and  C_17
REMARK    9  A    between atoms: C_12  and  C_18
REMARK   10  A    between atoms: C_13  and  C_19
REMARK   11  A    between atoms: C_16  and  C_20
REMARK                            x       y       z     vdW  Elec       q    Type
REMARK                         _______ _______ _______ _____ _____    ______ ____
ROOT
ATOM      8  C   UNL     1      -4.135   3.642  25.191  0.00  0.00    +0.000 C 
ATOM      9  C   UNL     1      -3.658   4.304  23.874  0.00  0.00    +0.032 C 
ATOM     10  C   UNL     1      -3.404   4.256  26.395  0.00  0.00    +0.012 C 
ATOM     11  C   UNL     1      -1.876   4.095  26.293  0.00  0.00    +0.022 C 
ATOM     13  C   UNL     1      -1.360   4.477  24.921  0.00  0.00    -0.073 C 
ATOM     14  C   UNL     1      -2.172   4.579  23.855  0.00  0.00    -0.022 C 
ATOM     19  C   UNL     1       0.108   4.785  24.812  0.00  0.00    +0.039 C 
ENDROOT
BRANCH   8  12
ATOM     12  C   UNL     1      -5.649   3.778  25.379  0.00  0.00    -0.013 C 
ATOM     17  C   UNL     1      -6.142   2.804  26.445  0.00  0.00    +0.007 C 
ATOM     18  C   UNL     1      -6.013   5.212  25.747  0.00  0.00    +0.007 C 
ENDBRANCH   8  12
BRANCH   9  15
ATOM     15  C   UNL     1      -4.035   3.451  22.658  0.00  0.00    +0.113 C 
BRANCH  15   4
ATOM      2  O   UNL     1      -4.959   1.177  24.135  0.00  0.00    -0.253 OA
ATOM      4  N   UNL     1      -3.413   2.166  22.726  0.00  0.00    -0.299 N 
ATOM      7  N   UNL     1      -3.108  -0.035  23.354  0.00  0.00    -0.269 N 
ATOM     21  C   UNL     1      -3.926   1.091  23.477  0.00  0.00    +0.304 C 
ATOM     35  H   UNL     1      -2.592   1.994  22.154  0.00  0.00    +0.150 HD
ATOM     37  H   UNL     1      -2.282   0.062  22.767  0.00  0.00    +0.156 HD
BRANCH   7  28
ATOM      1  F   UNL     1      -3.798  -5.012  25.696  0.00  0.00    -0.205 F 
ATOM     28  C   UNL     1      -3.283  -1.305  23.951  0.00  0.00    +0.035 A 
ATOM     29  C   UNL     1      -4.211  -2.202  23.422  0.00  0.00    +0.026 A 
ATOM     30  C   UNL     1      -2.529  -1.660  25.070  0.00  0.00    +0.026 A 
ATOM     32  C   UNL     1      -4.385  -3.455  24.011  0.00  0.00    +0.040 A 
ATOM     33  C   UNL     1      -2.702  -2.912  25.658  0.00  0.00    +0.040 A 
ATOM     34  C   UNL     1      -3.630  -3.810  25.130  0.00  0.00    +0.124 A 
ENDBRANCH   7  28
ENDBRANCH  15   4
ENDBRANCH   9  15
BRANCH  11  16
ATOM     16  C   UNL     1      -1.445   2.671  26.665  0.00  0.00    +0.082 C 
BRANCH  16  20
ATOM      5  N   UNL     1       0.702   2.214  25.464  0.00  0.00    -0.342 N 
ATOM      6  N   UNL     1      -1.113   1.262  24.603  0.00  0.00    -0.232 NA
ATOM     20  C   UNL     1      -0.649   2.033  25.562  0.00  0.00    +0.109 A 
ATOM     22  C   UNL     1       1.140   1.515  24.368  0.00  0.00    +0.070 A 
ATOM     23  C   UNL     1      -0.012   0.930  23.848  0.00  0.00    +0.089 A 
ATOM     24  C   UNL     1       2.405   1.349  23.804  0.00  0.00    +0.073 A 
ATOM     25  C   UNL     1       0.087   0.129  22.698  0.00  0.00    +0.033 A 
ATOM     26  C   UNL     1       2.485   0.548  22.661  0.00  0.00    +0.122 A 
ATOM     27  C   UNL     1       1.347  -0.052  22.115  0.00  0.00    +0.048 A 
ATOM     36  H   UNL     1       1.277   2.765  26.086  0.00  0.00    +0.167 HD
BRANCH  26   3
ATOM      3  O   UNL     1       3.697   0.352  22.067  0.00  0.00    -0.495 OA
ATOM     31  C   UNL     1       4.837   0.321  22.921  0.00  0.00    +0.277 C 
ENDBRANCH  26   3
ENDBRANCH  16  20
ENDBRANCH  11  16
TORSDOF 7
ENDMDL
MODEL 4
REMARK VINA RESULT:       4.4      1.978      4.263
REMARK  Name = 75536153
REMARK  11 active torsions:
REMARK  status: ('A' for Active; 'I' for Inactive)
REMARK    1  A    between atoms: O_3  and  C_26
REMARK    2  A    between atoms: O_3  and  C_31
REMARK    3  A    between atoms: N_4  and  C_15
REMARK    4  A    between atoms: N_7  and  C_28
REMARK    5  A    between atoms: C_8  and  C_12
REMARK    6  A    between atoms: C_9  and  C_15
REMARK    7  A    between atoms: C_11  and  C_16
REMARK    8  A    between atoms: C_12  and  C_17
REMARK    9  A    between atoms: C_12  and  C_18
REMARK   10  A    between atoms: C_13  and  C_19
REMARK   11  A    between atoms: C_16  and  C_20
REMARK                            x       y       z     vdW  Elec       q    Type
REMARK                         _______ _______ _______ _____ _____    ______ ____
ROOT
ATOM      8  C   UNL     1      -4.048   1.499  24.868  0.00  0.00    +0.000 C 
ATOM      9  C   UNL     1      -3.377   0.541  23.853  0.00  0.00    +0.032 C 
ATOM     10  C   UNL     1      -5.001   2.464  24.145  0.00  0.00    +0.012 C 
ATOM     11  C   UNL     1      -4.276   3.310  23.081  0.00  0.00    +0.022 C 
ATOM     13  C   UNL     1      -3.377   2.462  22.204  0.00  0.00    -0.073 C 
ATOM     14  C   UNL     1      -2.996   1.222  22.559  0.00  0.00    -0.022 C 
ATOM     19  C   UNL     1      -2.962   3.056  20.887  0.00  0.00    +0.039 C 
ENDROOT
BRANCH   8  12
ATOM     12  C   UNL     1      -4.812   0.733  25.953  0.00  0.00    -0.013 C 
ATOM     17  C   UNL     1      -6.272   1.171  25.986  0.00  0.00    +0.007 C 
ATOM     18  C   UNL     1      -4.703  -0.770  25.720  0.00  0.00    +0.007 C 
ENDBRANCH   8  12
BRANCH   9  15
ATOM     15  C   UNL     1      -2.138  -0.128  24.460  0.00  0.00    +0.113 C 
BRANCH  15   4
ATOM      2  O   UNL     1       0.546  -0.936  25.047  0.00  0.00    -0.253 OA
ATOM      4  N   UNL     1      -0.960   0.232  23.736  0.00  0.00    -0.299 N 
ATOM      7  N   UNL     1       1.285   0.307  23.198  0.00  0.00    -0.269 N 
ATOM     21  C   UNL     1       0.332  -0.204  24.084  0.00  0.00    +0.304 C 
ATOM     35  H   UNL     1      -1.061   0.779  22.887  0.00  0.00    +0.150 HD
ATOM     37  H   UNL     1       0.938   0.904  22.451  0.00  0.00    +0.156 HD
BRANCH   7  28
ATOM      1  F   UNL     1       6.767  -0.509  23.253  0.00  0.00    -0.205 F 
ATOM     28  C   UNL     1       2.683   0.099  23.212  0.00  0.00    +0.035 A 
ATOM     29  C   UNL     1       3.545   1.131  22.844  0.00  0.00    +0.026 A 
ATOM     30  C   UNL     1       3.200  -1.139  23.594  0.00  0.00    +0.026 A 
ATOM     32  C   UNL     1       4.925   0.926  22.858  0.00  0.00    +0.040 A 
ATOM     33  C   UNL     1       4.580  -1.344  23.609  0.00  0.00    +0.040 A 
ATOM     34  C   UNL     1       5.442  -0.312  23.240  0.00  0.00    +0.124 A 
ENDBRANCH   7  28
ENDBRANCH  15   4
ENDBRANCH   9  15
BRANCH  11  16
ATOM     16  C   UNL     1      -3.489   4.456  23.728  0.00  0.00    +0.082 C 
BRANCH  16  20
ATOM      5  N   UNL     1      -2.580   3.863  25.982  0.00  0.00    -0.342 N 
ATOM      6  N   UNL     1      -1.217   3.509  24.262  0.00  0.00    -0.232 NA
ATOM     20  C   UNL     1      -2.405   3.936  24.629  0.00  0.00    +0.109 A 
ATOM     22  C   UNL     1      -1.427   3.355  26.527  0.00  0.00    +0.070 A 
ATOM     23  C   UNL     1      -0.593   3.142  25.433  0.00  0.00    +0.089 A 
ATOM     24  C   UNL     1      -1.055   3.072  27.841  0.00  0.00    +0.073 A 
ATOM     25  C   UNL     1       0.693   2.617  25.645  0.00  0.00    +0.033 A 
ATOM     26  C   UNL     1       0.227   2.550  28.034  0.00  0.00    +0.122 A 
ATOM     27  C   UNL     1       1.088   2.325  26.956  0.00  0.00    +0.048 A 
ATOM     36  H   UNL     1      -3.409   4.134  26.493  0.00  0.00    +0.167 HD
BRANCH  26   3
ATOM      3  O   UNL     1       0.645   2.255  29.298  0.00  0.00    -0.495 OA
ATOM     31  C   UNL     1       2.045   2.335  29.551  0.00  0.00    +0.277 C 
ENDBRANCH  26   3
ENDBRANCH  16  20
ENDBRANCH  11  16
TORSDOF 7
ENDMDL
MODEL 5
REMARK VINA RESULT:       5.3      1.874      4.500
REMARK  Name = 75536153
REMARK  11 active torsions:
REMARK  status: ('A' for Active; 'I' for Inactive)
REMARK    1  A    between atoms: O_3  and  C_26
REMARK    2  A    between atoms: O_3  and  C_31
REMARK    3  A    between atoms: N_4  and  C_15
REMARK    4  A    between atoms: N_7  and  C_28
REMARK    5  A    between atoms: C_8  and  C_12
REMARK    6  A    between atoms: C_9  and  C_15
REMARK    7  A    between atoms: C_11  and  C_16
REMARK    8  A    between atoms: C_12  and  C_17
REMARK    9  A    between atoms: C_12  and  C_18
REMARK   10  A    between atoms: C_13  and  C_19
REMARK   11  A    between atoms: C_16  and  C_20
REMARK                            x       y       z     vdW  Elec       q    Type
REMARK                         _______ _______ _______ _____ _____    ______ ____
ROOT
ATOM      8  C   UNL     1      -2.694  -0.383  24.677  0.00  0.00    +0.000 C 
ATOM      9  C   UNL     1      -3.040   0.185  23.278  0.00  0.00    +0.032 C 
ATOM     10  C   UNL     1      -3.952  -0.953  25.351  0.00  0.00    +0.012 C 
ATOM     11  C   UNL     1      -5.056   0.109  25.514  0.00  0.00    +0.022 C 
ATOM     13  C   UNL     1      -5.270   0.900  24.240  0.00  0.00    -0.073 C 
ATOM     14  C   UNL     1      -4.365   0.912  23.246  0.00  0.00    -0.022 C 
ATOM     19  C   UNL     1      -6.571   1.642  24.115  0.00  0.00    +0.039 C 
ENDROOT
BRANCH   8  12
ATOM     12  C   UNL     1      -1.612  -1.465  24.599  0.00  0.00    -0.013 C 
ATOM     17  C   UNL     1      -0.657  -1.348  25.782  0.00  0.00    +0.007 C 
ATOM     18  C   UNL     1      -2.248  -2.850  24.552  0.00  0.00    +0.007 C 
ENDBRANCH   8  12
BRANCH   9  15
ATOM     15  C   UNL     1      -1.935   1.118  22.770  0.00  0.00    +0.113 C 
BRANCH  15   4
ATOM      2  O   UNL     1       0.656   1.636  23.877  0.00  0.00    -0.253 OA
ATOM      4  N   UNL     1      -0.734   0.390  22.510  0.00  0.00    -0.299 N 
ATOM      7  N   UNL     1       1.500  -0.180  22.653  0.00  0.00    -0.269 N 
ATOM     21  C   UNL     1       0.509   0.703  23.092  0.00  0.00    +0.304 C 
ATOM     35  H   UNL     1      -0.787  -0.439  21.926  0.00  0.00    +0.150 HD
ATOM     37  H   UNL     1       1.210  -0.901  21.997  0.00  0.00    +0.156 HD
BRANCH   7  28
ATOM      1  F   UNL     1       6.866  -0.236  24.041  0.00  0.00    -0.205 F 
ATOM     28  C   UNL     1       2.868  -0.194  23.007  0.00  0.00    +0.035 A 
ATOM     29  C   UNL     1       3.663   0.927  22.767  0.00  0.00    +0.026 A 
ATOM     30  C   UNL     1       3.424  -1.330  23.596  0.00  0.00    +0.026 A 
ATOM     32  C   UNL     1       5.013   0.913  23.117  0.00  0.00    +0.040 A 
ATOM     33  C   UNL     1       4.775  -1.344  23.946  0.00  0.00    +0.040 A 
ATOM     34  C   UNL     1       5.569  -0.223  23.707  0.00  0.00    +0.124 A 
ENDBRANCH   7  28
ENDBRANCH  15   4
ENDBRANCH   9  15
BRANCH  11  16
ATOM     16  C   UNL     1      -4.757   1.040  26.695  0.00  0.00    +0.082 C 
BRANCH  16  20
ATOM      5  N   UNL     1      -2.669   2.098  25.810  0.00  0.00    -0.342 N 
ATOM      6  N   UNL     1      -4.345   3.488  26.260  0.00  0.00    -0.232 NA
ATOM     20  C   UNL     1      -3.952   2.233  26.262  0.00  0.00    +0.109 A 
ATOM     22  C   UNL     1      -2.203   3.349  25.495  0.00  0.00    +0.070 A 
ATOM     23  C   UNL     1      -3.267   4.199  25.784  0.00  0.00    +0.089 A 
ATOM     24  C   UNL     1      -0.979   3.797  24.997  0.00  0.00    +0.073 A 
ATOM     25  C   UNL     1      -3.119   5.579  25.571  0.00  0.00    +0.033 A 
ATOM     26  C   UNL     1      -0.849   5.174  24.790  0.00  0.00    +0.122 A 
ATOM     27  C   UNL     1      -1.900   6.051  25.071  0.00  0.00    +0.048 A 
ATOM     36  H   UNL     1      -2.154   1.233  25.722  0.00  0.00    +0.167 HD
BRANCH  26   3
ATOM      3  O   UNL     1       0.326   5.668  24.305  0.00  0.00    -0.495 OA
ATOM     31  C   UNL     1       0.665   5.327  22.963  0.00  0.00    +0.277 C 
ENDBRANCH  26   3
ENDBRANCH  16  20
ENDBRANCH  11  16
TORSDOF 7
ENDMDL
MODEL 6
REMARK VINA RESULT:       5.5      1.498      3.124
REMARK  Name = 75536153
REMARK  11 active torsions:
REMARK  status: ('A' for Active; 'I' for Inactive)
REMARK    1  A    between atoms: O_3  and  C_26
REMARK    2  A    between atoms: O_3  and  C_31
REMARK    3  A    between atoms: N_4  and  C_15
REMARK    4  A    between atoms: N_7  and  C_28
REMARK    5  A    between atoms: C_8  and  C_12
REMARK    6  A    between atoms: C_9  and  C_15
REMARK    7  A    between atoms: C_11  and  C_16
REMARK    8  A    between atoms: C_12  and  C_17
REMARK    9  A    between atoms: C_12  and  C_18
REMARK   10  A    between atoms: C_13  and  C_19
REMARK   11  A    between atoms: C_16  and  C_20
REMARK                            x       y       z     vdW  Elec       q    Type
REMARK                         _______ _______ _______ _____ _____    ______ ____
ROOT
ATOM      8  C   UNL     1      -3.539   2.528  24.488  0.00  0.00    +0.000 C 
ATOM      9  C   UNL     1      -2.768   2.759  23.164  0.00  0.00    +0.032 C 
ATOM     10  C   UNL     1      -3.422   3.760  25.399  0.00  0.00    +0.012 C 
ATOM     11  C   UNL     1      -1.957   4.095  25.739  0.00  0.00    +0.022 C 
ATOM     13  C   UNL     1      -1.075   4.078  24.508  0.00  0.00    -0.073 C 
ATOM     14  C   UNL     1      -1.458   3.487  23.362  0.00  0.00    -0.022 C 
ATOM     19  C   UNL     1       0.243   4.794  24.610  0.00  0.00    +0.039 C 
ENDROOT
BRANCH   8  12
ATOM     12  C   UNL     1      -5.016   2.208  24.237  0.00  0.00    -0.013 C 
ATOM     17  C   UNL     1      -5.240   0.699  24.237  0.00  0.00    +0.007 C 
ATOM     18  C   UNL     1      -5.893   2.885  25.284  0.00  0.00    +0.007 C 
ENDBRANCH   8  12
BRANCH   9  15
ATOM     15  C   UNL     1      -2.509   1.435  22.436  0.00  0.00    +0.113 C 
BRANCH  15   4
ATOM      2  O   UNL     1      -0.365   0.326  23.978  0.00  0.00    -0.253 OA
ATOM      4  N   UNL     1      -1.140   1.330  22.043  0.00  0.00    -0.299 N 
ATOM      7  N   UNL     1       1.103   0.804  22.210  0.00  0.00    -0.269 N 
ATOM     21  C   UNL     1      -0.136   0.771  22.856  0.00  0.00    +0.304 C 
ATOM     35  H   UNL     1      -0.883   1.613  21.103  0.00  0.00    +0.150 HD
ATOM     37  H   UNL     1       1.120   1.211  21.278  0.00  0.00    +0.156 HD
BRANCH   7  28
ATOM      1  F   UNL     1       5.981  -1.015  24.112  0.00  0.00    -0.205 F 
ATOM     28  C   UNL     1       2.347   0.340  22.695  0.00  0.00    +0.035 A 
ATOM     29  C   UNL     1       2.454  -0.946  23.224  0.00  0.00    +0.026 A 
ATOM     30  C   UNL     1       3.468   1.169  22.644  0.00  0.00    +0.026 A 
ATOM     32  C   UNL     1       3.682  -1.404  23.702  0.00  0.00    +0.040 A 
ATOM     33  C   UNL     1       4.696   0.710  23.122  0.00  0.00    +0.040 A 
ATOM     34  C   UNL     1       4.803  -0.576  23.651  0.00  0.00    +0.124 A 
ENDBRANCH   7  28
ENDBRANCH  15   4
ENDBRANCH   9  15
BRANCH  11  16
ATOM     16  C   UNL     1      -1.412   3.154  26.819  0.00  0.00    +0.082 C 
BRANCH  16  20
ATOM      5  N   UNL     1      -2.694   1.154  26.034  0.00  0.00    -0.342 N 
ATOM      6  N   UNL     1      -0.507   0.859  26.304  0.00  0.00    -0.232 NA
ATOM     20  C   UNL     1      -1.500   1.717  26.390  0.00  0.00    +0.109 A 
ATOM     22  C   UNL     1      -2.456  -0.154  25.696  0.00  0.00    +0.070 A 
ATOM     23  C   UNL     1      -1.084  -0.313  25.872  0.00  0.00    +0.089 A 
ATOM     24  C   UNL     1      -3.297  -1.180  25.264  0.00  0.00    +0.073 A 
ATOM     25  C   UNL     1      -0.500  -1.563  25.608  0.00  0.00    +0.033 A 
ATOM     26  C   UNL     1      -2.699  -2.417  25.004  0.00  0.00    +0.122 A 
ATOM     27  C   UNL     1      -1.325  -2.607  25.172  0.00  0.00    +0.048 A 
ATOM     36  H   UNL     1      -3.592   1.617  26.021  0.00  0.00    +0.167 HD
BRANCH  26   3
ATOM      3  O   UNL     1      -3.473  -3.457  24.579  0.00  0.00    -0.495 OA
ATOM     31  C   UNL     1      -4.478  -3.161  23.614  0.00  0.00    +0.277 C 
ENDBRANCH  26   3
ENDBRANCH  16  20
ENDBRANCH  11  16
TORSDOF 7
ENDMDL
