MODEL 1
REMARK VINA RESULT:       6.7      0.000      0.000
REMARK  Name = 11911966
REMARK  2 active torsions:
REMARK  status: ('A' for Active; 'I' for Inactive)
REMARK    1  A    between atoms: C_17  and  C_20
REMARK    2  A    between atoms: C_18  and  C_21
REMARK                            x       y       z     vdW  Elec       q    Type
REMARK                         _______ _______ _______ _____ _____    ______ ____
ROOT
ATOM      2  O   UNL     1       0.336   2.233  25.517  0.00  0.00    -0.267 OA
ATOM      3  O   UNL     1      -3.830  -0.114  27.054  0.00  0.00    -0.268 OA
ATOM      4  N   UNL     1      -1.715   2.416  24.419  0.00  0.00    -0.311 N 
ATOM      5  N   UNL     1      -4.500   1.203  25.268  0.00  0.00    -0.295 N 
ATOM      8  C   UNL     1      -3.747   3.563  25.478  0.00  0.00    +0.027 C 
ATOM      9  C   UNL     1      -3.942   2.536  23.249  0.00  0.00    +0.054 C 
ATOM     10  C   UNL     1      -4.174   3.825  24.038  0.00  0.00    +0.018 C 
ATOM     11  C   UNL     1      -2.242   3.262  25.499  0.00  0.00    +0.130 C 
ATOM     12  C   UNL     1      -4.577   2.416  26.084  0.00  0.00    +0.113 C 
ATOM     13  C   UNL     1      -4.809   1.404  23.841  0.00  0.00    +0.117 C 
ATOM     14  C   UNL     1      -2.482   2.128  23.286  0.00  0.00    +0.027 A 
ATOM     15  C   UNL     1      -1.944   1.450  22.260  0.00  0.00    +0.022 A 
ATOM     16  C   UNL     1      -0.375   1.994  24.540  0.00  0.00    +0.260 A 
ATOM     17  C   UNL     1      -4.073  -0.005  25.852  0.00  0.00    +0.266 C 
ATOM     18  C   UNL     1       0.184   1.210  23.386  0.00  0.00    +0.053 A 
ATOM     19  C   UNL     1      -0.587   0.984  22.313  0.00  0.00    +0.016 A 
ENDROOT
BRANCH  18  21
ATOM      1  S   UNL     1       1.810  -0.935  23.747  0.00  0.00    -0.088 S 
ATOM     21  C   UNL     1       1.524   0.717  23.423  0.00  0.00    +0.026 A 
ATOM     22  C   UNL     1       2.703   1.406  23.224  0.00  0.00    +0.024 A 
ATOM     24  C   UNL     1       3.867   0.576  23.338  0.00  0.00    -0.010 A 
ATOM     25  C   UNL     1       3.520  -0.747  23.626  0.00  0.00    +0.020 A 
ATOM     26  C   UNL     1       5.241   0.894  23.207  0.00  0.00    +0.009 A 
ATOM     28  C   UNL     1       4.498  -1.748  23.784  0.00  0.00    +0.015 A 
ATOM     30  C   UNL     1       6.215  -0.097  23.363  0.00  0.00    +0.001 A 
ATOM     31  C   UNL     1       5.844  -1.404  23.649  0.00  0.00    +0.001 A 
ENDBRANCH  18  21
BRANCH  17  20
ATOM      6  N   UNL     1      -4.936  -1.451  24.171  0.00  0.00    -0.247 NA
ATOM      7  N   UNL     1      -2.545  -2.916  24.133  0.00  0.00    -0.259 NA
ATOM     20  C   UNL     1      -3.895  -1.146  24.964  0.00  0.00    +0.144 A 
ATOM     23  C   UNL     1      -2.721  -1.859  24.950  0.00  0.00    +0.143 A 
ATOM     27  C   UNL     1      -4.759  -2.508  23.354  0.00  0.00    +0.131 A 
ATOM     29  C   UNL     1      -3.584  -3.227  23.335  0.00  0.00    +0.130 A 
ENDBRANCH  17  20
TORSDOF 2
ENDMDL
MODEL 2
REMARK VINA RESULT:       8.6      0.806      1.384
REMARK  Name = 11911966
REMARK  2 active torsions:
REMARK  status: ('A' for Active; 'I' for Inactive)
REMARK    1  A    between atoms: C_17  and  C_20
REMARK    2  A    between atoms: C_18  and  C_21
REMARK                            x       y       z     vdW  Elec       q    Type
REMARK                         _______ _______ _______ _____ _____    ______ ____
ROOT
ATOM      2  O   UNL     1       0.248   2.308  25.425  0.00  0.00    -0.267 OA
ATOM      3  O   UNL     1      -3.943  -0.009  26.938  0.00  0.00    -0.268 OA
ATOM      4  N   UNL     1      -1.780   2.455  24.280  0.00  0.00    -0.311 N 
ATOM      5  N   UNL     1      -4.579   1.256  25.103  0.00  0.00    -0.295 N 
ATOM      8  C   UNL     1      -3.836   3.624  25.265  0.00  0.00    +0.027 C 
ATOM      9  C   UNL     1      -3.982   2.536  23.061  0.00  0.00    +0.054 C 
ATOM     10  C   UNL     1      -4.234   3.845  23.810  0.00  0.00    +0.018 C 
ATOM     11  C   UNL     1      -2.332   3.328  25.326  0.00  0.00    +0.130 C 
ATOM     12  C   UNL     1      -4.676   2.491  25.885  0.00  0.00    +0.113 C 
ATOM     13  C   UNL     1      -4.859   1.418  23.666  0.00  0.00    +0.117 C 
ATOM     14  C   UNL     1      -2.522   2.133  23.140  0.00  0.00    +0.027 A 
ATOM     15  C   UNL     1      -1.962   1.430  22.143  0.00  0.00    +0.022 A 
ATOM     16  C   UNL     1      -0.442   2.040  24.440  0.00  0.00    +0.260 A 
ATOM     17  C   UNL     1      -4.162   0.066  25.729  0.00  0.00    +0.266 C 
ATOM     18  C   UNL     1       0.143   1.227  23.320  0.00  0.00    +0.053 A 
ATOM     19  C   UNL     1      -0.605   0.970  22.237  0.00  0.00    +0.016 A 
ENDROOT
BRANCH  18  21
ATOM      1  S   UNL     1       2.789   1.800  23.103  0.00  0.00    -0.088 S 
ATOM     21  C   UNL     1       1.483   0.739  23.398  0.00  0.00    +0.026 A 
ATOM     22  C   UNL     1       1.922  -0.535  23.693  0.00  0.00    +0.024 A 
ATOM     24  C   UNL     1       3.352  -0.656  23.680  0.00  0.00    -0.010 A 
ATOM     25  C   UNL     1       3.960   0.563  23.367  0.00  0.00    +0.020 A 
ATOM     26  C   UNL     1       4.183  -1.775  23.925  0.00  0.00    +0.009 A 
ATOM     28  C   UNL     1       5.361   0.691  23.295  0.00  0.00    +0.015 A 
ATOM     30  C   UNL     1       5.574  -1.653  23.855  0.00  0.00    +0.001 A 
ATOM     31  C   UNL     1       6.154  -0.431  23.542  0.00  0.00    +0.001 A 
ENDBRANCH  18  21
BRANCH  17  20
ATOM      6  N   UNL     1      -2.687  -1.420  24.598  0.00  0.00    -0.247 NA
ATOM      7  N   UNL     1      -4.855  -2.893  23.602  0.00  0.00    -0.259 NA
ATOM     20  C   UNL     1      -3.962  -1.097  24.877  0.00  0.00    +0.144 A 
ATOM     23  C   UNL     1      -5.028  -1.815  24.392  0.00  0.00    +0.143 A 
ATOM     27  C   UNL     1      -2.515  -2.498  23.808  0.00  0.00    +0.131 A 
ATOM     29  C   UNL     1      -3.580  -3.222  23.319  0.00  0.00    +0.130 A 
ENDBRANCH  17  20
TORSDOF 2
ENDMDL
