MODEL 1
REMARK VINA RESULT:      -6.3      0.000      0.000
REMARK  Name = 86769004
REMARK  7 active torsions:
REMARK  status: ('A' for Active; 'I' for Inactive)
REMARK    1  A    between atoms: O_3  and  C_12
REMARK    2  A    between atoms: N_5  and  C_10
REMARK    3  A    between atoms: N_5  and  C_11
REMARK    4  A    between atoms: N_6  and  C_15
REMARK    5  A    between atoms: C_7  and  C_10
REMARK    6  A    between atoms: C_13  and  C_15
REMARK    7  A    between atoms: C_16  and  C_17
REMARK                            x       y       z     vdW  Elec       q    Type
REMARK                         _______ _______ _______ _____ _____    ______ ____
ROOT
ATOM      2  O   UNL     1      -1.598  -2.413  23.754  0.00  0.00    -0.371 OA
ATOM     11  C   UNL     1      -0.021  -0.801  24.498  0.00  0.00    +0.111 C 
ATOM     12  C   UNL     1      -1.232  -0.766  25.412  0.00  0.00    +0.164 C 
ATOM     13  C   UNL     1      -1.842  -2.136  25.143  0.00  0.00    +0.165 C 
ATOM     14  C   UNL     1      -0.585  -1.510  23.277  0.00  0.00    +0.181 C 
ENDROOT
BRANCH  12   3
ATOM      3  O   UNL     1      -0.885  -0.601  26.773  0.00  0.00    -0.388 OA
ATOM     24  H   UNL     1      -0.119  -0.004  26.822  0.00  0.00    +0.210 HD
ENDBRANCH  12   3
BRANCH  11   5
ATOM      5  N   UNL     1       0.515   0.515  24.190  0.00  0.00    -0.309 NA
ATOM     23  H   UNL     1       0.952   0.490  23.268  0.00  0.00    +0.122 HD
BRANCH   5  10
ATOM     10  C   UNL     1      -0.538   1.524  24.184  0.00  0.00    +0.084 C 
BRANCH  10   7
ATOM      7  C   UNL     1      -0.203   2.666  25.086  0.00  0.00    +0.003 C 
ATOM      8  C   UNL     1      -1.211   3.164  26.084  0.00  0.00    +0.005 C 
ATOM      9  C   UNL     1      -0.860   4.004  24.889  0.00  0.00    +0.005 C 
ENDBRANCH  10   7
ENDBRANCH   5  10
ENDBRANCH  11   5
BRANCH  13  15
ATOM     15  C   UNL     1      -3.331  -2.197  25.425  0.00  0.00    +0.138 C 
BRANCH  15   6
ATOM      4  O   UNL     1      -3.935  -0.348  23.314  0.00  0.00    -0.270 OA
ATOM      6  N   UNL     1      -3.872  -0.862  25.573  0.00  0.00    -0.309 N 
ATOM     16  C   UNL     1      -4.131  -0.043  24.487  0.00  0.00    +0.244 C 
ATOM     25  H   UNL     1      -3.988  -0.521  26.522  0.00  0.00    +0.149 HD
BRANCH  16  17
ATOM      1  F   UNL     1      -6.131   5.061  25.700  0.00  0.00    -0.205 F 
ATOM     17  C   UNL     1      -4.660   1.307  24.808  0.00  0.00    +0.037 A 
ATOM     18  C   UNL     1      -4.115   2.434  24.192  0.00  0.00    +0.016 A 
ATOM     19  C   UNL     1      -5.701   1.449  25.726  0.00  0.00    +0.016 A 
ATOM     20  C   UNL     1      -4.612   3.702  24.493  0.00  0.00    +0.039 A 
ATOM     21  C   UNL     1      -6.197   2.717  26.028  0.00  0.00    +0.039 A 
ATOM     22  C   UNL     1      -5.653   3.844  25.410  0.00  0.00    +0.123 A 
ENDBRANCH  16  17
ENDBRANCH  15   6
ENDBRANCH  13  15
TORSDOF 7
ENDMDL
MODEL 2
REMARK VINA RESULT:      -5.5      2.999      5.464
REMARK  Name = 86769004
REMARK  7 active torsions:
REMARK  status: ('A' for Active; 'I' for Inactive)
REMARK    1  A    between atoms: O_3  and  C_12
REMARK    2  A    between atoms: N_5  and  C_10
REMARK    3  A    between atoms: N_5  and  C_11
REMARK    4  A    between atoms: N_6  and  C_15
REMARK    5  A    between atoms: C_7  and  C_10
REMARK    6  A    between atoms: C_13  and  C_15
REMARK    7  A    between atoms: C_16  and  C_17
REMARK                            x       y       z     vdW  Elec       q    Type
REMARK                         _______ _______ _______ _____ _____    ______ ____
ROOT
ATOM      2  O   UNL     1      -0.111   4.027  24.589  0.00  0.00    -0.371 OA
ATOM     11  C   UNL     1      -2.403   4.602  24.825  0.00  0.00    +0.111 C 
ATOM     12  C   UNL     1      -2.070   3.486  25.798  0.00  0.00    +0.164 C 
ATOM     13  C   UNL     1      -0.556   3.622  25.894  0.00  0.00    +0.165 C 
ATOM     14  C   UNL     1      -1.246   4.501  23.844  0.00  0.00    +0.181 C 
ENDROOT
BRANCH  12   3
ATOM      3  O   UNL     1      -2.696   3.653  27.056  0.00  0.00    -0.388 OA
ATOM     24  H   UNL     1      -3.066   4.552  27.096  0.00  0.00    +0.210 HD
ENDBRANCH  12   3
BRANCH  11   5
ATOM      5  N   UNL     1      -3.701   4.452  24.187  0.00  0.00    -0.309 NA
ATOM     23  H   UNL     1      -3.711   4.990  23.320  0.00  0.00    +0.122 HD
BRANCH   5  10
ATOM     10  C   UNL     1      -3.975   3.055  23.875  0.00  0.00    +0.084 C 
BRANCH  10   7
ATOM      7  C   UNL     1      -5.310   2.633  24.396  0.00  0.00    +0.003 C 
ATOM      8  C   UNL     1      -5.801   3.139  25.724  0.00  0.00    +0.005 C 
ATOM      9  C   UNL     1      -5.405   1.698  25.570  0.00  0.00    +0.005 C 
ENDBRANCH  10   7
ENDBRANCH   5  10
ENDBRANCH  11   5
BRANCH  13  15
ATOM     15  C   UNL     1       0.138   2.335  26.297  0.00  0.00    +0.138 C 
BRANCH  15   6
ATOM      4  O   UNL     1       0.011   0.909  23.809  0.00  0.00    -0.270 OA
ATOM      6  N   UNL     1      -0.700   1.193  25.997  0.00  0.00    -0.309 N 
ATOM     16  C   UNL     1      -0.688   0.571  24.760  0.00  0.00    +0.244 C 
ATOM     25  H   UNL     1      -1.357   0.909  26.717  0.00  0.00    +0.149 HD
BRANCH  16  17
ATOM      1  F   UNL     1      -4.233  -3.742  24.166  0.00  0.00    -0.205 F 
ATOM     17  C   UNL     1      -1.626  -0.570  24.603  0.00  0.00    +0.037 A 
ATOM     18  C   UNL     1      -2.977  -0.333  24.345  0.00  0.00    +0.016 A 
ATOM     19  C   UNL     1      -1.158  -1.879  24.713  0.00  0.00    +0.016 A 
ATOM     20  C   UNL     1      -3.857  -1.404  24.197  0.00  0.00    +0.039 A 
ATOM     21  C   UNL     1      -2.038  -2.951  24.566  0.00  0.00    +0.039 A 
ATOM     22  C   UNL     1      -3.388  -2.713  24.307  0.00  0.00    +0.123 A 
ENDBRANCH  16  17
ENDBRANCH  15   6
ENDBRANCH  13  15
TORSDOF 7
ENDMDL
MODEL 3
REMARK VINA RESULT:      -4.6      1.670      2.308
REMARK  Name = 86769004
REMARK  7 active torsions:
REMARK  status: ('A' for Active; 'I' for Inactive)
REMARK    1  A    between atoms: O_3  and  C_12
REMARK    2  A    between atoms: N_5  and  C_10
REMARK    3  A    between atoms: N_5  and  C_11
REMARK    4  A    between atoms: N_6  and  C_15
REMARK    5  A    between atoms: C_7  and  C_10
REMARK    6  A    between atoms: C_13  and  C_15
REMARK    7  A    between atoms: C_16  and  C_17
REMARK                            x       y       z     vdW  Elec       q    Type
REMARK                         _______ _______ _______ _____ _____    ______ ____
ROOT
ATOM      2  O   UNL     1      -1.573  -2.675  23.855  0.00  0.00    -0.371 OA
ATOM     11  C   UNL     1       0.009  -0.979  24.367  0.00  0.00    +0.111 C 
ATOM     12  C   UNL     1      -1.197  -0.820  25.274  0.00  0.00    +0.164 C 
ATOM     13  C   UNL     1      -1.809  -2.213  25.196  0.00  0.00    +0.165 C 
ATOM     14  C   UNL     1      -0.562  -1.846  23.256  0.00  0.00    +0.181 C 
ENDROOT
BRANCH  12   3
ATOM      3  O   UNL     1      -0.842  -0.473  26.599  0.00  0.00    -0.388 OA
ATOM     24  H   UNL     1      -0.684  -1.293  27.097  0.00  0.00    +0.210 HD
ENDBRANCH  12   3
BRANCH  11   5
ATOM      5  N   UNL     1       0.544   0.282  23.881  0.00  0.00    -0.309 NA
ATOM     23  H   UNL     1       0.998   0.772  24.654  0.00  0.00    +0.122 HD
BRANCH   5  10
ATOM     10  C   UNL     1       1.523   0.066  22.823  0.00  0.00    +0.084 C 
BRANCH  10   7
ATOM      7  C   UNL     1       2.823   0.729  23.140  0.00  0.00    +0.003 C 
ATOM      8  C   UNL     1       3.926   0.764  22.118  0.00  0.00    +0.005 C 
ATOM      9  C   UNL     1       4.064  -0.096  23.343  0.00  0.00    +0.005 C 
ENDBRANCH  10   7
ENDBRANCH   5  10
ENDBRANCH  11   5
BRANCH  13  15
ATOM     15  C   UNL     1      -3.297  -2.232  25.492  0.00  0.00    +0.138 C 
BRANCH  15   6
ATOM      4  O   UNL     1      -4.024  -0.452  23.360  0.00  0.00    -0.270 OA
ATOM      6  N   UNL     1      -3.803  -0.882  25.627  0.00  0.00    -0.309 N 
ATOM     16  C   UNL     1      -4.127  -0.100  24.532  0.00  0.00    +0.244 C 
ATOM     25  H   UNL     1      -3.843  -0.504  26.568  0.00  0.00    +0.149 HD
BRANCH  16  17
ATOM      1  F   UNL     1      -5.946   5.085  25.689  0.00  0.00    -0.205 F 
ATOM     17  C   UNL     1      -4.608   1.271  24.839  0.00  0.00    +0.037 A 
ATOM     18  C   UNL     1      -3.870   2.379  24.421  0.00  0.00    +0.016 A 
ATOM     19  C   UNL     1      -5.798   1.453  25.543  0.00  0.00    +0.016 A 
ATOM     20  C   UNL     1      -4.321   3.667  24.708  0.00  0.00    +0.039 A 
ATOM     21  C   UNL     1      -6.250   2.741  25.831  0.00  0.00    +0.039 A 
ATOM     22  C   UNL     1      -5.511   3.848  25.413  0.00  0.00    +0.123 A 
ENDBRANCH  16  17
ENDBRANCH  15   6
ENDBRANCH  13  15
TORSDOF 7
ENDMDL
MODEL 4
REMARK VINA RESULT:      -4.3      3.012      5.487
REMARK  Name = 86769004
REMARK  7 active torsions:
REMARK  status: ('A' for Active; 'I' for Inactive)
REMARK    1  A    between atoms: O_3  and  C_12
REMARK    2  A    between atoms: N_5  and  C_10
REMARK    3  A    between atoms: N_5  and  C_11
REMARK    4  A    between atoms: N_6  and  C_15
REMARK    5  A    between atoms: C_7  and  C_10
REMARK    6  A    between atoms: C_13  and  C_15
REMARK    7  A    between atoms: C_16  and  C_17
REMARK                            x       y       z     vdW  Elec       q    Type
REMARK                         _______ _______ _______ _____ _____    ______ ____
ROOT
ATOM      2  O   UNL     1      -5.730   3.354  25.887  0.00  0.00    -0.371 OA
ATOM     11  C   UNL     1      -3.972   4.394  24.675  0.00  0.00    +0.111 C 
ATOM     12  C   UNL     1      -4.043   2.930  24.284  0.00  0.00    +0.164 C 
ATOM     13  C   UNL     1      -5.466   2.583  24.703  0.00  0.00    +0.165 C 
ATOM     14  C   UNL     1      -4.740   4.393  25.987  0.00  0.00    +0.181 C 
ENDROOT
BRANCH  12   3
ATOM      3  O   UNL     1      -3.835   2.723  22.900  0.00  0.00    -0.388 OA
ATOM     24  H   UNL     1      -3.770   1.766  22.741  0.00  0.00    +0.210 HD
ENDBRANCH  12   3
BRANCH  11   5
ATOM      5  N   UNL     1      -2.614   4.895  24.815  0.00  0.00    -0.309 NA
ATOM     23  H   UNL     1      -2.648   5.871  25.115  0.00  0.00    +0.122 HD
BRANCH   5  10
ATOM     10  C   UNL     1      -1.869   4.126  25.804  0.00  0.00    +0.084 C 
BRANCH  10   7
ATOM      7  C   UNL     1      -0.546   3.686  25.268  0.00  0.00    +0.003 C 
ATOM      8  C   UNL     1      -0.443   2.436  24.440  0.00  0.00    +0.005 C 
ATOM      9  C   UNL     1       0.130   2.466  25.828  0.00  0.00    +0.005 C 
ENDBRANCH  10   7
ENDBRANCH   5  10
ENDBRANCH  11   5
BRANCH  13  15
ATOM     15  C   UNL     1      -5.662   1.107  24.996  0.00  0.00    +0.138 C 
BRANCH  15   6
ATOM      4  O   UNL     1      -4.836  -1.387  23.839  0.00  0.00    -0.270 OA
ATOM      6  N   UNL     1      -4.383   0.453  25.175  0.00  0.00    -0.309 N 
ATOM     16  C   UNL     1      -4.079  -0.755  24.571  0.00  0.00    +0.244 C 
ATOM     25  H   UNL     1      -3.738   0.886  25.827  0.00  0.00    +0.149 HD
BRANCH  16  17
ATOM      1  F   UNL     1       1.005  -2.843  25.723  0.00  0.00    -0.205 F 
ATOM     17  C   UNL     1      -2.734  -1.308  24.875  0.00  0.00    +0.037 A 
ATOM     18  C   UNL     1      -1.884  -0.631  25.751  0.00  0.00    +0.016 A 
ATOM     19  C   UNL     1      -2.320  -2.502  24.286  0.00  0.00    +0.016 A 
ATOM     20  C   UNL     1      -0.622  -1.149  26.038  0.00  0.00    +0.039 A 
ATOM     21  C   UNL     1      -1.057  -3.021  24.572  0.00  0.00    +0.039 A 
ATOM     22  C   UNL     1      -0.208  -2.344  25.449  0.00  0.00    +0.123 A 
ENDBRANCH  16  17
ENDBRANCH  15   6
ENDBRANCH  13  15
TORSDOF 7
ENDMDL
MODEL 5
REMARK VINA RESULT:      -4.2      3.014      5.168
REMARK  Name = 86769004
REMARK  7 active torsions:
REMARK  status: ('A' for Active; 'I' for Inactive)
REMARK    1  A    between atoms: O_3  and  C_12
REMARK    2  A    between atoms: N_5  and  C_10
REMARK    3  A    between atoms: N_5  and  C_11
REMARK    4  A    between atoms: N_6  and  C_15
REMARK    5  A    between atoms: C_7  and  C_10
REMARK    6  A    between atoms: C_13  and  C_15
REMARK    7  A    between atoms: C_16  and  C_17
REMARK                            x       y       z     vdW  Elec       q    Type
REMARK                         _______ _______ _______ _____ _____    ______ ____
ROOT
ATOM      2  O   UNL     1      -3.714   3.873  26.924  0.00  0.00    -0.371 OA
ATOM     11  C   UNL     1      -2.052   4.490  25.343  0.00  0.00    +0.111 C 
ATOM     12  C   UNL     1      -3.291   4.023  24.602  0.00  0.00    +0.164 C 
ATOM     13  C   UNL     1      -4.357   4.188  25.678  0.00  0.00    +0.165 C 
ATOM     14  C   UNL     1      -2.290   3.903  26.725  0.00  0.00    +0.181 C 
ENDROOT
BRANCH  12   3
ATOM      3  O   UNL     1      -3.570   4.807  23.458  0.00  0.00    -0.388 OA
ATOM     24  H   UNL     1      -3.064   5.635  23.523  0.00  0.00    +0.210 HD
ENDBRANCH  12   3
BRANCH  11   5
ATOM      5  N   UNL     1      -0.808   4.037  24.743  0.00  0.00    -0.309 NA
ATOM     23  H   UNL     1      -0.129   4.799  24.768  0.00  0.00    +0.122 HD
BRANCH   5  10
ATOM     10  C   UNL     1      -0.260   2.895  25.465  0.00  0.00    +0.084 C 
BRANCH  10   7
ATOM      7  C   UNL     1       0.147   1.804  24.530  0.00  0.00    +0.003 C 
ATOM      8  C   UNL     1      -0.857   1.197  23.590  0.00  0.00    +0.005 C 
ATOM      9  C   UNL     1      -0.336   0.398  24.751  0.00  0.00    +0.005 C 
ENDBRANCH  10   7
ENDBRANCH   5  10
ENDBRANCH  11   5
BRANCH  13  15
ATOM     15  C   UNL     1      -5.558   3.284  25.476  0.00  0.00    +0.138 C 
BRANCH  15   6
ATOM      4  O   UNL     1      -4.129   1.872  23.425  0.00  0.00    -0.270 OA
ATOM      6  N   UNL     1      -5.155   1.893  25.503  0.00  0.00    -0.309 N 
ATOM     16  C   UNL     1      -4.465   1.302  24.459  0.00  0.00    +0.244 C 
ATOM     25  H   UNL     1      -5.466   1.345  26.299  0.00  0.00    +0.149 HD
BRANCH  16  17
ATOM      1  F   UNL     1      -3.265  -4.145  25.108  0.00  0.00    -0.205 F 
ATOM     17  C   UNL     1      -4.147  -0.139  24.630  0.00  0.00    +0.037 A 
ATOM     18  C   UNL     1      -3.573  -0.590  25.819  0.00  0.00    +0.016 A 
ATOM     19  C   UNL     1      -4.423  -1.042  23.603  0.00  0.00    +0.016 A 
ATOM     20  C   UNL     1      -3.275  -1.942  25.981  0.00  0.00    +0.039 A 
ATOM     21  C   UNL     1      -4.124  -2.395  23.764  0.00  0.00    +0.039 A 
ATOM     22  C   UNL     1      -3.550  -2.845  24.954  0.00  0.00    +0.123 A 
ENDBRANCH  16  17
ENDBRANCH  15   6
ENDBRANCH  13  15
TORSDOF 7
ENDMDL
MODEL 6
REMARK VINA RESULT:      -4.1      2.977      5.566
REMARK  Name = 86769004
REMARK  7 active torsions:
REMARK  status: ('A' for Active; 'I' for Inactive)
REMARK    1  A    between atoms: O_3  and  C_12
REMARK    2  A    between atoms: N_5  and  C_10
REMARK    3  A    between atoms: N_5  and  C_11
REMARK    4  A    between atoms: N_6  and  C_15
REMARK    5  A    between atoms: C_7  and  C_10
REMARK    6  A    between atoms: C_13  and  C_15
REMARK    7  A    between atoms: C_16  and  C_17
REMARK                            x       y       z     vdW  Elec       q    Type
REMARK                         _______ _______ _______ _____ _____    ______ ____
ROOT
ATOM      2  O   UNL     1      -5.855   1.110  25.879  0.00  0.00    -0.371 OA
ATOM     11  C   UNL     1      -5.206   3.279  25.162  0.00  0.00    +0.111 C 
ATOM     12  C   UNL     1      -4.306   2.251  24.503  0.00  0.00    +0.164 C 
ATOM     13  C   UNL     1      -5.156   0.993  24.629  0.00  0.00    +0.165 C 
ATOM     14  C   UNL     1      -5.783   2.478  26.318  0.00  0.00    +0.181 C 
ENDROOT
BRANCH  12   3
ATOM      3  O   UNL     1      -4.018   2.561  23.154  0.00  0.00    -0.388 OA
ATOM     24  H   UNL     1      -4.523   1.953  22.586  0.00  0.00    +0.210 HD
ENDBRANCH  12   3
BRANCH  11   5
ATOM      5  N   UNL     1      -4.505   4.476  25.598  0.00  0.00    -0.309 NA
ATOM     23  H   UNL     1      -5.029   4.912  26.358  0.00  0.00    +0.122 HD
BRANCH   5  10
ATOM     10  C   UNL     1      -3.165   4.155  26.076  0.00  0.00    +0.084 C 
BRANCH  10   7
ATOM      7  C   UNL     1      -2.144   4.346  25.002  0.00  0.00    +0.003 C 
ATOM      8  C   UNL     1      -0.680   4.226  25.319  0.00  0.00    +0.005 C 
ATOM      9  C   UNL     1      -1.270   5.570  24.998  0.00  0.00    +0.005 C 
ENDBRANCH  10   7
ENDBRANCH   5  10
ENDBRANCH  11   5
BRANCH  13  15
ATOM     15  C   UNL     1      -4.340  -0.286  24.614  0.00  0.00    +0.138 C 
BRANCH  15   6
ATOM      4  O   UNL     1      -1.895  -0.752  26.044  0.00  0.00    -0.270 OA
ATOM      6  N   UNL     1      -2.997  -0.025  24.139  0.00  0.00    -0.309 N 
ATOM     16  C   UNL     1      -1.877  -0.285  24.909  0.00  0.00    +0.244 C 
ATOM     25  H   UNL     1      -2.915   0.431  23.236  0.00  0.00    +0.149 HD
BRANCH  16  17
ATOM      1  F   UNL     1       3.050   1.032  22.560  0.00  0.00    -0.205 F 
ATOM     17  C   UNL     1      -0.573   0.064  24.288  0.00  0.00    +0.037 A 
ATOM     18  C   UNL     1       0.065  -0.849  23.447  0.00  0.00    +0.016 A 
ATOM     19  C   UNL     1       0.014   1.303  24.544  0.00  0.00    +0.016 A 
ATOM     20  C   UNL     1       1.289  -0.523  22.863  0.00  0.00    +0.039 A 
ATOM     21  C   UNL     1       1.238   1.630  23.961  0.00  0.00    +0.039 A 
ATOM     22  C   UNL     1       1.875   0.717  23.120  0.00  0.00    +0.123 A 
ENDBRANCH  16  17
ENDBRANCH  15   6
ENDBRANCH  13  15
TORSDOF 7
ENDMDL
MODEL 7
REMARK VINA RESULT:      -3.8     15.054     17.085
REMARK  Name = 86769004
REMARK  7 active torsions:
REMARK  status: ('A' for Active; 'I' for Inactive)
REMARK    1  A    between atoms: O_3  and  C_12
REMARK    2  A    between atoms: N_5  and  C_10
REMARK    3  A    between atoms: N_5  and  C_11
REMARK    4  A    between atoms: N_6  and  C_15
REMARK    5  A    between atoms: C_7  and  C_10
REMARK    6  A    between atoms: C_13  and  C_15
REMARK    7  A    between atoms: C_16  and  C_17
REMARK                            x       y       z     vdW  Elec       q    Type
REMARK                         _______ _______ _______ _____ _____    ______ ____
ROOT
ATOM      2  O   UNL     1      -6.780  -8.492  11.485  0.00  0.00    -0.371 OA
ATOM     11  C   UNL     1      -5.401  -8.957   9.608  0.00  0.00    +0.111 C 
ATOM     12  C   UNL     1      -6.271 -10.166   9.893  0.00  0.00    +0.164 C 
ATOM     13  C   UNL     1      -7.393  -9.536  10.708  0.00  0.00    +0.165 C 
ATOM     14  C   UNL     1      -5.485  -8.207  10.928  0.00  0.00    +0.181 C 
ENDROOT
BRANCH  12   3
ATOM      3  O   UNL     1      -6.756 -10.780   8.715  0.00  0.00    -0.388 OA
ATOM     24  H   UNL     1      -7.475 -11.388   8.960  0.00  0.00    +0.210 HD
ENDBRANCH  12   3
BRANCH  11   5
ATOM      5  N   UNL     1      -4.036  -9.294   9.236  0.00  0.00    -0.309 NA
ATOM     23  H   UNL     1      -3.440  -8.479   9.379  0.00  0.00    +0.122 HD
BRANCH   5  10
ATOM     10  C   UNL     1      -3.528 -10.396  10.044  0.00  0.00    +0.084 C 
BRANCH  10   7
ATOM      7  C   UNL     1      -2.765  -9.896  11.227  0.00  0.00    +0.003 C 
ATOM      8  C   UNL     1      -1.760 -10.781  11.911  0.00  0.00    +0.005 C 
ATOM      9  C   UNL     1      -3.052 -10.441  12.599  0.00  0.00    +0.005 C 
ENDBRANCH  10   7
ENDBRANCH   5  10
ENDBRANCH  11   5
BRANCH  13  15
ATOM     15  C   UNL     1      -8.092 -10.518  11.629  0.00  0.00    +0.138 C 
BRANCH  15   6
ATOM      4  O   UNL     1      -9.006  -9.422  14.120  0.00  0.00    -0.270 OA
ATOM      6  N   UNL     1      -7.412 -10.587  12.905  0.00  0.00    -0.309 N 
ATOM     16  C   UNL     1      -7.938 -10.024  14.056  0.00  0.00    +0.244 C 
ATOM     25  H   UNL     1      -6.488 -11.008  12.906  0.00  0.00    +0.149 HD
BRANCH  16  17
ATOM      1  F   UNL     1      -4.791 -10.534  18.678  0.00  0.00    -0.205 F 
ATOM     17  C   UNL     1      -7.105 -10.159  15.278  0.00  0.00    +0.037 A 
ATOM     18  C   UNL     1      -7.715 -10.283  16.527  0.00  0.00    +0.016 A 
ATOM     19  C   UNL     1      -5.714 -10.160  15.179  0.00  0.00    +0.016 A 
ATOM     20  C   UNL     1      -6.934 -10.410  17.675  0.00  0.00    +0.039 A 
ATOM     21  C   UNL     1      -4.932 -10.287  16.327  0.00  0.00    +0.039 A 
ATOM     22  C   UNL     1      -5.542 -10.412  17.576  0.00  0.00    +0.123 A 
ENDBRANCH  16  17
ENDBRANCH  15   6
ENDBRANCH  13  15
TORSDOF 7
ENDMDL
MODEL 8
REMARK VINA RESULT:      -3.4      3.342      6.479
REMARK  Name = 86769004
REMARK  7 active torsions:
REMARK  status: ('A' for Active; 'I' for Inactive)
REMARK    1  A    between atoms: O_3  and  C_12
REMARK    2  A    between atoms: N_5  and  C_10
REMARK    3  A    between atoms: N_5  and  C_11
REMARK    4  A    between atoms: N_6  and  C_15
REMARK    5  A    between atoms: C_7  and  C_10
REMARK    6  A    between atoms: C_13  and  C_15
REMARK    7  A    between atoms: C_16  and  C_17
REMARK                            x       y       z     vdW  Elec       q    Type
REMARK                         _______ _______ _______ _____ _____    ______ ____
ROOT
ATOM      2  O   UNL     1      -3.217   3.732  23.444  0.00  0.00    -0.371 OA
ATOM     11  C   UNL     1      -5.008   2.610  24.527  0.00  0.00    +0.111 C 
ATOM     12  C   UNL     1      -3.977   3.012  25.565  0.00  0.00    +0.164 C 
ATOM     13  C   UNL     1      -3.235   4.119  24.829  0.00  0.00    +0.165 C 
ATOM     14  C   UNL     1      -4.195   2.696  23.245  0.00  0.00    +0.181 C 
ENDROOT
BRANCH  12   3
ATOM      3  O   UNL     1      -4.563   3.476  26.766  0.00  0.00    -0.388 OA
ATOM     24  H   UNL     1      -3.869   3.896  27.302  0.00  0.00    +0.210 HD
ENDBRANCH  12   3
BRANCH  11   5
ATOM      5  N   UNL     1      -5.576   1.289  24.748  0.00  0.00    -0.309 NA
ATOM     23  H   UNL     1      -5.893   0.909  23.856  0.00  0.00    +0.122 HD
BRANCH   5  10
ATOM     10  C   UNL     1      -4.589   0.382  25.321  0.00  0.00    +0.084 C 
BRANCH  10   7
ATOM      7  C   UNL     1      -3.890  -0.402  24.260  0.00  0.00    +0.003 C 
ATOM      8  C   UNL     1      -4.329  -1.805  23.941  0.00  0.00    +0.005 C 
ATOM      9  C   UNL     1      -3.015  -1.567  24.631  0.00  0.00    +0.005 C 
ENDBRANCH  10   7
ENDBRANCH   5  10
ENDBRANCH  11   5
BRANCH  13  15
ATOM     15  C   UNL     1      -1.816   4.324  25.324  0.00  0.00    +0.138 C 
BRANCH  15   6
ATOM      4  O   UNL     1      -1.160   1.594  25.926  0.00  0.00    -0.270 OA
ATOM      6  N   UNL     1      -0.898   3.473  24.594  0.00  0.00    -0.309 N 
ATOM     16  C   UNL     1      -0.648   2.163  24.966  0.00  0.00    +0.244 C 
ATOM     25  H   UNL     1      -0.386   3.906  23.832  0.00  0.00    +0.149 HD
BRANCH  16  17
ATOM      1  F   UNL     1       3.077  -0.599  21.801  0.00  0.00    -0.205 F 
ATOM     17  C   UNL     1       0.338   1.433  24.129  0.00  0.00    +0.037 A 
ATOM     18  C   UNL     1      -0.010   0.213  23.547  0.00  0.00    +0.016 A 
ATOM     19  C   UNL     1       1.610   1.965  23.924  0.00  0.00    +0.016 A 
ATOM     20  C   UNL     1       0.915  -0.474  22.761  0.00  0.00    +0.039 A 
ATOM     21  C   UNL     1       2.536   1.279  23.139  0.00  0.00    +0.039 A 
ATOM     22  C   UNL     1       2.188   0.059  22.556  0.00  0.00    +0.123 A 
ENDBRANCH  16  17
ENDBRANCH  15   6
ENDBRANCH  13  15
TORSDOF 7
ENDMDL
MODEL 9
REMARK VINA RESULT:      -2.3      1.547      2.104
REMARK  Name = 86769004
REMARK  7 active torsions:
REMARK  status: ('A' for Active; 'I' for Inactive)
REMARK    1  A    between atoms: O_3  and  C_12
REMARK    2  A    between atoms: N_5  and  C_10
REMARK    3  A    between atoms: N_5  and  C_11
REMARK    4  A    between atoms: N_6  and  C_15
REMARK    5  A    between atoms: C_7  and  C_10
REMARK    6  A    between atoms: C_13  and  C_15
REMARK    7  A    between atoms: C_16  and  C_17
REMARK                            x       y       z     vdW  Elec       q    Type
REMARK                         _______ _______ _______ _____ _____    ______ ____
ROOT
ATOM      2  O   UNL     1      -2.480  -3.105  23.698  0.00  0.00    -0.371 OA
ATOM     11  C   UNL     1      -0.965  -2.093  25.222  0.00  0.00    +0.111 C 
ATOM     12  C   UNL     1      -2.301  -1.378  25.305  0.00  0.00    +0.164 C 
ATOM     13  C   UNL     1      -3.234  -2.430  24.719  0.00  0.00    +0.165 C 
ATOM     14  C   UNL     1      -1.086  -2.803  23.883  0.00  0.00    +0.181 C 
ENDROOT
BRANCH  12   3
ATOM      3  O   UNL     1      -2.657  -1.036  26.630  0.00  0.00    -0.388 OA
ATOM     24  H   UNL     1      -1.908  -1.251  27.212  0.00  0.00    +0.210 HD
ENDBRANCH  12   3
BRANCH  11   5
ATOM      5  N   UNL     1       0.180  -1.200  25.287  0.00  0.00    -0.309 NA
ATOM     23  H   UNL     1       1.037  -1.751  25.223  0.00  0.00    +0.122 HD
BRANCH   5  10
ATOM     10  C   UNL     1       0.158  -0.236  24.193  0.00  0.00    +0.084 C 
BRANCH  10   7
ATOM      7  C   UNL     1      -0.639   0.975  24.550  0.00  0.00    +0.003 C 
ATOM      8  C   UNL     1      -0.107   2.348  24.250  0.00  0.00    +0.005 C 
ATOM      9  C   UNL     1      -0.194   1.871  25.673  0.00  0.00    +0.005 C 
ENDBRANCH  10   7
ENDBRANCH   5  10
ENDBRANCH  11   5
BRANCH  13  15
ATOM     15  C   UNL     1      -4.500  -1.844  24.121  0.00  0.00    +0.138 C 
BRANCH  15   6
ATOM      4  O   UNL     1      -5.115   0.228  26.010  0.00  0.00    -0.270 OA
ATOM      6  N   UNL     1      -4.350  -0.418  23.919  0.00  0.00    -0.309 N 
ATOM     16  C   UNL     1      -4.676   0.506  24.898  0.00  0.00    +0.244 C 
ATOM     25  H   UNL     1      -4.062  -0.118  22.994  0.00  0.00    +0.149 HD
BRANCH  16  17
ATOM      1  F   UNL     1      -3.973   5.896  23.493  0.00  0.00    -0.205 F 
ATOM     17  C   UNL     1      -4.490   1.932  24.525  0.00  0.00    +0.037 A 
ATOM     18  C   UNL     1      -5.017   2.938  25.336  0.00  0.00    +0.016 A 
ATOM     19  C   UNL     1      -3.790   2.266  23.367  0.00  0.00    +0.016 A 
ATOM     20  C   UNL     1      -4.843   4.277  24.988  0.00  0.00    +0.039 A 
ATOM     21  C   UNL     1      -3.615   3.604  23.017  0.00  0.00    +0.039 A 
ATOM     22  C   UNL     1      -4.142   4.611  23.828  0.00  0.00    +0.123 A 
ENDBRANCH  16  17
ENDBRANCH  15   6
ENDBRANCH  13  15
TORSDOF 7
ENDMDL
