MODEL 1
REMARK VINA RESULT:      -4.7      0.000      0.000
REMARK  Name = 38028448
REMARK  12 active torsions:
REMARK  status: ('A' for Active; 'I' for Inactive)
REMARK    1  A    between atoms: N_3  and  C_14
REMARK    2  A    between atoms: N_4  and  C_21
REMARK    3  A    between atoms: N_5  and  C_22
REMARK    4  A    between atoms: C_7  and  C_11
REMARK    5  A    between atoms: C_8  and  C_14
REMARK    6  A    between atoms: C_10  and  C_15
REMARK    7  A    between atoms: C_11  and  C_16
REMARK    8  A    between atoms: C_11  and  C_17
REMARK    9  A    between atoms: C_12  and  C_18
REMARK   10  A    between atoms: C_15  and  C_19
REMARK   11  A    between atoms: C_21  and  C_23
REMARK   12  A    between atoms: C_22  and  C_24
REMARK                            x       y       z     vdW  Elec       q    Type
REMARK                         _______ _______ _______ _____ _____    ______ ____
ROOT
ATOM      7  C   UNL     1      -3.815  -0.652  25.029  0.00  0.00    +0.000 C 
ATOM      8  C   UNL     1      -2.592   0.041  24.379  0.00  0.00    +0.032 C 
ATOM      9  C   UNL     1      -5.094  -0.333  24.240  0.00  0.00    +0.012 C 
ATOM     10  C   UNL     1      -5.372   1.179  24.167  0.00  0.00    +0.023 C 
ATOM     12  C   UNL     1      -4.131   1.962  23.790  0.00  0.00    -0.073 C 
ATOM     13  C   UNL     1      -2.898   1.433  23.879  0.00  0.00    -0.022 C 
ATOM     18  C   UNL     1      -4.343   3.355  23.264  0.00  0.00    +0.039 C 
ENDROOT
BRANCH   7  11
ATOM     11  C   UNL     1      -3.628  -2.170  25.120  0.00  0.00    -0.013 C 
ATOM     16  C   UNL     1      -4.332  -2.865  23.959  0.00  0.00    +0.007 C 
ATOM     17  C   UNL     1      -2.144  -2.522  25.142  0.00  0.00    +0.007 C 
ENDBRANCH   7  11
BRANCH   8  14
ATOM     14  C   UNL     1      -1.408   0.097  25.351  0.00  0.00    +0.113 C 
BRANCH  14   3
ATOM      2  O   UNL     1       0.355  -1.047  23.389  0.00  0.00    -0.253 OA
ATOM      3  N   UNL     1      -0.280   0.730  24.743  0.00  0.00    -0.299 N 
ATOM      5  N   UNL     1       1.559   0.937  23.358  0.00  0.00    -0.295 N 
ATOM     20  C   UNL     1       0.533   0.103  23.790  0.00  0.00    +0.300 C 
ATOM     34  H   UNL     1      -0.038   1.672  25.035  0.00  0.00    +0.150 HD
ATOM     36  H   UNL     1       1.608   1.880  23.731  0.00  0.00    +0.151 HD
BRANCH   5  22
ATOM     22  C   UNL     1       2.543   0.539  22.377  0.00  0.00    +0.141 C 
BRANCH  22  24
ATOM     24  C   UNL     1       3.808   0.048  23.019  0.00  0.00    -0.030 A 
ATOM     27  C   UNL     1       4.905   0.900  23.143  0.00  0.00    +0.005 A 
ATOM     28  C   UNL     1       3.887  -1.262  23.491  0.00  0.00    +0.005 A 
ATOM     31  C   UNL     1       6.081   0.443  23.738  0.00  0.00    +0.000 A 
ATOM     32  C   UNL     1       5.062  -1.720  24.087  0.00  0.00    +0.000 A 
ATOM     33  C   UNL     1       6.159  -0.867  24.210  0.00  0.00    +0.000 A 
ENDBRANCH  22  24
ENDBRANCH   5  22
ENDBRANCH  14   3
ENDBRANCH   8  14
BRANCH  10  15
ATOM     15  C   UNL     1      -5.968   1.695  25.482  0.00  0.00    +0.103 C 
BRANCH  15  19
ATOM      1  O   UNL     1      -6.044   4.106  25.661  0.00  0.00    -0.276 OA
ATOM      4  N   UNL     1      -4.173   2.960  26.427  0.00  0.00    -0.311 N 
ATOM     19  C   UNL     1      -5.432   3.059  25.852  0.00  0.00    +0.214 C 
ATOM     35  H   UNL     1      -3.760   2.038  26.538  0.00  0.00    +0.149 HD
BRANCH   4  21
ATOM     21  C   UNL     1      -3.419   4.107  26.878  0.00  0.00    +0.141 C 
BRANCH  21  23
ATOM      6  N   UNL     1      -0.039   3.574  25.269  0.00  0.00    -0.263 NA
ATOM     23  C   UNL     1      -2.198   4.343  26.038  0.00  0.00    -0.012 A 
ATOM     25  C   UNL     1      -2.069   5.496  25.270  0.00  0.00    +0.008 A 
ATOM     26  C   UNL     1      -1.164   3.422  26.003  0.00  0.00    +0.115 A 
ATOM     29  C   UNL     1      -0.926   5.688  24.501  0.00  0.00    +0.020 A 
ATOM     30  C   UNL     1       0.051   4.706  24.536  0.00  0.00    +0.111 A 
ENDBRANCH  21  23
ENDBRANCH   4  21
ENDBRANCH  15  19
ENDBRANCH  10  15
TORSDOF 9
ENDMDL
MODEL 2
REMARK VINA RESULT:      -3.8      1.444      3.886
REMARK  Name = 38028448
REMARK  12 active torsions:
REMARK  status: ('A' for Active; 'I' for Inactive)
REMARK    1  A    between atoms: N_3  and  C_14
REMARK    2  A    between atoms: N_4  and  C_21
REMARK    3  A    between atoms: N_5  and  C_22
REMARK    4  A    between atoms: C_7  and  C_11
REMARK    5  A    between atoms: C_8  and  C_14
REMARK    6  A    between atoms: C_10  and  C_15
REMARK    7  A    between atoms: C_11  and  C_16
REMARK    8  A    between atoms: C_11  and  C_17
REMARK    9  A    between atoms: C_12  and  C_18
REMARK   10  A    between atoms: C_15  and  C_19
REMARK   11  A    between atoms: C_21  and  C_23
REMARK   12  A    between atoms: C_22  and  C_24
REMARK                            x       y       z     vdW  Elec       q    Type
REMARK                         _______ _______ _______ _____ _____    ______ ____
ROOT
ATOM      7  C   UNL     1      -2.795   2.319  24.180  0.00  0.00    +0.000 C 
ATOM      8  C   UNL     1      -1.634   3.123  24.816  0.00  0.00    +0.032 C 
ATOM      9  C   UNL     1      -3.989   3.240  23.886  0.00  0.00    +0.012 C 
ATOM     10  C   UNL     1      -4.515   3.936  25.155  0.00  0.00    +0.023 C 
ATOM     12  C   UNL     1      -3.390   4.527  25.980  0.00  0.00    -0.073 C 
ATOM     13  C   UNL     1      -2.108   4.161  25.806  0.00  0.00    -0.022 C 
ATOM     18  C   UNL     1      -3.768   5.583  26.981  0.00  0.00    +0.039 C 
ENDROOT
BRANCH   7  11
ATOM     11  C   UNL     1      -2.359   1.609  22.894  0.00  0.00    -0.013 C 
ATOM     16  C   UNL     1      -3.206   0.362  22.660  0.00  0.00    +0.007 C 
ATOM     17  C   UNL     1      -2.454   2.558  21.704  0.00  0.00    +0.007 C 
ENDBRANCH   7  11
BRANCH   8  14
ATOM     14  C   UNL     1      -0.625   2.192  25.497  0.00  0.00    +0.113 C 
BRANCH  14   3
ATOM      2  O   UNL     1       1.672   2.107  23.770  0.00  0.00    -0.253 OA
ATOM      3  N   UNL     1      -0.251   1.123  24.624  0.00  0.00    -0.299 N 
ATOM      5  N   UNL     1       1.023  -0.006  23.060  0.00  0.00    -0.295 N 
ATOM     20  C   UNL     1       0.889   1.158  23.810  0.00  0.00    +0.300 C 
ATOM     34  H   UNL     1      -0.855   0.309  24.569  0.00  0.00    +0.150 HD
ATOM     36  H   UNL     1       0.337  -0.744  23.183  0.00  0.00    +0.151 HD
BRANCH   5  22
ATOM     22  C   UNL     1       2.112  -0.232  22.137  0.00  0.00    +0.141 C 
BRANCH  22  24
ATOM     24  C   UNL     1       3.440  -0.277  22.836  0.00  0.00    -0.030 A 
ATOM     27  C   UNL     1       4.276   0.838  22.819  0.00  0.00    +0.005 A 
ATOM     28  C   UNL     1       3.836  -1.436  23.503  0.00  0.00    +0.005 A 
ATOM     31  C   UNL     1       5.511   0.795  23.468  0.00  0.00    +0.000 A 
ATOM     32  C   UNL     1       5.070  -1.480  24.153  0.00  0.00    +0.000 A 
ATOM     33  C   UNL     1       5.908  -0.364  24.134  0.00  0.00    +0.000 A 
ENDBRANCH  22  24
ENDBRANCH   5  22
ENDBRANCH  14   3
ENDBRANCH   8  14
BRANCH  10  15
ATOM     15  C   UNL     1      -5.368   2.979  25.995  0.00  0.00    +0.103 C 
BRANCH  15  19
ATOM      1  O   UNL     1      -6.484   1.548  24.396  0.00  0.00    -0.276 OA
ATOM      4  N   UNL     1      -4.809   0.667  25.745  0.00  0.00    -0.311 N 
ATOM     19  C   UNL     1      -5.638   1.677  25.276  0.00  0.00    +0.214 C 
ATOM     35  H   UNL     1      -4.141   0.889  26.479  0.00  0.00    +0.149 HD
BRANCH   4  21
ATOM     21  C   UNL     1      -4.847  -0.685  25.238  0.00  0.00    +0.141 C 
BRANCH  21  23
ATOM      6  N   UNL     1      -1.185  -1.321  25.935  0.00  0.00    -0.263 NA
ATOM     23  C   UNL     1      -3.479  -1.300  25.172  0.00  0.00    -0.012 A 
ATOM     25  C   UNL     1      -3.216  -2.374  24.329  0.00  0.00    +0.008 A 
ATOM     26  C   UNL     1      -2.439  -0.815  25.948  0.00  0.00    +0.115 A 
ATOM     29  C   UNL     1      -1.940  -2.923  24.288  0.00  0.00    +0.020 A 
ATOM     30  C   UNL     1      -0.968  -2.365  25.103  0.00  0.00    +0.111 A 
ENDBRANCH  21  23
ENDBRANCH   4  21
ENDBRANCH  15  19
ENDBRANCH  10  15
TORSDOF 9
ENDMDL
MODEL 3
REMARK VINA RESULT:      -2.7      1.760      4.702
REMARK  Name = 38028448
REMARK  12 active torsions:
REMARK  status: ('A' for Active; 'I' for Inactive)
REMARK    1  A    between atoms: N_3  and  C_14
REMARK    2  A    between atoms: N_4  and  C_21
REMARK    3  A    between atoms: N_5  and  C_22
REMARK    4  A    between atoms: C_7  and  C_11
REMARK    5  A    between atoms: C_8  and  C_14
REMARK    6  A    between atoms: C_10  and  C_15
REMARK    7  A    between atoms: C_11  and  C_16
REMARK    8  A    between atoms: C_11  and  C_17
REMARK    9  A    between atoms: C_12  and  C_18
REMARK   10  A    between atoms: C_15  and  C_19
REMARK   11  A    between atoms: C_21  and  C_23
REMARK   12  A    between atoms: C_22  and  C_24
REMARK                            x       y       z     vdW  Elec       q    Type
REMARK                         _______ _______ _______ _____ _____    ______ ____
ROOT
ATOM      7  C   UNL     1      -1.662   3.825  24.613  0.00  0.00    +0.000 C 
ATOM      8  C   UNL     1      -1.765   3.230  26.040  0.00  0.00    +0.032 C 
ATOM      9  C   UNL     1      -3.036   4.321  24.138  0.00  0.00    +0.012 C 
ATOM     10  C   UNL     1      -4.088   3.197  24.123  0.00  0.00    +0.023 C 
ATOM     12  C   UNL     1      -4.066   2.388  25.404  0.00  0.00    -0.073 C 
ATOM     13  C   UNL     1      -3.025   2.426  26.254  0.00  0.00    -0.022 C 
ATOM     18  C   UNL     1      -5.290   1.569  25.709  0.00  0.00    +0.039 C 
ENDROOT
BRANCH   7  11
ATOM     11  C   UNL     1      -0.645   4.969  24.545  0.00  0.00    -0.013 C 
ATOM     16  C   UNL     1       0.010   5.019  23.168  0.00  0.00    +0.007 C 
ATOM     17  C   UNL     1      -1.318   6.298  24.873  0.00  0.00    +0.007 C 
ENDBRANCH   7  11
BRANCH   8  14
ATOM     14  C   UNL     1      -0.543   2.363  26.366  0.00  0.00    +0.113 C 
BRANCH  14   3
ATOM      2  O   UNL     1       1.431   2.300  24.278  0.00  0.00    -0.253 OA
ATOM      3  N   UNL     1      -0.370   1.339  25.384  0.00  0.00    -0.299 N 
ATOM      5  N   UNL     1       0.572   0.264  23.568  0.00  0.00    -0.295 N 
ATOM     20  C   UNL     1       0.621   1.382  24.395  0.00  0.00    +0.300 C 
ATOM     34  H   UNL     1      -1.014   0.554  25.385  0.00  0.00    +0.150 HD
ATOM     36  H   UNL     1      -0.119  -0.454  23.761  0.00  0.00    +0.151 HD
BRANCH   5  22
ATOM     22  C   UNL     1       1.483   0.055  22.465  0.00  0.00    +0.141 C 
BRANCH  22  24
ATOM     24  C   UNL     1       2.900  -0.114  22.931  0.00  0.00    -0.030 A 
ATOM     27  C   UNL     1       3.298  -1.307  23.533  0.00  0.00    +0.005 A 
ATOM     28  C   UNL     1       3.817   0.923  22.763  0.00  0.00    +0.005 A 
ATOM     31  C   UNL     1       4.615  -1.464  23.968  0.00  0.00    +0.000 A 
ATOM     32  C   UNL     1       5.134   0.766  23.197  0.00  0.00    +0.000 A 
ATOM     33  C   UNL     1       5.532  -0.428  23.800  0.00  0.00    +0.000 A 
ENDBRANCH  22  24
ENDBRANCH   5  22
ENDBRANCH  14   3
ENDBRANCH   8  14
BRANCH  10  15
ATOM     15  C   UNL     1      -3.911   2.292  22.899  0.00  0.00    +0.103 C 
BRANCH  15  19
ATOM      1  O   UNL     1      -2.188   0.657  23.353  0.00  0.00    -0.276 OA
ATOM      4  N   UNL     1      -4.421   0.037  23.512  0.00  0.00    -0.311 N 
ATOM     19  C   UNL     1      -3.382   0.926  23.275  0.00  0.00    +0.214 C 
ATOM     35  H   UNL     1      -5.377   0.371  23.418  0.00  0.00    +0.149 HD
BRANCH   4  21
ATOM     21  C   UNL     1      -4.211  -1.342  23.887  0.00  0.00    +0.141 C 
BRANCH  21  23
ATOM      6  N   UNL     1      -0.686  -2.398  24.756  0.00  0.00    -0.263 NA
ATOM     23  C   UNL     1      -2.939  -1.526  24.662  0.00  0.00    -0.012 A 
ATOM     25  C   UNL     1      -2.808  -1.029  25.954  0.00  0.00    +0.008 A 
ATOM     26  C   UNL     1      -1.858  -2.197  24.113  0.00  0.00    +0.115 A 
ATOM     29  C   UNL     1      -1.617  -1.214  26.648  0.00  0.00    +0.020 A 
ATOM     30  C   UNL     1      -0.596  -1.901  26.010  0.00  0.00    +0.111 A 
ENDBRANCH  21  23
ENDBRANCH   4  21
ENDBRANCH  15  19
ENDBRANCH  10  15
TORSDOF 9
ENDMDL
MODEL 4
REMARK VINA RESULT:      -1.7      1.813      4.429
REMARK  Name = 38028448
REMARK  12 active torsions:
REMARK  status: ('A' for Active; 'I' for Inactive)
REMARK    1  A    between atoms: N_3  and  C_14
REMARK    2  A    between atoms: N_4  and  C_21
REMARK    3  A    between atoms: N_5  and  C_22
REMARK    4  A    between atoms: C_7  and  C_11
REMARK    5  A    between atoms: C_8  and  C_14
REMARK    6  A    between atoms: C_10  and  C_15
REMARK    7  A    between atoms: C_11  and  C_16
REMARK    8  A    between atoms: C_11  and  C_17
REMARK    9  A    between atoms: C_12  and  C_18
REMARK   10  A    between atoms: C_15  and  C_19
REMARK   11  A    between atoms: C_21  and  C_23
REMARK   12  A    between atoms: C_22  and  C_24
REMARK                            x       y       z     vdW  Elec       q    Type
REMARK                         _______ _______ _______ _____ _____    ______ ____
ROOT
ATOM      7  C   UNL     1      -3.672   2.375  24.805  0.00  0.00    +0.000 C 
ATOM      8  C   UNL     1      -3.033   2.725  23.438  0.00  0.00    +0.032 C 
ATOM      9  C   UNL     1      -3.754   3.624  25.694  0.00  0.00    +0.012 C 
ATOM     10  C   UNL     1      -2.370   4.250  25.949  0.00  0.00    +0.023 C 
ATOM     12  C   UNL     1      -1.568   4.381  24.671  0.00  0.00    -0.073 C 
ATOM     13  C   UNL     1      -1.886   3.702  23.555  0.00  0.00    -0.022 C 
ATOM     18  C   UNL     1      -0.416   5.348  24.690  0.00  0.00    +0.039 C 
ENDROOT
BRANCH   7  11
ATOM     11  C   UNL     1      -5.067   1.763  24.641  0.00  0.00    -0.013 C 
ATOM     16  C   UNL     1      -4.979   0.240  24.600  0.00  0.00    +0.007 C 
ATOM     17  C   UNL     1      -5.985   2.221  25.769  0.00  0.00    +0.007 C 
ENDBRANCH   7  11
BRANCH   8  14
ATOM     14  C   UNL     1      -2.556   1.463  22.711  0.00  0.00    +0.113 C 
BRANCH  14   3
ATOM      2  O   UNL     1      -0.652   0.165  20.992  0.00  0.00    -0.253 OA
ATOM      3  N   UNL     1      -1.182   1.197  23.003  0.00  0.00    -0.299 N 
ATOM      5  N   UNL     1       0.964   0.421  22.638  0.00  0.00    -0.295 N 
ATOM     20  C   UNL     1      -0.315   0.556  22.108  0.00  0.00    +0.300 C 
ATOM     34  H   UNL     1      -0.822   1.459  23.916  0.00  0.00    +0.150 HD
ATOM     36  H   UNL     1       1.151   0.800  23.561  0.00  0.00    +0.151 HD
BRANCH   5  22
ATOM     22  C   UNL     1       2.054  -0.205  21.923  0.00  0.00    +0.141 C 
BRANCH  22  24
ATOM     24  C   UNL     1       3.323  -0.207  22.726  0.00  0.00    -0.030 A 
ATOM     27  C   UNL     1       3.733  -1.369  23.378  0.00  0.00    +0.005 A 
ATOM     28  C   UNL     1       4.090   0.954  22.821  0.00  0.00    +0.005 A 
ATOM     31  C   UNL     1       4.912  -1.371  24.126  0.00  0.00    +0.000 A 
ATOM     32  C   UNL     1       5.269   0.952  23.567  0.00  0.00    +0.000 A 
ATOM     33  C   UNL     1       5.679  -0.210  24.220  0.00  0.00    +0.000 A 
ENDBRANCH  22  24
ENDBRANCH   5  22
ENDBRANCH  14   3
ENDBRANCH   8  14
BRANCH  10  15
ATOM     15  C   UNL     1      -1.592   3.459  27.007  0.00  0.00    +0.103 C 
BRANCH  15  19
ATOM      1  O   UNL     1       0.488   2.737  26.006  0.00  0.00    -0.276 OA
ATOM      4  N   UNL     1      -1.231   1.202  26.305  0.00  0.00    -0.311 N 
ATOM     19  C   UNL     1      -0.646   2.458  26.385  0.00  0.00    +0.214 C 
ATOM     35  H   UNL     1      -2.179   1.085  26.652  0.00  0.00    +0.149 HD
BRANCH   4  21
ATOM     21  C   UNL     1      -0.557   0.050  25.752  0.00  0.00    +0.141 C 
BRANCH  21  23
ATOM      6  N   UNL     1      -2.055  -2.953  24.010  0.00  0.00    -0.263 NA
ATOM     23  C   UNL     1      -1.517  -1.047  25.396  0.00  0.00    -0.012 A 
ATOM     25  C   UNL     1      -2.722  -1.193  26.077  0.00  0.00    +0.008 A 
ATOM     26  C   UNL     1      -1.234  -1.945  24.380  0.00  0.00    +0.115 A 
ATOM     29  C   UNL     1      -3.592  -2.219  25.726  0.00  0.00    +0.020 A 
ATOM     30  C   UNL     1      -3.216  -3.064  24.694  0.00  0.00    +0.111 A 
ENDBRANCH  21  23
ENDBRANCH   4  21
ENDBRANCH  15  19
ENDBRANCH  10  15
TORSDOF 9
ENDMDL
MODEL 5
REMARK VINA RESULT:      -1.5      1.754      6.608
REMARK  Name = 38028448
REMARK  12 active torsions:
REMARK  status: ('A' for Active; 'I' for Inactive)
REMARK    1  A    between atoms: N_3  and  C_14
REMARK    2  A    between atoms: N_4  and  C_21
REMARK    3  A    between atoms: N_5  and  C_22
REMARK    4  A    between atoms: C_7  and  C_11
REMARK    5  A    between atoms: C_8  and  C_14
REMARK    6  A    between atoms: C_10  and  C_15
REMARK    7  A    between atoms: C_11  and  C_16
REMARK    8  A    between atoms: C_11  and  C_17
REMARK    9  A    between atoms: C_12  and  C_18
REMARK   10  A    between atoms: C_15  and  C_19
REMARK   11  A    between atoms: C_21  and  C_23
REMARK   12  A    between atoms: C_22  and  C_24
REMARK                            x       y       z     vdW  Elec       q    Type
REMARK                         _______ _______ _______ _____ _____    ______ ____
ROOT
ATOM      7  C   UNL     1      -2.695  -1.917  24.407  0.00  0.00    +0.000 C 
ATOM      8  C   UNL     1      -3.295  -1.321  25.705  0.00  0.00    +0.032 C 
ATOM      9  C   UNL     1      -1.165  -2.009  24.517  0.00  0.00    +0.012 C 
ATOM     10  C   UNL     1      -0.516  -0.636  24.768  0.00  0.00    +0.023 C 
ATOM     12  C   UNL     1      -1.228   0.132  25.863  0.00  0.00    -0.073 C 
ATOM     13  C   UNL     1      -2.465  -0.197  26.277  0.00  0.00    -0.022 C 
ATOM     18  C   UNL     1      -0.468   1.260  26.505  0.00  0.00    +0.039 C 
ENDROOT
BRANCH   7  11
ATOM     11  C   UNL     1      -3.276  -3.300  24.094  0.00  0.00    -0.013 C 
ATOM     16  C   UNL     1      -4.610  -3.165  23.366  0.00  0.00    +0.007 C 
ATOM     17  C   UNL     1      -2.289  -4.117  23.267  0.00  0.00    +0.007 C 
ENDBRANCH   7  11
BRANCH   8  14
ATOM     14  C   UNL     1      -4.729  -0.830  25.475  0.00  0.00    +0.113 C 
BRANCH  14   3
ATOM      2  O   UNL     1      -4.050   1.393  23.784  0.00  0.00    -0.253 OA
ATOM      3  N   UNL     1      -4.849   0.557  25.797  0.00  0.00    -0.299 N 
ATOM      5  N   UNL     1      -4.710   2.842  25.473  0.00  0.00    -0.295 N 
ATOM     20  C   UNL     1      -4.495   1.586  24.914  0.00  0.00    +0.300 C 
ATOM     34  H   UNL     1      -5.182   0.812  26.722  0.00  0.00    +0.150 HD
ATOM     36  H   UNL     1      -5.106   2.897  26.406  0.00  0.00    +0.151 HD
BRANCH   5  22
ATOM     22  C   UNL     1      -4.428   4.077  24.777  0.00  0.00    +0.141 C 
BRANCH  22  24
ATOM     24  C   UNL     1      -2.954   4.347  24.688  0.00  0.00    -0.030 A 
ATOM     27  C   UNL     1      -2.099   3.385  24.150  0.00  0.00    +0.005 A 
ATOM     28  C   UNL     1      -2.439   5.560  25.145  0.00  0.00    +0.005 A 
ATOM     31  C   UNL     1      -0.729   3.635  24.069  0.00  0.00    +0.000 A 
ATOM     32  C   UNL     1      -1.069   5.812  25.063  0.00  0.00    +0.000 A 
ATOM     33  C   UNL     1      -0.214   4.848  24.526  0.00  0.00    +0.000 A 
ENDBRANCH  22  24
ENDBRANCH   5  22
ENDBRANCH  14   3
ENDBRANCH   8  14
BRANCH  10  15
ATOM     15  C   UNL     1      -0.447   0.187  23.477  0.00  0.00    +0.103 C 
BRANCH  15  19
ATOM      1  O   UNL     1       1.543   1.530  23.772  0.00  0.00    -0.276 OA
ATOM      4  N   UNL     1       1.494  -0.091  22.109  0.00  0.00    -0.311 N 
ATOM     19  C   UNL     1       0.962   0.637  23.164  0.00  0.00    +0.214 C 
ATOM     35  H   UNL     1       0.921  -0.811  21.677  0.00  0.00    +0.149 HD
BRANCH   4  21
ATOM     21  C   UNL     1       2.826   0.125  21.593  0.00  0.00    +0.141 C 
BRANCH  21  23
ATOM      6  N   UNL     1       4.918  -1.629  24.209  0.00  0.00    -0.263 NA
ATOM     23  C   UNL     1       3.879  -0.117  22.634  0.00  0.00    -0.012 A 
ATOM     25  C   UNL     1       4.770   0.887  23.000  0.00  0.00    +0.008 A 
ATOM     26  C   UNL     1       3.994  -1.346  23.263  0.00  0.00    +0.115 A 
ATOM     29  C   UNL     1       5.735   0.634  23.968  0.00  0.00    +0.020 A 
ATOM     30  C   UNL     1       5.766  -0.629  24.538  0.00  0.00    +0.111 A 
ENDBRANCH  21  23
ENDBRANCH   4  21
ENDBRANCH  15  19
ENDBRANCH  10  15
TORSDOF 9
ENDMDL
MODEL 6
REMARK VINA RESULT:      -1.1      2.141      2.792
REMARK  Name = 38028448
REMARK  12 active torsions:
REMARK  status: ('A' for Active; 'I' for Inactive)
REMARK    1  A    between atoms: N_3  and  C_14
REMARK    2  A    between atoms: N_4  and  C_21
REMARK    3  A    between atoms: N_5  and  C_22
REMARK    4  A    between atoms: C_7  and  C_11
REMARK    5  A    between atoms: C_8  and  C_14
REMARK    6  A    between atoms: C_10  and  C_15
REMARK    7  A    between atoms: C_11  and  C_16
REMARK    8  A    between atoms: C_11  and  C_17
REMARK    9  A    between atoms: C_12  and  C_18
REMARK   10  A    between atoms: C_15  and  C_19
REMARK   11  A    between atoms: C_21  and  C_23
REMARK   12  A    between atoms: C_22  and  C_24
REMARK                            x       y       z     vdW  Elec       q    Type
REMARK                         _______ _______ _______ _____ _____    ______ ____
ROOT
ATOM      7  C   UNL     1      -3.570   0.294  25.066  0.00  0.00    +0.000 C 
ATOM      8  C   UNL     1      -2.819   0.326  23.711  0.00  0.00    +0.032 C 
ATOM      9  C   UNL     1      -4.672   1.364  25.093  0.00  0.00    +0.012 C 
ATOM     10  C   UNL     1      -4.113   2.782  24.879  0.00  0.00    +0.023 C 
ATOM     12  C   UNL     1      -3.146   2.836  23.714  0.00  0.00    -0.073 C 
ATOM     13  C   UNL     1      -2.588   1.727  23.197  0.00  0.00    -0.022 C 
ATOM     18  C   UNL     1      -2.870   4.192  23.125  0.00  0.00    +0.039 C 
ENDROOT
BRANCH   7  11
ATOM     11  C   UNL     1      -4.178  -1.084  25.348  0.00  0.00    -0.013 C 
ATOM     16  C   UNL     1      -4.392  -1.848  24.045  0.00  0.00    +0.007 C 
ATOM     17  C   UNL     1      -3.285  -1.875  26.299  0.00  0.00    +0.007 C 
ENDBRANCH   7  11
BRANCH   8  14
ATOM     14  C   UNL     1      -1.478  -0.411  23.806  0.00  0.00    +0.113 C 
BRANCH  14   3
ATOM      2  O   UNL     1       0.968  -0.538  22.300  0.00  0.00    -0.253 OA
ATOM      3  N   UNL     1      -0.392   0.516  23.860  0.00  0.00    -0.299 N 
ATOM      5  N   UNL     1       1.670   1.419  23.332  0.00  0.00    -0.295 N 
ATOM     20  C   UNL     1       0.772   0.384  23.091  0.00  0.00    +0.300 C 
ATOM     34  H   UNL     1      -0.452   1.296  24.508  0.00  0.00    +0.150 HD
ATOM     36  H   UNL     1       1.406   2.149  23.986  0.00  0.00    +0.151 HD
BRANCH   5  22
ATOM     22  C   UNL     1       2.951   1.525  22.671  0.00  0.00    +0.141 C 
BRANCH  22  24
ATOM     24  C   UNL     1       3.946   0.541  23.214  0.00  0.00    -0.030 A 
ATOM     27  C   UNL     1       5.239   0.957  23.530  0.00  0.00    +0.005 A 
ATOM     28  C   UNL     1       3.577  -0.791  23.402  0.00  0.00    +0.005 A 
ATOM     31  C   UNL     1       6.163   0.042  24.034  0.00  0.00    +0.000 A 
ATOM     32  C   UNL     1       4.501  -1.707  23.906  0.00  0.00    +0.000 A 
ATOM     33  C   UNL     1       5.795  -1.290  24.222  0.00  0.00    +0.000 A 
ENDBRANCH  22  24
ENDBRANCH   5  22
ENDBRANCH  14   3
ENDBRANCH   8  14
BRANCH  10  15
ATOM     15  C   UNL     1      -3.460   3.318  26.159  0.00  0.00    +0.103 C 
BRANCH  15  19
ATOM      1  O   UNL     1      -1.648   4.784  25.517  0.00  0.00    -0.276 OA
ATOM      4  N   UNL     1      -1.169   2.646  26.290  0.00  0.00    -0.311 N 
ATOM     19  C   UNL     1      -2.012   3.693  25.944  0.00  0.00    +0.214 C 
ATOM     35  H   UNL     1      -1.583   1.784  26.635  0.00  0.00    +0.149 HD
BRANCH   4  21
ATOM     21  C   UNL     1       0.269   2.722  26.186  0.00  0.00    +0.141 C 
BRANCH  21  23
ATOM      6  N   UNL     1       2.934   2.970  28.857  0.00  0.00    -0.263 NA
ATOM     23  C   UNL     1       0.934   2.679  27.531  0.00  0.00    -0.012 A 
ATOM     25  C   UNL     1       0.221   2.323  28.671  0.00  0.00    +0.008 A 
ATOM     26  C   UNL     1       2.276   2.991  27.677  0.00  0.00    +0.115 A 
ATOM     29  C   UNL     1       0.863   2.291  29.904  0.00  0.00    +0.020 A 
ATOM     30  C   UNL     1       2.209   2.620  29.943  0.00  0.00    +0.111 A 
ENDBRANCH  21  23
ENDBRANCH   4  21
ENDBRANCH  15  19
ENDBRANCH  10  15
TORSDOF 9
ENDMDL
MODEL 7
REMARK VINA RESULT:      -1.0      1.806      6.157
REMARK  Name = 38028448
REMARK  12 active torsions:
REMARK  status: ('A' for Active; 'I' for Inactive)
REMARK    1  A    between atoms: N_3  and  C_14
REMARK    2  A    between atoms: N_4  and  C_21
REMARK    3  A    between atoms: N_5  and  C_22
REMARK    4  A    between atoms: C_7  and  C_11
REMARK    5  A    between atoms: C_8  and  C_14
REMARK    6  A    between atoms: C_10  and  C_15
REMARK    7  A    between atoms: C_11  and  C_16
REMARK    8  A    between atoms: C_11  and  C_17
REMARK    9  A    between atoms: C_12  and  C_18
REMARK   10  A    between atoms: C_15  and  C_19
REMARK   11  A    between atoms: C_21  and  C_23
REMARK   12  A    between atoms: C_22  and  C_24
REMARK                            x       y       z     vdW  Elec       q    Type
REMARK                         _______ _______ _______ _____ _____    ______ ____
ROOT
ATOM      7  C   UNL     1      -3.618   3.343  25.579  0.00  0.00    +0.000 C 
ATOM      8  C   UNL     1      -3.655   4.059  24.206  0.00  0.00    +0.032 C 
ATOM      9  C   UNL     1      -2.499   3.923  26.457  0.00  0.00    +0.012 C 
ATOM     10  C   UNL     1      -1.113   3.788  25.799  0.00  0.00    +0.023 C 
ATOM     12  C   UNL     1      -1.134   4.228  24.349  0.00  0.00    -0.073 C 
ATOM     13  C   UNL     1      -2.280   4.356  23.658  0.00  0.00    -0.022 C 
ATOM     18  C   UNL     1       0.193   4.563  23.725  0.00  0.00    +0.039 C 
ENDROOT
BRANCH   7  11
ATOM     11  C   UNL     1      -4.959   3.447  26.313  0.00  0.00    -0.013 C 
ATOM     16  C   UNL     1      -5.830   4.527  25.679  0.00  0.00    +0.007 C 
ATOM     17  C   UNL     1      -5.676   2.101  26.306  0.00  0.00    +0.007 C 
ENDBRANCH   7  11
BRANCH   8  14
ATOM     14  C   UNL     1      -4.450   3.244  23.179  0.00  0.00    +0.113 C 
BRANCH  14   3
ATOM      2  O   UNL     1      -3.155   0.697  22.862  0.00  0.00    -0.253 OA
ATOM      3  N   UNL     1      -4.870   1.997  23.736  0.00  0.00    -0.299 N 
ATOM      5  N   UNL     1      -4.800  -0.270  24.184  0.00  0.00    -0.295 N 
ATOM     20  C   UNL     1      -4.181   0.793  23.534  0.00  0.00    +0.300 C 
ATOM     34  H   UNL     1      -5.725   1.974  24.282  0.00  0.00    +0.150 HD
ATOM     36  H   UNL     1      -5.631  -0.084  24.737  0.00  0.00    +0.151 HD
BRANCH   5  22
ATOM     22  C   UNL     1      -4.297  -1.624  24.141  0.00  0.00    +0.141 C 
BRANCH  22  24
ATOM     24  C   UNL     1      -2.905  -1.724  24.695  0.00  0.00    -0.030 A 
ATOM     27  C   UNL     1      -1.952  -2.511  24.049  0.00  0.00    +0.005 A 
ATOM     28  C   UNL     1      -2.566  -1.030  25.856  0.00  0.00    +0.005 A 
ATOM     31  C   UNL     1      -0.659  -2.605  24.565  0.00  0.00    +0.000 A 
ATOM     32  C   UNL     1      -1.273  -1.122  26.371  0.00  0.00    +0.000 A 
ATOM     33  C   UNL     1      -0.319  -1.910  25.726  0.00  0.00    +0.000 A 
ENDBRANCH  22  24
ENDBRANCH   5  22
ENDBRANCH  14   3
ENDBRANCH   8  14
BRANCH  10  15
ATOM     15  C   UNL     1      -0.576   2.359  25.932  0.00  0.00    +0.103 C 
BRANCH  15  19
ATOM      1  O   UNL     1      -1.302   1.417  23.826  0.00  0.00    -0.276 OA
ATOM      4  N   UNL     1       0.964   1.458  24.339  0.00  0.00    -0.311 N 
ATOM     19  C   UNL     1      -0.381   1.698  24.586  0.00  0.00    +0.214 C 
ATOM     35  H   UNL     1       1.644   1.735  25.042  0.00  0.00    +0.149 HD
BRANCH   4  21
ATOM     21  C   UNL     1       1.445   0.835  23.128  0.00  0.00    +0.141 C 
BRANCH  21  23
ATOM      6  N   UNL     1       4.285  -1.566  23.814  0.00  0.00    -0.263 NA
ATOM     23  C   UNL     1       2.838   0.297  23.288  0.00  0.00    -0.012 A 
ATOM     25  C   UNL     1       3.947   1.108  23.076  0.00  0.00    +0.008 A 
ATOM     26  C   UNL     1       3.058  -1.021  23.652  0.00  0.00    +0.115 A 
ATOM     29  C   UNL     1       5.226   0.583  23.232  0.00  0.00    +0.020 A 
ATOM     30  C   UNL     1       5.339  -0.748  23.599  0.00  0.00    +0.111 A 
ENDBRANCH  21  23
ENDBRANCH   4  21
ENDBRANCH  15  19
ENDBRANCH  10  15
TORSDOF 9
ENDMDL
