MODEL 1
REMARK VINA RESULT:      -4.4      0.000      0.000
REMARK  Name = 25338851
REMARK  4 active torsions:
REMARK  status: ('A' for Active; 'I' for Inactive)
REMARK    1  A    between atoms: N_3  and  C_12
REMARK    2  A    between atoms: N_3  and  C_14
REMARK    3  A    between atoms: C_6  and  C_11
REMARK    4  A    between atoms: C_12  and  C_15
REMARK                            x       y       z     vdW  Elec       q    Type
REMARK                         _______ _______ _______ _____ _____    ______ ____
ROOT
ATOM      2  N   UNL     1      -7.176 -10.189  14.647  0.00  0.00    -0.300 NA
ATOM      4  N   UNL     1      -4.191 -10.461  16.874  0.00  0.00    -0.347 N 
ATOM      5  N   UNL     1      -3.066 -10.781  14.967  0.00  0.00    -0.240 NA
ATOM      6  C   UNL     1      -6.390  -9.697  13.494  0.00  0.00    +0.147 C 
ATOM      7  C   UNL     1      -5.000 -10.378  13.370  0.00  0.00    +0.085 C 
ATOM      8  C   UNL     1      -4.370 -10.474  14.706  0.00  0.00    +0.065 A 
ATOM      9  C   UNL     1      -6.513  -9.914  15.943  0.00  0.00    +0.137 C 
ATOM     10  C   UNL     1      -5.083 -10.278  15.863  0.00  0.00    +0.053 A 
ATOM     13  C   UNL     1      -2.988 -10.763  16.284  0.00  0.00    +0.197 A 
ATOM     21  H   UNL     1      -7.292 -11.200  14.555  0.00  0.00    +0.123 HD
ATOM     22  H   UNL     1      -4.371 -10.386  17.867  0.00  0.00    +0.167 HD
ENDROOT
BRANCH   6  11
ATOM      1  O   UNL     1      -8.290 -10.566  12.399  0.00  0.00    -0.274 OA
ATOM      3  N   UNL     1      -6.669  -9.587  11.052  0.00  0.00    -0.299 N 
ATOM     11  C   UNL     1      -7.205  -9.991  12.275  0.00  0.00    +0.233 C 
ATOM     14  C   UNL     1      -5.381  -8.911  10.950  0.00  0.00    +0.132 C 
BRANCH   3  12
ATOM     12  C   UNL     1      -7.357  -9.812   9.784  0.00  0.00    +0.142 C 
BRANCH  12  15
ATOM     15  C   UNL     1      -8.102  -8.591   9.324  0.00  0.00    -0.030 A 
ATOM     16  C   UNL     1      -9.441  -8.420   9.673  0.00  0.00    +0.005 A 
ATOM     17  C   UNL     1      -7.453  -7.629   8.551  0.00  0.00    +0.005 A 
ATOM     18  C   UNL     1     -10.133  -7.287   9.247  0.00  0.00    +0.000 A 
ATOM     19  C   UNL     1      -8.146  -6.496   8.124  0.00  0.00    +0.000 A 
ATOM     20  C   UNL     1      -9.485  -6.324   8.472  0.00  0.00    +0.000 A 
ENDBRANCH  12  15
ENDBRANCH   3  12
ENDBRANCH   6  11
TORSDOF 3
ENDMDL
MODEL 2
REMARK VINA RESULT:      -3.8     16.244     17.974
REMARK  Name = 25338851
REMARK  4 active torsions:
REMARK  status: ('A' for Active; 'I' for Inactive)
REMARK    1  A    between atoms: N_3  and  C_12
REMARK    2  A    between atoms: N_3  and  C_14
REMARK    3  A    between atoms: C_6  and  C_11
REMARK    4  A    between atoms: C_12  and  C_15
REMARK                            x       y       z     vdW  Elec       q    Type
REMARK                         _______ _______ _______ _____ _____    ______ ____
ROOT
ATOM      2  N   UNL     1      -1.342   2.108  24.004  0.00  0.00    -0.300 NA
ATOM      4  N   UNL     1      -4.513   3.432  25.466  0.00  0.00    -0.347 N 
ATOM      5  N   UNL     1      -5.171   1.294  25.426  0.00  0.00    -0.240 NA
ATOM      6  C   UNL     1      -1.498   0.776  24.628  0.00  0.00    +0.147 C 
ATOM      7  C   UNL     1      -2.971   0.285  24.654  0.00  0.00    +0.085 C 
ATOM      8  C   UNL     1      -3.862   1.397  25.055  0.00  0.00    +0.065 A 
ATOM      9  C   UNL     1      -2.071   3.167  24.739  0.00  0.00    +0.137 C 
ATOM     10  C   UNL     1      -3.435   2.703  25.068  0.00  0.00    +0.053 A 
ATOM     13  C   UNL     1      -5.536   2.538  25.670  0.00  0.00    +0.197 A 
ATOM     21  H   UNL     1      -1.711   2.068  23.052  0.00  0.00    +0.123 HD
ATOM     22  H   UNL     1      -4.556   4.435  25.593  0.00  0.00    +0.167 HD
ENDROOT
BRANCH   6  11
ATOM      1  O   UNL     1      -1.107  -1.293  23.566  0.00  0.00    -0.274 OA
ATOM      3  N   UNL     1       0.576   0.300  23.392  0.00  0.00    -0.299 N 
ATOM     11  C   UNL     1      -0.668  -0.167  23.818  0.00  0.00    +0.233 C 
ATOM     14  C   UNL     1       1.057   1.639  23.712  0.00  0.00    +0.132 C 
BRANCH   3  12
ATOM     12  C   UNL     1       1.487  -0.516  22.594  0.00  0.00    +0.142 C 
BRANCH  12  15
ATOM     15  C   UNL     1       2.920  -0.315  22.996  0.00  0.00    -0.030 A 
ATOM     16  C   UNL     1       3.565   0.886  22.701  0.00  0.00    +0.005 A 
ATOM     17  C   UNL     1       3.606  -1.329  23.665  0.00  0.00    +0.005 A 
ATOM     18  C   UNL     1       4.895   1.074  23.074  0.00  0.00    +0.000 A 
ATOM     19  C   UNL     1       4.937  -1.141  24.038  0.00  0.00    +0.000 A 
ATOM     20  C   UNL     1       5.581   0.059  23.743  0.00  0.00    +0.000 A 
ENDBRANCH  12  15
ENDBRANCH   3  12
ENDBRANCH   6  11
TORSDOF 3
ENDMDL
MODEL 3
REMARK VINA RESULT:      -3.6     26.806     28.173
REMARK  Name = 25338851
REMARK  4 active torsions:
REMARK  status: ('A' for Active; 'I' for Inactive)
REMARK    1  A    between atoms: N_3  and  C_12
REMARK    2  A    between atoms: N_3  and  C_14
REMARK    3  A    between atoms: C_6  and  C_11
REMARK    4  A    between atoms: C_12  and  C_15
REMARK                            x       y       z     vdW  Elec       q    Type
REMARK                         _______ _______ _______ _____ _____    ______ ____
ROOT
ATOM      2  N   UNL     1      16.452  -8.736  26.390  0.00  0.00    -0.300 NA
ATOM      4  N   UNL     1      17.405  -6.438  23.606  0.00  0.00    -0.347 N 
ATOM      5  N   UNL     1      16.685  -4.825  24.978  0.00  0.00    -0.240 NA
ATOM      6  C   UNL     1      16.674  -7.715  27.437  0.00  0.00    +0.147 C 
ATOM      7  C   UNL     1      16.230  -6.292  27.002  0.00  0.00    +0.085 C 
ATOM      8  C   UNL     1      16.671  -6.033  25.613  0.00  0.00    +0.065 A 
ATOM      9  C   UNL     1      17.233  -8.466  25.161  0.00  0.00    +0.137 C 
ATOM     10  C   UNL     1      17.105  -7.042  24.788  0.00  0.00    +0.053 A 
ATOM     13  C   UNL     1      17.135  -5.101  23.770  0.00  0.00    +0.197 A 
ATOM     21  H   UNL     1      15.460  -8.743  26.144  0.00  0.00    +0.123 HD
ATOM     22  H   UNL     1      17.762  -6.881  22.769  0.00  0.00    +0.167 HD
ENDROOT
BRANCH   6  11
ATOM      1  O   UNL     1      14.962  -8.967  28.469  0.00  0.00    -0.274 OA
ATOM      3  N   UNL     1      16.223  -7.589  29.853  0.00  0.00    -0.299 N 
ATOM     11  C   UNL     1      15.875  -8.150  28.623  0.00  0.00    +0.233 C 
ATOM     14  C   UNL     1      17.309  -6.627  29.990  0.00  0.00    +0.132 C 
BRANCH   3  12
ATOM     12  C   UNL     1      15.526  -7.925  31.091  0.00  0.00    +0.142 C 
BRANCH  12  15
ATOM     15  C   UNL     1      14.413  -6.962  31.389  0.00  0.00    -0.030 A 
ATOM     16  C   UNL     1      13.186  -7.094  30.738  0.00  0.00    +0.005 A 
ATOM     17  C   UNL     1      14.605  -5.938  32.316  0.00  0.00    +0.005 A 
ATOM     18  C   UNL     1      12.151  -6.201  31.014  0.00  0.00    +0.000 A 
ATOM     19  C   UNL     1      13.570  -5.045  32.591  0.00  0.00    +0.000 A 
ATOM     20  C   UNL     1      12.343  -5.176  31.941  0.00  0.00    +0.000 A 
ENDBRANCH  12  15
ENDBRANCH   3  12
ENDBRANCH   6  11
TORSDOF 3
ENDMDL
MODEL 4
REMARK VINA RESULT:      -3.5     16.292     18.364
REMARK  Name = 25338851
REMARK  4 active torsions:
REMARK  status: ('A' for Active; 'I' for Inactive)
REMARK    1  A    between atoms: N_3  and  C_12
REMARK    2  A    between atoms: N_3  and  C_14
REMARK    3  A    between atoms: C_6  and  C_11
REMARK    4  A    between atoms: C_12  and  C_15
REMARK                            x       y       z     vdW  Elec       q    Type
REMARK                         _______ _______ _______ _____ _____    ______ ____
ROOT
ATOM      2  N   UNL     1      -0.527   3.123  25.078  0.00  0.00    -0.300 NA
ATOM      4  N   UNL     1      -4.076   3.462  26.190  0.00  0.00    -0.347 N 
ATOM      5  N   UNL     1      -4.494   1.951  24.594  0.00  0.00    -0.240 NA
ATOM      6  C   UNL     1      -0.706   1.731  24.611  0.00  0.00    +0.147 C 
ATOM      7  C   UNL     1      -2.084   1.488  23.937  0.00  0.00    +0.085 C 
ATOM      8  C   UNL     1      -3.150   2.144  24.728  0.00  0.00    +0.065 A 
ATOM      9  C   UNL     1      -1.515   3.504  26.113  0.00  0.00    +0.137 C 
ATOM     10  C   UNL     1      -2.867   3.073  25.700  0.00  0.00    +0.053 A 
ATOM     13  C   UNL     1      -5.026   2.758  25.492  0.00  0.00    +0.197 A 
ATOM     21  H   UNL     1      -0.639   3.752  24.281  0.00  0.00    +0.123 HD
ATOM     22  H   UNL     1      -4.246   4.134  26.927  0.00  0.00    +0.167 HD
ENDROOT
BRANCH   6  11
ATOM      1  O   UNL     1       1.044   2.428  23.191  0.00  0.00    -0.274 OA
ATOM      3  N   UNL     1       0.596   0.148  23.249  0.00  0.00    -0.299 N 
ATOM     11  C   UNL     1       0.388   1.476  23.624  0.00  0.00    +0.233 C 
ATOM     14  C   UNL     1      -0.203  -0.947  23.784  0.00  0.00    +0.132 C 
BRANCH   3  12
ATOM     12  C   UNL     1       1.630  -0.243  22.295  0.00  0.00    +0.142 C 
BRANCH  12  15
ATOM     15  C   UNL     1       2.998  -0.234  22.913  0.00  0.00    -0.030 A 
ATOM     16  C   UNL     1       3.479  -1.375  23.556  0.00  0.00    +0.005 A 
ATOM     17  C   UNL     1       3.788   0.913  22.843  0.00  0.00    +0.005 A 
ATOM     18  C   UNL     1       4.750  -1.368  24.130  0.00  0.00    +0.000 A 
ATOM     19  C   UNL     1       5.059   0.919  23.418  0.00  0.00    +0.000 A 
ATOM     20  C   UNL     1       5.540  -0.220  24.061  0.00  0.00    +0.000 A 
ENDBRANCH  12  15
ENDBRANCH   3  12
ENDBRANCH   6  11
TORSDOF 3
ENDMDL
MODEL 5
REMARK VINA RESULT:      -3.4     16.331     17.678
REMARK  Name = 25338851
REMARK  4 active torsions:
REMARK  status: ('A' for Active; 'I' for Inactive)
REMARK    1  A    between atoms: N_3  and  C_12
REMARK    2  A    between atoms: N_3  and  C_14
REMARK    3  A    between atoms: C_6  and  C_11
REMARK    4  A    between atoms: C_12  and  C_15
REMARK                            x       y       z     vdW  Elec       q    Type
REMARK                         _______ _______ _______ _____ _____    ______ ____
ROOT
ATOM      2  N   UNL     1      -0.123  -0.010  23.380  0.00  0.00    -0.300 NA
ATOM      4  N   UNL     1       3.496  -0.875  23.067  0.00  0.00    -0.347 N 
ATOM      5  N   UNL     1       3.800   1.341  23.014  0.00  0.00    -0.240 NA
ATOM      6  C   UNL     1       0.145   1.288  24.036  0.00  0.00    +0.147 C 
ATOM      7  C   UNL     1       1.391   2.015  23.459  0.00  0.00    +0.085 C 
ATOM      8  C   UNL     1       2.491   1.044  23.265  0.00  0.00    +0.065 A 
ATOM      9  C   UNL     1       0.985  -0.976  23.562  0.00  0.00    +0.137 C 
ATOM     10  C   UNL     1       2.279  -0.312  23.297  0.00  0.00    +0.053 A 
ATOM     13  C   UNL     1       4.381   0.163  22.903  0.00  0.00    +0.197 A 
ATOM     21  H   UNL     1      -0.248   0.149  22.379  0.00  0.00    +0.123 HD
ATOM     22  H   UNL     1       3.713  -1.862  23.028  0.00  0.00    +0.167 HD
ENDROOT
BRANCH   6  11
ATOM      1  O   UNL     1      -1.644   2.090  22.725  0.00  0.00    -0.274 OA
ATOM      3  N   UNL     1      -1.488   2.918  24.891  0.00  0.00    -0.299 N 
ATOM     11  C   UNL     1      -1.072   2.128  23.818  0.00  0.00    +0.233 C 
ATOM     14  C   UNL     1      -0.783   2.934  26.166  0.00  0.00    +0.132 C 
BRANCH   3  12
ATOM     12  C   UNL     1      -2.661   3.785  24.815  0.00  0.00    +0.142 C 
BRANCH  12  15
ATOM     15  C   UNL     1      -3.935   3.033  25.072  0.00  0.00    -0.030 A 
ATOM     16  C   UNL     1      -3.993   1.660  24.833  0.00  0.00    +0.005 A 
ATOM     17  C   UNL     1      -5.058   3.706  25.551  0.00  0.00    +0.005 A 
ATOM     18  C   UNL     1      -5.175   0.960  25.071  0.00  0.00    +0.000 A 
ATOM     19  C   UNL     1      -6.241   3.006  25.789  0.00  0.00    +0.000 A 
ATOM     20  C   UNL     1      -6.300   1.634  25.549  0.00  0.00    +0.000 A 
ENDBRANCH  12  15
ENDBRANCH   3  12
ENDBRANCH   6  11
TORSDOF 3
ENDMDL
MODEL 6
REMARK VINA RESULT:      -3.3     25.727     26.994
REMARK  Name = 25338851
REMARK  4 active torsions:
REMARK  status: ('A' for Active; 'I' for Inactive)
REMARK    1  A    between atoms: N_3  and  C_12
REMARK    2  A    between atoms: N_3  and  C_14
REMARK    3  A    between atoms: C_6  and  C_11
REMARK    4  A    between atoms: C_12  and  C_15
REMARK                            x       y       z     vdW  Elec       q    Type
REMARK                         _______ _______ _______ _____ _____    ______ ____
ROOT
ATOM      2  N   UNL     1      12.151  -7.987  31.000  0.00  0.00    -0.300 NA
ATOM      4  N   UNL     1       8.869  -8.170  32.771  0.00  0.00    -0.347 N 
ATOM      5  N   UNL     1       9.048 -10.372  32.425  0.00  0.00    -0.240 NA
ATOM      6  C   UNL     1      12.559  -9.346  31.415  0.00  0.00    +0.147 C 
ATOM      7  C   UNL     1      11.383 -10.360  31.422  0.00  0.00    +0.085 C 
ATOM      8  C   UNL     1      10.185  -9.732  32.025  0.00  0.00    +0.065 A 
ATOM      9  C   UNL     1      11.155  -7.389  31.919  0.00  0.00    +0.137 C 
ATOM     10  C   UNL     1      10.097  -8.376  32.223  0.00  0.00    +0.053 A 
ATOM     13  C   UNL     1       8.274  -9.404  32.873  0.00  0.00    +0.197 A 
ATOM     21  H   UNL     1      11.735  -8.041  30.068  0.00  0.00    +0.123 HD
ATOM     22  H   UNL     1       8.469  -7.284  33.055  0.00  0.00    +0.167 HD
ENDROOT
BRANCH   6  11
ATOM      1  O   UNL     1      13.283 -10.569  29.533  0.00  0.00    -0.274 OA
ATOM      3  N   UNL     1      14.886  -9.281  30.616  0.00  0.00    -0.299 N 
ATOM     11  C   UNL     1      13.599  -9.790  30.437  0.00  0.00    +0.233 C 
ATOM     14  C   UNL     1      15.216  -8.362  31.698  0.00  0.00    +0.132 C 
BRANCH   3  12
ATOM     12  C   UNL     1      15.996  -9.631  29.734  0.00  0.00    +0.142 C 
BRANCH  12  15
ATOM     15  C   UNL     1      15.846  -9.018  28.372  0.00  0.00    -0.030 A 
ATOM     16  C   UNL     1      15.704  -7.636  28.242  0.00  0.00    +0.005 A 
ATOM     17  C   UNL     1      15.850  -9.829  27.237  0.00  0.00    +0.005 A 
ATOM     18  C   UNL     1      15.566  -7.065  26.977  0.00  0.00    +0.000 A 
ATOM     19  C   UNL     1      15.711  -9.258  25.972  0.00  0.00    +0.000 A 
ATOM     20  C   UNL     1      15.569  -7.877  25.842  0.00  0.00    +0.000 A 
ENDBRANCH  12  15
ENDBRANCH   3  12
ENDBRANCH   6  11
TORSDOF 3
ENDMDL
MODEL 7
REMARK VINA RESULT:      -3.3     26.485     27.770
REMARK  Name = 25338851
REMARK  4 active torsions:
REMARK  status: ('A' for Active; 'I' for Inactive)
REMARK    1  A    between atoms: N_3  and  C_12
REMARK    2  A    between atoms: N_3  and  C_14
REMARK    3  A    between atoms: C_6  and  C_11
REMARK    4  A    between atoms: C_12  and  C_15
REMARK                            x       y       z     vdW  Elec       q    Type
REMARK                         _______ _______ _______ _____ _____    ______ ____
ROOT
ATOM      2  N   UNL     1      14.697  -6.665  28.447  0.00  0.00    -0.300 NA
ATOM      4  N   UNL     1      14.722  -8.314  31.797  0.00  0.00    -0.347 N 
ATOM      5  N   UNL     1      16.546  -9.357  31.031  0.00  0.00    -0.240 NA
ATOM      6  C   UNL     1      16.161  -6.780  28.273  0.00  0.00    +0.147 C 
ATOM      7  C   UNL     1      16.737  -8.113  28.825  0.00  0.00    +0.085 C 
ATOM      8  C   UNL     1      16.123  -8.418  30.137  0.00  0.00    +0.065 A 
ATOM      9  C   UNL     1      14.293  -6.680  29.871  0.00  0.00    +0.137 C 
ATOM     10  C   UNL     1      14.999  -7.766  30.583  0.00  0.00    +0.053 A 
ATOM     13  C   UNL     1      15.682  -9.269  32.024  0.00  0.00    +0.197 A 
ATOM     21  H   UNL     1      14.250  -7.455  27.979  0.00  0.00    +0.123 HD
ATOM     22  H   UNL     1      13.961  -8.066  32.418  0.00  0.00    +0.167 HD
ENDROOT
BRANCH   6  11
ATOM      1  O   UNL     1      16.087  -7.632  26.075  0.00  0.00    -0.274 OA
ATOM      3  N   UNL     1      17.030  -5.525  26.343  0.00  0.00    -0.299 N 
ATOM     11  C   UNL     1      16.418  -6.692  26.803  0.00  0.00    +0.233 C 
ATOM     14  C   UNL     1      17.405  -4.437  27.238  0.00  0.00    +0.132 C 
BRANCH   3  12
ATOM     12  C   UNL     1      17.338  -5.307  24.932  0.00  0.00    +0.142 C 
BRANCH  12  15
ATOM     15  C   UNL     1      17.081  -3.889  24.512  0.00  0.00    -0.030 A 
ATOM     16  C   UNL     1      17.405  -2.839  25.372  0.00  0.00    +0.005 A 
ATOM     17  C   UNL     1      16.521  -3.622  23.264  0.00  0.00    +0.005 A 
ATOM     18  C   UNL     1      17.167  -1.521  24.983  0.00  0.00    +0.000 A 
ATOM     19  C   UNL     1      16.282  -2.303  22.875  0.00  0.00    +0.000 A 
ATOM     20  C   UNL     1      16.605  -1.253  23.734  0.00  0.00    +0.000 A 
ENDBRANCH  12  15
ENDBRANCH   3  12
ENDBRANCH   6  11
TORSDOF 3
ENDMDL
MODEL 8
REMARK VINA RESULT:      -2.9     26.110     28.413
REMARK  Name = 25338851
REMARK  4 active torsions:
REMARK  status: ('A' for Active; 'I' for Inactive)
REMARK    1  A    between atoms: N_3  and  C_12
REMARK    2  A    between atoms: N_3  and  C_14
REMARK    3  A    between atoms: C_6  and  C_11
REMARK    4  A    between atoms: C_12  and  C_15
REMARK                            x       y       z     vdW  Elec       q    Type
REMARK                         _______ _______ _______ _____ _____    ______ ____
ROOT
ATOM      2  N   UNL     1      12.076  -6.851  31.248  0.00  0.00    -0.300 NA
ATOM      4  N   UNL     1       9.348  -9.133  32.385  0.00  0.00    -0.347 N 
ATOM      5  N   UNL     1      10.801 -10.763  31.897  0.00  0.00    -0.240 NA
ATOM      6  C   UNL     1      13.151  -7.797  31.617  0.00  0.00    +0.147 C 
ATOM      7  C   UNL     1      12.784  -9.279  31.330  0.00  0.00    +0.085 C 
ATOM      8  C   UNL     1      11.391  -9.540  31.760  0.00  0.00    +0.065 A 
ATOM      9  C   UNL     1      10.833  -7.078  32.020  0.00  0.00    +0.137 C 
ATOM     10  C   UNL     1      10.516  -8.522  32.050  0.00  0.00    +0.053 A 
ATOM     13  C   UNL     1       9.569 -10.485  32.278  0.00  0.00    +0.197 A 
ATOM     21  H   UNL     1      11.862  -6.970  30.256  0.00  0.00    +0.123 HD
ATOM     22  H   UNL     1       8.484  -8.686  32.664  0.00  0.00    +0.167 HD
ENDROOT
BRANCH   6  11
ATOM      1  O   UNL     1      14.399  -7.736  29.616  0.00  0.00    -0.274 OA
ATOM      3  N   UNL     1      15.345  -6.692  31.465  0.00  0.00    -0.299 N 
ATOM     11  C   UNL     1      14.347  -7.410  30.806  0.00  0.00    +0.233 C 
ATOM     14  C   UNL     1      15.243  -6.329  32.873  0.00  0.00    +0.132 C 
BRANCH   3  12
ATOM     12  C   UNL     1      16.565  -6.252  30.794  0.00  0.00    +0.142 C 
BRANCH  12  15
ATOM     15  C   UNL     1      16.558  -4.774  30.529  0.00  0.00    -0.030 A 
ATOM     16  C   UNL     1      17.064  -4.280  29.327  0.00  0.00    +0.005 A 
ATOM     17  C   UNL     1      16.046  -3.896  31.484  0.00  0.00    +0.005 A 
ATOM     18  C   UNL     1      17.059  -2.907  29.079  0.00  0.00    +0.000 A 
ATOM     19  C   UNL     1      16.041  -2.523  31.236  0.00  0.00    +0.000 A 
ATOM     20  C   UNL     1      16.547  -2.029  30.035  0.00  0.00    +0.000 A 
ENDBRANCH  12  15
ENDBRANCH   3  12
ENDBRANCH   6  11
TORSDOF 3
ENDMDL
MODEL 9
REMARK VINA RESULT:      -2.4     25.794     27.359
REMARK  Name = 25338851
REMARK  4 active torsions:
REMARK  status: ('A' for Active; 'I' for Inactive)
REMARK    1  A    between atoms: N_3  and  C_12
REMARK    2  A    between atoms: N_3  and  C_14
REMARK    3  A    between atoms: C_6  and  C_11
REMARK    4  A    between atoms: C_12  and  C_15
REMARK                            x       y       z     vdW  Elec       q    Type
REMARK                         _______ _______ _______ _____ _____    ______ ____
ROOT
ATOM      2  N   UNL     1      12.364  -6.557  32.237  0.00  0.00    -0.300 NA
ATOM      4  N   UNL     1       8.965  -8.049  32.640  0.00  0.00    -0.347 N 
ATOM      5  N   UNL     1       9.915  -9.899  31.814  0.00  0.00    -0.240 NA
ATOM      6  C   UNL     1      13.058  -7.853  32.398  0.00  0.00    +0.147 C 
ATOM      7  C   UNL     1      12.303  -9.034  31.728  0.00  0.00    +0.085 C 
ATOM      8  C   UNL     1      10.855  -8.930  32.018  0.00  0.00    +0.065 A 
ATOM      9  C   UNL     1      11.027  -6.547  32.873  0.00  0.00    +0.137 C 
ATOM     10  C   UNL     1      10.294  -7.781  32.521  0.00  0.00    +0.053 A 
ATOM     13  C   UNL     1       8.786  -9.339  32.201  0.00  0.00    +0.197 A 
ATOM     21  H   UNL     1      12.246  -6.371  31.240  0.00  0.00    +0.123 HD
ATOM     22  H   UNL     1       8.247  -7.427  32.987  0.00  0.00    +0.167 HD
ENDROOT
BRANCH   6  11
ATOM      1  O   UNL     1      15.400  -8.126  32.346  0.00  0.00    -0.274 OA
ATOM      3  N   UNL     1      14.437  -7.046  30.527  0.00  0.00    -0.299 N 
ATOM     11  C   UNL     1      14.402  -7.692  31.763  0.00  0.00    +0.233 C 
ATOM     14  C   UNL     1      13.233  -6.547  29.873  0.00  0.00    +0.132 C 
BRANCH   3  12
ATOM     12  C   UNL     1      15.682  -6.821  29.797  0.00  0.00    +0.142 C 
BRANCH  12  15
ATOM     15  C   UNL     1      15.707  -7.557  28.488  0.00  0.00    -0.030 A 
ATOM     16  C   UNL     1      15.562  -8.944  28.467  0.00  0.00    +0.005 A 
ATOM     17  C   UNL     1      15.875  -6.854  27.296  0.00  0.00    +0.005 A 
ATOM     18  C   UNL     1      15.585  -9.629  27.252  0.00  0.00    +0.000 A 
ATOM     19  C   UNL     1      15.898  -7.540  26.081  0.00  0.00    +0.000 A 
ATOM     20  C   UNL     1      15.753  -8.926  26.059  0.00  0.00    +0.000 A 
ENDBRANCH  12  15
ENDBRANCH   3  12
ENDBRANCH   6  11
TORSDOF 3
ENDMDL
MODEL 10
REMARK VINA RESULT:      -2.2     15.481     17.471
REMARK  Name = 25338851
REMARK  4 active torsions:
REMARK  status: ('A' for Active; 'I' for Inactive)
REMARK    1  A    between atoms: N_3  and  C_12
REMARK    2  A    between atoms: N_3  and  C_14
REMARK    3  A    between atoms: C_6  and  C_11
REMARK    4  A    between atoms: C_12  and  C_15
REMARK                            x       y       z     vdW  Elec       q    Type
REMARK                         _______ _______ _______ _____ _____    ______ ____
ROOT
ATOM      2  N   UNL     1       0.232  -0.148  21.832  0.00  0.00    -0.300 NA
ATOM      4  N   UNL     1       3.957   0.099  21.739  0.00  0.00    -0.347 N 
ATOM      5  N   UNL     1       3.697   1.434  23.515  0.00  0.00    -0.240 NA
ATOM      6  C   UNL     1       0.157   0.087  23.290  0.00  0.00    +0.147 C 
ATOM      7  C   UNL     1       1.190   1.133  23.792  0.00  0.00    +0.085 C 
ATOM      8  C   UNL     1       2.501   0.889  23.149  0.00  0.00    +0.065 A 
ATOM      9  C   UNL     1       1.543  -0.695  21.413  0.00  0.00    +0.137 C 
ATOM     10  C   UNL     1       2.634   0.068  22.056  0.00  0.00    +0.053 A 
ATOM     13  C   UNL     1       4.557   0.937  22.647  0.00  0.00    +0.197 A 
ATOM     21  H   UNL     1       0.087   0.740  21.350  0.00  0.00    +0.123 HD
ATOM     22  H   UNL     1       4.415  -0.398  20.986  0.00  0.00    +0.167 HD
ENDROOT
BRANCH   6  11
ATOM      1  O   UNL     1      -1.710   1.459  22.850  0.00  0.00    -0.274 OA
ATOM      3  N   UNL     1      -1.898  -0.011  24.640  0.00  0.00    -0.299 N 
ATOM     11  C   UNL     1      -1.228   0.577  23.566  0.00  0.00    +0.233 C 
ATOM     14  C   UNL     1      -1.292  -1.052  25.461  0.00  0.00    +0.132 C 
BRANCH   3  12
ATOM     12  C   UNL     1      -3.255   0.373  25.019  0.00  0.00    +0.142 C 
BRANCH  12  15
ATOM     15  C   UNL     1      -3.370   1.846  25.283  0.00  0.00    -0.030 A 
ATOM     16  C   UNL     1      -2.257   2.564  25.721  0.00  0.00    +0.005 A 
ATOM     17  C   UNL     1      -4.588   2.497  25.088  0.00  0.00    +0.005 A 
ATOM     18  C   UNL     1      -2.362   3.933  25.965  0.00  0.00    +0.000 A 
ATOM     19  C   UNL     1      -4.693   3.866  25.334  0.00  0.00    +0.000 A 
ATOM     20  C   UNL     1      -3.581   4.584  25.772  0.00  0.00    +0.000 A 
ENDBRANCH  12  15
ENDBRANCH   3  12
ENDBRANCH   6  11
TORSDOF 3
ENDMDL
