MODEL 1
REMARK VINA RESULT:       7.1      0.000      0.000
REMARK  Name = 26742025
REMARK  8 active torsions:
REMARK  status: ('A' for Active; 'I' for Inactive)
REMARK    1  A    between atoms: O_1  and  C_11
REMARK    2  A    between atoms: O_5  and  C_24
REMARK    3  A    between atoms: O_5  and  C_28
REMARK    4  A    between atoms: N_7  and  C_10
REMARK    5  A    between atoms: N_8  and  C_21
REMARK    6  A    between atoms: N_9  and  C_25
REMARK    7  A    between atoms: C_17  and  C_20
REMARK    8  A    between atoms: C_21  and  C_24
REMARK                            x       y       z     vdW  Elec       q    Type
REMARK                         _______ _______ _______ _____ _____    ______ ____
ROOT
ATOM      4  O   UNL     1      -0.974   3.220  26.568  0.00  0.00    -0.270 OA
ATOM      7  N   UNL     1      -2.551   3.203  24.870  0.00  0.00    -0.305 N 
ATOM     17  C   UNL     1      -1.399   2.778  25.504  0.00  0.00    +0.244 C 
ATOM     36  H   UNL     1      -2.895   2.713  24.052  0.00  0.00    +0.149 HD
ENDROOT
BRANCH   7  10
ATOM      3  O   UNL     1      -6.690   1.257  25.739  0.00  0.00    -0.252 OA
ATOM      6  N   UNL     1      -5.410   3.074  26.378  0.00  0.00    -0.284 N 
ATOM      9  N   UNL     1      -4.411   0.954  26.073  0.00  0.00    -0.269 N 
ATOM     10  C   UNL     1      -3.397   4.245  25.421  0.00  0.00    +0.119 C 
ATOM     11  C   UNL     1      -4.272   4.827  24.295  0.00  0.00    +0.136 C 
ATOM     12  C   UNL     1      -5.495   5.628  24.749  0.00  0.00    +0.035 C 
ATOM     13  C   UNL     1      -4.133   3.740  26.668  0.00  0.00    +0.134 C 
ATOM     14  C   UNL     1      -6.706   4.752  25.077  0.00  0.00    +0.022 C 
ATOM     15  C   UNL     1      -6.579   3.956  26.370  0.00  0.00    +0.109 C 
ATOM     16  C   UNL     1      -5.582   1.710  26.039  0.00  0.00    +0.307 C 
ATOM     38  H   UNL     1      -3.661   1.266  26.680  0.00  0.00    +0.156 HD
BRANCH   9  25
ATOM     25  C   UNL     1      -4.085  -0.183  25.291  0.00  0.00    +0.035 A 
ATOM     31  C   UNL     1      -3.641  -1.351  25.910  0.00  0.00    +0.023 A 
ATOM     32  C   UNL     1      -4.206  -0.134  23.902  0.00  0.00    +0.023 A 
ATOM     33  C   UNL     1      -3.319  -2.470  25.141  0.00  0.00    +0.002 A 
ATOM     34  C   UNL     1      -3.885  -1.252  23.133  0.00  0.00    +0.002 A 
ATOM     35  C   UNL     1      -3.441  -2.420  23.753  0.00  0.00    +0.000 A 
ENDBRANCH   9  25
BRANCH  11   1
ATOM      1  O   UNL     1      -3.453   5.713  23.520  0.00  0.00    -0.390 OA
ATOM     37  H   UNL     1      -2.576   5.304  23.432  0.00  0.00    +0.210 HD
ENDBRANCH  11   1
ENDBRANCH   7  10
BRANCH  17  20
ATOM     20  C   UNL     1      -0.629   1.722  24.797  0.00  0.00    +0.037 A 
ATOM     26  C   UNL     1       0.378   2.076  23.899  0.00  0.00    +0.016 A 
ATOM     27  C   UNL     1      -0.915   0.378  25.031  0.00  0.00    +0.016 A 
ATOM     28  C   UNL     1       0.813  -0.260  23.468  0.00  0.00    +0.121 A 
ATOM     29  C   UNL     1       1.100   1.084  23.235  0.00  0.00    +0.046 A 
ATOM     30  C   UNL     1      -0.193  -0.614  24.366  0.00  0.00    +0.046 A 
BRANCH  28   5
ATOM      5  O   UNL     1       1.518  -1.229  22.820  0.00  0.00    -0.491 OA
BRANCH   5  24
ATOM     24  C   UNL     1       2.141  -0.867  21.590  0.00  0.00    +0.244 C 
BRANCH  24  21
ATOM     21  C   UNL     1       3.060   0.319  21.837  0.00  0.00    +0.125 C 
BRANCH  21   8
ATOM      2  O   UNL     1       5.803  -0.585  24.881  0.00  0.00    -0.377 OA
ATOM      8  N   UNL     1       4.275  -0.105  22.528  0.00  0.00    -0.295 NA
ATOM     18  C   UNL     1       4.005  -1.258  23.399  0.00  0.00    +0.112 C 
ATOM     19  C   UNL     1       4.839   0.999  23.318  0.00  0.00    +0.112 C 
ATOM     22  C   UNL     1       5.284  -1.675  24.119  0.00  0.00    +0.175 C 
ATOM     23  C   UNL     1       6.099   0.529  24.039  0.00  0.00    +0.175 C 
ENDBRANCH  21   8
ENDBRANCH  24  21
ENDBRANCH   5  24
ENDBRANCH  28   5
ENDBRANCH  17  20
TORSDOF 8
ENDMDL
MODEL 2
REMARK VINA RESULT:       8.4      1.335      1.765
REMARK  Name = 26742025
REMARK  8 active torsions:
REMARK  status: ('A' for Active; 'I' for Inactive)
REMARK    1  A    between atoms: O_1  and  C_11
REMARK    2  A    between atoms: O_5  and  C_24
REMARK    3  A    between atoms: O_5  and  C_28
REMARK    4  A    between atoms: N_7  and  C_10
REMARK    5  A    between atoms: N_8  and  C_21
REMARK    6  A    between atoms: N_9  and  C_25
REMARK    7  A    between atoms: C_17  and  C_20
REMARK    8  A    between atoms: C_21  and  C_24
REMARK                            x       y       z     vdW  Elec       q    Type
REMARK                         _______ _______ _______ _____ _____    ______ ____
ROOT
ATOM      4  O   UNL     1      -2.277   2.574  23.604  0.00  0.00    -0.270 OA
ATOM      7  N   UNL     1      -1.984   2.735  25.898  0.00  0.00    -0.305 N 
ATOM     17  C   UNL     1      -1.824   2.141  24.661  0.00  0.00    +0.244 C 
ATOM     36  H   UNL     1      -1.485   2.378  26.705  0.00  0.00    +0.149 HD
ENDROOT
BRANCH   7  10
ATOM      3  O   UNL     1      -6.380   1.850  24.652  0.00  0.00    -0.252 OA
ATOM      6  N   UNL     1      -5.161   3.346  25.924  0.00  0.00    -0.284 N 
ATOM      9  N   UNL     1      -4.646   1.039  25.967  0.00  0.00    -0.269 N 
ATOM     10  C   UNL     1      -2.725   3.970  26.072  0.00  0.00    +0.119 C 
ATOM     11  C   UNL     1      -2.828   4.687  24.713  0.00  0.00    +0.136 C 
ATOM     12  C   UNL     1      -3.904   5.771  24.611  0.00  0.00    +0.035 C 
ATOM     13  C   UNL     1      -4.045   3.708  26.808  0.00  0.00    +0.134 C 
ATOM     14  C   UNL     1      -5.294   5.217  24.291  0.00  0.00    +0.022 C 
ATOM     15  C   UNL     1      -5.960   4.474  25.443  0.00  0.00    +0.109 C 
ATOM     16  C   UNL     1      -5.463   2.045  25.453  0.00  0.00    +0.307 C 
ATOM     38  H   UNL     1      -4.209   1.196  26.869  0.00  0.00    +0.156 HD
BRANCH   9  25
ATOM     25  C   UNL     1      -4.266  -0.177  25.345  0.00  0.00    +0.035 A 
ATOM     31  C   UNL     1      -3.795  -1.238  26.119  0.00  0.00    +0.023 A 
ATOM     32  C   UNL     1      -4.361  -0.313  23.960  0.00  0.00    +0.023 A 
ATOM     33  C   UNL     1      -3.421  -2.435  25.509  0.00  0.00    +0.002 A 
ATOM     34  C   UNL     1      -3.987  -1.511  23.350  0.00  0.00    +0.002 A 
ATOM     35  C   UNL     1      -3.517  -2.571  24.124  0.00  0.00    +0.000 A 
ENDBRANCH   9  25
BRANCH  11   1
ATOM      1  O   UNL     1      -1.567   5.321  24.457  0.00  0.00    -0.390 OA
ATOM     37  H   UNL     1      -1.727   6.277  24.386  0.00  0.00    +0.210 HD
ENDBRANCH  11   1
ENDBRANCH   7  10
BRANCH  17  20
ATOM     20  C   UNL     1      -1.060   0.866  24.654  0.00  0.00    +0.037 A 
ATOM     26  C   UNL     1      -0.451   0.425  23.480  0.00  0.00    +0.016 A 
ATOM     27  C   UNL     1      -0.955   0.111  25.822  0.00  0.00    +0.016 A 
ATOM     28  C   UNL     1       0.370  -1.528  24.641  0.00  0.00    +0.121 A 
ATOM     29  C   UNL     1       0.265  -0.773  23.474  0.00  0.00    +0.046 A 
ATOM     30  C   UNL     1      -0.239  -1.086  25.816  0.00  0.00    +0.046 A 
BRANCH  28   5
ATOM      5  O   UNL     1       1.069  -2.697  24.636  0.00  0.00    -0.491 OA
BRANCH   5  24
ATOM     24  C   UNL     1       2.417  -2.649  25.097  0.00  0.00    +0.244 C 
BRANCH  24  21
ATOM     21  C   UNL     1       3.331  -2.375  23.913  0.00  0.00    +0.125 C 
BRANCH  21   8
ATOM      2  O   UNL     1       5.193   1.214  22.792  0.00  0.00    -0.377 OA
ATOM      8  N   UNL     1       3.761  -0.979  23.906  0.00  0.00    -0.295 NA
ATOM     18  C   UNL     1       3.297  -0.297  22.689  0.00  0.00    +0.112 C 
ATOM     19  C   UNL     1       5.224  -0.883  24.009  0.00  0.00    +0.112 C 
ATOM     22  C   UNL     1       3.769   1.155  22.697  0.00  0.00    +0.175 C 
ATOM     23  C   UNL     1       5.650   0.582  23.987  0.00  0.00    +0.175 C 
ENDBRANCH  21   8
ENDBRANCH  24  21
ENDBRANCH   5  24
ENDBRANCH  28   5
ENDBRANCH  17  20
TORSDOF 8
ENDMDL
MODEL 3
REMARK VINA RESULT:       8.7      1.613      4.062
REMARK  Name = 26742025
REMARK  8 active torsions:
REMARK  status: ('A' for Active; 'I' for Inactive)
REMARK    1  A    between atoms: O_1  and  C_11
REMARK    2  A    between atoms: O_5  and  C_24
REMARK    3  A    between atoms: O_5  and  C_28
REMARK    4  A    between atoms: N_7  and  C_10
REMARK    5  A    between atoms: N_8  and  C_21
REMARK    6  A    between atoms: N_9  and  C_25
REMARK    7  A    between atoms: C_17  and  C_20
REMARK    8  A    between atoms: C_21  and  C_24
REMARK                            x       y       z     vdW  Elec       q    Type
REMARK                         _______ _______ _______ _____ _____    ______ ____
ROOT
ATOM      4  O   UNL     1      -5.300  -0.867  23.884  0.00  0.00    -0.270 OA
ATOM      7  N   UNL     1      -4.419   0.967  24.996  0.00  0.00    -0.305 N 
ATOM     17  C   UNL     1      -4.379  -0.315  24.481  0.00  0.00    +0.244 C 
ATOM     36  H   UNL     1      -3.581   1.392  25.376  0.00  0.00    +0.149 HD
ENDROOT
BRANCH   7  10
ATOM      3  O   UNL     1      -2.928   5.374  25.155  0.00  0.00    -0.252 OA
ATOM      6  N   UNL     1      -4.734   4.134  24.417  0.00  0.00    -0.284 N 
ATOM      9  N   UNL     1      -2.531   3.337  24.112  0.00  0.00    -0.269 N 
ATOM     10  C   UNL     1      -5.593   1.811  24.874  0.00  0.00    +0.119 C 
ATOM     11  C   UNL     1      -6.038   2.254  26.280  0.00  0.00    +0.136 C 
ATOM     12  C   UNL     1      -6.984   3.456  26.331  0.00  0.00    +0.035 C 
ATOM     13  C   UNL     1      -5.351   2.927  23.850  0.00  0.00    +0.134 C 
ATOM     14  C   UNL     1      -6.258   4.802  26.266  0.00  0.00    +0.022 C 
ATOM     15  C   UNL     1      -5.680   5.143  24.898  0.00  0.00    +0.109 C 
ATOM     16  C   UNL     1      -3.348   4.355  24.601  0.00  0.00    +0.307 C 
ATOM     38  H   UNL     1      -2.887   2.763  23.355  0.00  0.00    +0.156 HD
BRANCH   9  25
ATOM     25  C   UNL     1      -1.260   2.931  24.594  0.00  0.00    +0.035 A 
ATOM     31  C   UNL     1      -0.300   2.448  23.707  0.00  0.00    +0.023 A 
ATOM     32  C   UNL     1      -0.973   3.014  25.956  0.00  0.00    +0.023 A 
ATOM     33  C   UNL     1       0.950   2.048  24.181  0.00  0.00    +0.002 A 
ATOM     34  C   UNL     1       0.277   2.614  26.431  0.00  0.00    +0.002 A 
ATOM     35  C   UNL     1       1.238   2.131  25.543  0.00  0.00    +0.000 A 
ENDBRANCH   9  25
BRANCH  11   1
ATOM      1  O   UNL     1      -6.727   1.152  26.887  0.00  0.00    -0.390 OA
ATOM     37  H   UNL     1      -6.068   0.619  27.365  0.00  0.00    +0.210 HD
ENDBRANCH  11   1
ENDBRANCH   7  10
BRANCH  17  20
ATOM     20  C   UNL     1      -3.114  -1.060  24.711  0.00  0.00    +0.037 A 
ATOM     26  C   UNL     1      -2.080  -0.470  25.437  0.00  0.00    +0.016 A 
ATOM     27  C   UNL     1      -2.962  -2.348  24.200  0.00  0.00    +0.016 A 
ATOM     28  C   UNL     1      -0.739  -2.457  25.141  0.00  0.00    +0.121 A 
ATOM     29  C   UNL     1      -0.891  -1.169  25.652  0.00  0.00    +0.046 A 
ATOM     30  C   UNL     1      -1.773  -3.048  24.416  0.00  0.00    +0.046 A 
BRANCH  28   5
ATOM      5  O   UNL     1       0.420  -3.141  25.351  0.00  0.00    -0.491 OA
BRANCH   5  24
ATOM     24  C   UNL     1       1.639  -2.427  25.157  0.00  0.00    +0.244 C 
BRANCH  24  21
ATOM     21  C   UNL     1       1.533  -1.615  23.876  0.00  0.00    +0.125 C 
BRANCH  21   8
ATOM      2  O   UNL     1       5.069   0.161  22.477  0.00  0.00    -0.377 OA
ATOM      8  N   UNL     1       2.672  -0.710  23.743  0.00  0.00    -0.295 NA
ATOM     18  C   UNL     1       2.651  -0.032  22.439  0.00  0.00    +0.112 C 
ATOM     19  C   UNL     1       3.939  -1.438  23.910  0.00  0.00    +0.112 C 
ATOM     22  C   UNL     1       3.856   0.896  22.318  0.00  0.00    +0.175 C 
ATOM     23  C   UNL     1       5.113  -0.475  23.755  0.00  0.00    +0.175 C 
ENDBRANCH  21   8
ENDBRANCH  24  21
ENDBRANCH   5  24
ENDBRANCH  28   5
ENDBRANCH  17  20
TORSDOF 8
ENDMDL
