MODEL 1
REMARK VINA RESULT:      -5.5      0.000      0.000
REMARK  Name = 75368477
REMARK  3 active torsions:
REMARK  status: ('A' for Active; 'I' for Inactive)
REMARK    1  A    between atoms: S_1  and  N_6
REMARK    2  A    between atoms: S_1  and  C_15
REMARK    3  A    between atoms: N_7  and  C_14
REMARK                            x       y       z     vdW  Elec       q    Type
REMARK                         _______ _______ _______ _____ _____    ______ ____
ROOT
ATOM      2  O   UNL     1      -3.884   4.445  25.472  0.00  0.00    -0.252 OA
ATOM      5  N   UNL     1      -3.413   2.319  24.590  0.00  0.00    -0.278 N 
ATOM      6  N   UNL     1      -3.426  -0.470  24.399  0.00  0.00    -0.178 NA
ATOM      7  N   UNL     1      -1.744   3.819  24.706  0.00  0.00    -0.287 N 
ATOM      8  C   UNL     1      -2.292   1.665  23.944  0.00  0.00    +0.111 C 
ATOM      9  C   UNL     1      -2.113   0.251  24.489  0.00  0.00    +0.133 C 
ATOM     10  C   UNL     1      -1.118   2.604  24.216  0.00  0.00    +0.132 C 
ATOM     11  C   UNL     1      -4.692   1.640  24.667  0.00  0.00    +0.127 C 
ATOM     12  C   UNL     1      -4.499   0.221  25.192  0.00  0.00    +0.128 C 
ATOM     13  C   UNL     1      -3.113   3.631  24.982  0.00  0.00    +0.305 C 
ATOM     14  C   UNL     1      -0.980   5.013  24.990  0.00  0.00    +0.133 C 
ENDROOT
BRANCH   6   1
ATOM      1  S   UNL     1      -3.340  -2.168  24.615  0.00  0.00    +0.029 S 
ATOM      3  O   UNL     1      -4.173  -2.804  23.619  0.00  0.00    -0.158 OA
ATOM      4  O   UNL     1      -3.477  -2.464  26.024  0.00  0.00    -0.158 OA
ATOM     15  C   UNL     1      -1.645  -2.424  24.161  0.00  0.00    +0.215 C 
ENDBRANCH   6   1
TORSDOF 1
ENDMDL
MODEL 2
REMARK VINA RESULT:      -5.3      2.375      5.666
REMARK  Name = 75368477
REMARK  3 active torsions:
REMARK  status: ('A' for Active; 'I' for Inactive)
REMARK    1  A    between atoms: S_1  and  N_6
REMARK    2  A    between atoms: S_1  and  C_15
REMARK    3  A    between atoms: N_7  and  C_14
REMARK                            x       y       z     vdW  Elec       q    Type
REMARK                         _______ _______ _______ _____ _____    ______ ____
ROOT
ATOM      2  O   UNL     1      -0.795  -2.216  25.081  0.00  0.00    -0.252 OA
ATOM      5  N   UNL     1      -1.742  -0.138  24.531  0.00  0.00    -0.278 N 
ATOM      6  N   UNL     1      -2.337   2.584  24.763  0.00  0.00    -0.178 NA
ATOM      7  N   UNL     1      -3.045  -1.965  24.421  0.00  0.00    -0.287 N 
ATOM      8  C   UNL     1      -3.000   0.344  23.992  0.00  0.00    +0.111 C 
ATOM      9  C   UNL     1      -3.460   1.589  24.744  0.00  0.00    +0.133 C 
ATOM     10  C   UNL     1      -3.934  -0.857  24.121  0.00  0.00    +0.132 C 
ATOM     11  C   UNL     1      -0.638   0.785  24.708  0.00  0.00    +0.127 C 
ATOM     12  C   UNL     1      -1.114   2.035  25.441  0.00  0.00    +0.128 C 
ATOM     13  C   UNL     1      -1.739  -1.526  24.720  0.00  0.00    +0.305 C 
ATOM     14  C   UNL     1      -3.523  -3.326  24.521  0.00  0.00    +0.133 C 
ENDROOT
BRANCH   6   1
ATOM      1  S   UNL     1      -2.779   4.172  25.233  0.00  0.00    +0.029 S 
ATOM      3  O   UNL     1      -3.079   4.170  26.647  0.00  0.00    -0.158 OA
ATOM      4  O   UNL     1      -3.707   4.702  24.258  0.00  0.00    -0.158 OA
ATOM     15  C   UNL     1      -1.217   4.980  25.002  0.00  0.00    +0.215 C 
ENDBRANCH   6   1
TORSDOF 1
ENDMDL
MODEL 3
REMARK VINA RESULT:      -4.9      2.647      4.559
REMARK  Name = 75368477
REMARK  3 active torsions:
REMARK  status: ('A' for Active; 'I' for Inactive)
REMARK    1  A    between atoms: S_1  and  N_6
REMARK    2  A    between atoms: S_1  and  C_15
REMARK    3  A    between atoms: N_7  and  C_14
REMARK                            x       y       z     vdW  Elec       q    Type
REMARK                         _______ _______ _______ _____ _____    ______ ____
ROOT
ATOM      2  O   UNL     1      -0.836  -2.112  24.050  0.00  0.00    -0.252 OA
ATOM      5  N   UNL     1      -2.011  -0.275  24.924  0.00  0.00    -0.278 N 
ATOM      6  N   UNL     1      -4.202   1.355  25.524  0.00  0.00    -0.178 NA
ATOM      7  N   UNL     1      -0.097   0.115  23.813  0.00  0.00    -0.287 N 
ATOM      8  C   UNL     1      -1.794   1.153  25.064  0.00  0.00    +0.111 C 
ATOM      9  C   UNL     1      -3.067   1.921  24.722  0.00  0.00    +0.133 C 
ATOM     10  C   UNL     1      -0.614   1.433  24.134  0.00  0.00    +0.132 C 
ATOM     11  C   UNL     1      -3.160  -0.890  25.558  0.00  0.00    +0.127 C 
ATOM     12  C   UNL     1      -4.423  -0.101  25.229  0.00  0.00    +0.128 C 
ATOM     13  C   UNL     1      -0.964  -0.910  24.242  0.00  0.00    +0.305 C 
ATOM     14  C   UNL     1       1.103  -0.067  23.027  0.00  0.00    +0.133 C 
ENDROOT
BRANCH   6   1
ATOM      1  S   UNL     1      -5.621   2.316  25.556  0.00  0.00    +0.029 S 
ATOM      3  O   UNL     1      -6.073   2.429  26.925  0.00  0.00    -0.158 OA
ATOM      4  O   UNL     1      -6.502   1.877  24.497  0.00  0.00    -0.158 OA
ATOM     15  C   UNL     1      -4.918   3.872  25.078  0.00  0.00    +0.215 C 
ENDBRANCH   6   1
TORSDOF 1
ENDMDL
MODEL 4
REMARK VINA RESULT:      -4.4      2.638      3.287
REMARK  Name = 75368477
REMARK  3 active torsions:
REMARK  status: ('A' for Active; 'I' for Inactive)
REMARK    1  A    between atoms: S_1  and  N_6
REMARK    2  A    between atoms: S_1  and  C_15
REMARK    3  A    between atoms: N_7  and  C_14
REMARK                            x       y       z     vdW  Elec       q    Type
REMARK                         _______ _______ _______ _____ _____    ______ ____
ROOT
ATOM      2  O   UNL     1      -6.432   1.644  25.847  0.00  0.00    -0.252 OA
ATOM      5  N   UNL     1      -4.405   1.457  24.675  0.00  0.00    -0.278 N 
ATOM      6  N   UNL     1      -1.849   0.512  24.048  0.00  0.00    -0.178 NA
ATOM      7  N   UNL     1      -5.185   3.514  25.134  0.00  0.00    -0.287 N 
ATOM      8  C   UNL     1      -3.479   2.354  24.008  0.00  0.00    +0.111 C 
ATOM      9  C   UNL     1      -2.039   1.973  24.335  0.00  0.00    +0.133 C 
ATOM     10  C   UNL     1      -3.898   3.738  24.501  0.00  0.00    +0.132 C 
ATOM     11  C   UNL     1      -4.221   0.024  24.561  0.00  0.00    +0.127 C 
ATOM     12  C   UNL     1      -2.773  -0.343  24.868  0.00  0.00    +0.128 C 
ATOM     13  C   UNL     1      -5.464   2.141  25.287  0.00  0.00    +0.305 C 
ATOM     14  C   UNL     1      -5.984   4.602  25.650  0.00  0.00    +0.133 C 
ENDROOT
BRANCH   6   1
ATOM      1  S   UNL     1      -0.219  -0.015  23.999  0.00  0.00    +0.029 S 
ATOM      3  O   UNL     1       0.167  -0.199  22.618  0.00  0.00    -0.158 OA
ATOM      4  O   UNL     1      -0.039  -1.056  24.986  0.00  0.00    -0.158 OA
ATOM     15  C   UNL     1       0.570   1.456  24.600  0.00  0.00    +0.215 C 
ENDBRANCH   6   1
TORSDOF 1
ENDMDL
MODEL 5
REMARK VINA RESULT:      -4.2      2.041      5.310
REMARK  Name = 75368477
REMARK  3 active torsions:
REMARK  status: ('A' for Active; 'I' for Inactive)
REMARK    1  A    between atoms: S_1  and  N_6
REMARK    2  A    between atoms: S_1  and  C_15
REMARK    3  A    between atoms: N_7  and  C_14
REMARK                            x       y       z     vdW  Elec       q    Type
REMARK                         _______ _______ _______ _____ _____    ______ ____
ROOT
ATOM      2  O   UNL     1      -4.367  -2.370  23.869  0.00  0.00    -0.252 OA
ATOM      5  N   UNL     1      -3.512  -0.420  24.863  0.00  0.00    -0.278 N 
ATOM      6  N   UNL     1      -3.135   2.315  25.304  0.00  0.00    -0.178 NA
ATOM      7  N   UNL     1      -2.081  -2.084  24.375  0.00  0.00    -0.287 N 
ATOM      8  C   UNL     1      -2.240   0.025  25.399  0.00  0.00    +0.111 C 
ATOM      9  C   UNL     1      -1.951   1.458  24.964  0.00  0.00    +0.133 C 
ATOM     10  C   UNL     1      -1.244  -1.010  24.879  0.00  0.00    +0.132 C 
ATOM     11  C   UNL     1      -4.689   0.408  25.030  0.00  0.00    +0.127 C 
ATOM     12  C   UNL     1      -4.383   1.843  24.613  0.00  0.00    +0.128 C 
ATOM     13  C   UNL     1      -3.439  -1.709  24.316  0.00  0.00    +0.305 C 
ATOM     14  C   UNL     1      -1.524  -3.322  23.879  0.00  0.00    +0.133 C 
ENDROOT
BRANCH   6   1
ATOM      1  S   UNL     1      -2.857   4.004  25.233  0.00  0.00    +0.029 S 
ATOM      3  O   UNL     1      -3.078   4.566  26.546  0.00  0.00    -0.158 OA
ATOM      4  O   UNL     1      -3.514   4.533  24.058  0.00  0.00    -0.158 OA
ATOM     15  C   UNL     1      -1.110   3.990  24.926  0.00  0.00    +0.215 C 
ENDBRANCH   6   1
TORSDOF 1
ENDMDL
MODEL 6
REMARK VINA RESULT:      -3.7      1.675      2.396
REMARK  Name = 75368477
REMARK  3 active torsions:
REMARK  status: ('A' for Active; 'I' for Inactive)
REMARK    1  A    between atoms: S_1  and  N_6
REMARK    2  A    between atoms: S_1  and  C_15
REMARK    3  A    between atoms: N_7  and  C_14
REMARK                            x       y       z     vdW  Elec       q    Type
REMARK                         _______ _______ _______ _____ _____    ______ ____
ROOT
ATOM      2  O   UNL     1      -0.975   4.083  24.704  0.00  0.00    -0.252 OA
ATOM      5  N   UNL     1      -2.105   2.069  25.137  0.00  0.00    -0.278 N 
ATOM      6  N   UNL     1      -2.621  -0.678  25.084  0.00  0.00    -0.178 NA
ATOM      7  N   UNL     1      -3.310   3.847  24.474  0.00  0.00    -0.287 N 
ATOM      8  C   UNL     1      -3.483   1.623  25.212  0.00  0.00    +0.111 C 
ATOM      9  C   UNL     1      -3.643   0.270  24.527  0.00  0.00    +0.133 C 
ATOM     10  C   UNL     1      -4.269   2.760  24.563  0.00  0.00    +0.132 C 
ATOM     11  C   UNL     1      -1.038   1.171  25.532  0.00  0.00    +0.127 C 
ATOM     12  C   UNL     1      -1.220  -0.185  24.859  0.00  0.00    +0.128 C 
ATOM     13  C   UNL     1      -2.000   3.418  24.767  0.00  0.00    +0.305 C 
ATOM     14  C   UNL     1      -3.683   5.162  24.004  0.00  0.00    +0.133 C 
ENDROOT
BRANCH   6   1
ATOM      1  S   UNL     1      -2.881  -2.331  24.712  0.00  0.00    +0.029 S 
ATOM      3  O   UNL     1      -3.349  -3.005  25.901  0.00  0.00    -0.158 OA
ATOM      4  O   UNL     1      -1.750  -2.818  23.954  0.00  0.00    -0.158 OA
ATOM     15  C   UNL     1      -4.253  -2.157  23.601  0.00  0.00    +0.215 C 
ENDBRANCH   6   1
TORSDOF 1
ENDMDL
MODEL 7
REMARK VINA RESULT:      -3.2      2.235      3.102
REMARK  Name = 75368477
REMARK  3 active torsions:
REMARK  status: ('A' for Active; 'I' for Inactive)
REMARK    1  A    between atoms: S_1  and  N_6
REMARK    2  A    between atoms: S_1  and  C_15
REMARK    3  A    between atoms: N_7  and  C_14
REMARK                            x       y       z     vdW  Elec       q    Type
REMARK                         _______ _______ _______ _____ _____    ______ ____
ROOT
ATOM      2  O   UNL     1      -2.177   5.143  25.453  0.00  0.00    -0.252 OA
ATOM      5  N   UNL     1      -2.075   2.801  25.614  0.00  0.00    -0.278 N 
ATOM      6  N   UNL     1      -1.118   0.211  25.175  0.00  0.00    -0.178 NA
ATOM      7  N   UNL     1      -4.074   3.757  25.242  0.00  0.00    -0.287 N 
ATOM      8  C   UNL     1      -3.017   1.699  25.654  0.00  0.00    +0.111 C 
ATOM      9  C   UNL     1      -2.527   0.547  24.783  0.00  0.00    +0.133 C 
ATOM     10  C   UNL     1      -4.331   2.329  25.193  0.00  0.00    +0.132 C 
ATOM     11  C   UNL     1      -0.667   2.549  25.852  0.00  0.00    +0.127 C 
ATOM     12  C   UNL     1      -0.193   1.381  24.994  0.00  0.00    +0.128 C 
ATOM     13  C   UNL     1      -2.707   4.040  25.441  0.00  0.00    +0.305 C 
ATOM     14  C   UNL     1      -5.108   4.732  24.975  0.00  0.00    +0.133 C 
ENDROOT
BRANCH   6   1
ATOM      1  S   UNL     1      -0.531  -1.282  24.574  0.00  0.00    +0.029 S 
ATOM      3  O   UNL     1       0.115  -1.995  25.653  0.00  0.00    -0.158 OA
ATOM      4  O   UNL     1       0.134  -1.044  23.312  0.00  0.00    -0.158 OA
ATOM     15  C   UNL     1      -2.079  -2.079  24.238  0.00  0.00    +0.215 C 
ENDBRANCH   6   1
TORSDOF 1
ENDMDL
MODEL 8
REMARK VINA RESULT:      -3.2      1.650      1.949
REMARK  Name = 75368477
REMARK  3 active torsions:
REMARK  status: ('A' for Active; 'I' for Inactive)
REMARK    1  A    between atoms: S_1  and  N_6
REMARK    2  A    between atoms: S_1  and  C_15
REMARK    3  A    between atoms: N_7  and  C_14
REMARK                            x       y       z     vdW  Elec       q    Type
REMARK                         _______ _______ _______ _____ _____    ______ ____
ROOT
ATOM      2  O   UNL     1      -5.517   3.433  25.959  0.00  0.00    -0.252 OA
ATOM      5  N   UNL     1      -3.953   1.960  25.008  0.00  0.00    -0.278 N 
ATOM      6  N   UNL     1      -2.590  -0.440  24.561  0.00  0.00    -0.178 NA
ATOM      7  N   UNL     1      -3.253   4.003  25.627  0.00  0.00    -0.287 N 
ATOM      8  C   UNL     1      -2.573   2.020  24.567  0.00  0.00    +0.111 C 
ATOM      9  C   UNL     1      -1.818   0.769  25.003  0.00  0.00    +0.133 C 
ATOM     10  C   UNL     1      -2.053   3.321  25.176  0.00  0.00    +0.132 C 
ATOM     11  C   UNL     1      -4.740   0.772  24.739  0.00  0.00    +0.127 C 
ATOM     12  C   UNL     1      -3.967  -0.473  25.160  0.00  0.00    +0.128 C 
ATOM     13  C   UNL     1      -4.385   3.166  25.577  0.00  0.00    +0.305 C 
ATOM     14  C   UNL     1      -3.212   5.338  26.181  0.00  0.00    +0.133 C 
ENDROOT
BRANCH   6   1
ATOM      1  S   UNL     1      -1.728  -1.920  24.632  0.00  0.00    +0.029 S 
ATOM      3  O   UNL     1      -0.804  -1.866  25.742  0.00  0.00    -0.158 OA
ATOM      4  O   UNL     1      -1.296  -2.269  23.297  0.00  0.00    -0.158 OA
ATOM     15  C   UNL     1      -3.062  -3.001  25.078  0.00  0.00    +0.215 C 
ENDBRANCH   6   1
TORSDOF 1
ENDMDL
MODEL 9
REMARK VINA RESULT:      -2.8      1.572      2.690
REMARK  Name = 75368477
REMARK  3 active torsions:
REMARK  status: ('A' for Active; 'I' for Inactive)
REMARK    1  A    between atoms: S_1  and  N_6
REMARK    2  A    between atoms: S_1  and  C_15
REMARK    3  A    between atoms: N_7  and  C_14
REMARK                            x       y       z     vdW  Elec       q    Type
REMARK                         _______ _______ _______ _____ _____    ______ ____
ROOT
ATOM      2  O   UNL     1      -3.026   4.778  24.714  0.00  0.00    -0.252 OA
ATOM      5  N   UNL     1      -3.204   2.479  25.162  0.00  0.00    -0.278 N 
ATOM      6  N   UNL     1      -2.905  -0.272  24.761  0.00  0.00    -0.178 NA
ATOM      7  N   UNL     1      -5.013   3.772  25.488  0.00  0.00    -0.287 N 
ATOM      8  C   UNL     1      -4.190   1.585  25.738  0.00  0.00    +0.111 C 
ATOM      9  C   UNL     1      -4.284   0.299  24.924  0.00  0.00    +0.133 C 
ATOM     10  C   UNL     1      -5.470   2.420  25.757  0.00  0.00    +0.132 C 
ATOM     11  C   UNL     1      -1.880   1.979  24.850  0.00  0.00    +0.127 C 
ATOM     12  C   UNL     1      -1.985   0.682  24.054  0.00  0.00    +0.128 C 
ATOM     13  C   UNL     1      -3.665   3.800  25.078  0.00  0.00    +0.305 C 
ATOM     14  C   UNL     1      -5.911   4.904  25.519  0.00  0.00    +0.133 C 
ENDROOT
BRANCH   6   1
ATOM      1  S   UNL     1      -2.848  -1.890  24.201  0.00  0.00    +0.029 S 
ATOM      3  O   UNL     1      -1.483  -2.212  23.852  0.00  0.00    -0.158 OA
ATOM      4  O   UNL     1      -3.940  -2.099  23.277  0.00  0.00    -0.158 OA
ATOM     15  C   UNL     1      -3.242  -2.727  25.715  0.00  0.00    +0.215 C 
ENDBRANCH   6   1
TORSDOF 1
ENDMDL
MODEL 10
REMARK VINA RESULT:      -2.6      2.926      3.973
REMARK  Name = 75368477
REMARK  3 active torsions:
REMARK  status: ('A' for Active; 'I' for Inactive)
REMARK    1  A    between atoms: S_1  and  N_6
REMARK    2  A    between atoms: S_1  and  C_15
REMARK    3  A    between atoms: N_7  and  C_14
REMARK                            x       y       z     vdW  Elec       q    Type
REMARK                         _______ _______ _______ _____ _____    ______ ____
ROOT
ATOM      2  O   UNL     1      -4.682   4.149  25.088  0.00  0.00    -0.252 OA
ATOM      5  N   UNL     1      -3.046   2.464  25.047  0.00  0.00    -0.278 N 
ATOM      6  N   UNL     1      -0.721   1.126  24.260  0.00  0.00    -0.178 NA
ATOM      7  N   UNL     1      -5.208   1.850  25.074  0.00  0.00    -0.287 N 
ATOM      8  C   UNL     1      -3.012   1.017  25.150  0.00  0.00    +0.111 C 
ATOM      9  C   UNL     1      -2.045   0.433  24.125  0.00  0.00    +0.133 C 
ATOM     10  C   UNL     1      -4.470   0.605  24.955  0.00  0.00    +0.132 C 
ATOM     11  C   UNL     1      -1.804   3.211  25.038  0.00  0.00    +0.127 C 
ATOM     12  C   UNL     1      -0.837   2.605  24.026  0.00  0.00    +0.128 C 
ATOM     13  C   UNL     1      -4.353   2.971  25.075  0.00  0.00    +0.305 C 
ATOM     14  C   UNL     1      -6.653   1.889  25.052  0.00  0.00    +0.133 C 
ENDROOT
BRANCH   6   1
ATOM      1  S   UNL     1       0.586   0.361  23.457  0.00  0.00    +0.029 S 
ATOM      3  O   UNL     1       1.799   1.093  23.747  0.00  0.00    -0.158 OA
ATOM      4  O   UNL     1       0.184   0.058  22.102  0.00  0.00    -0.158 OA
ATOM     15  C   UNL     1       0.629  -1.158  24.372  0.00  0.00    +0.215 C 
ENDBRANCH   6   1
TORSDOF 1
ENDMDL
