MODEL 1
REMARK VINA RESULT:      -5.9      0.000      0.000
REMARK  Name = 40777920
REMARK  11 active torsions:
REMARK  status: ('A' for Active; 'I' for Inactive)
REMARK    1  A    between atoms: O_2  and  C_9
REMARK    2  A    between atoms: O_3  and  C_10
REMARK    3  A    between atoms: N_6  and  C_13
REMARK    4  A    between atoms: N_7  and  C_18
REMARK    5  A    between atoms: N_8  and  C_17
REMARK    6  A    between atoms: C_11  and  C_13
REMARK    7  A    between atoms: C_12  and  C_14
REMARK    8  A    between atoms: C_14  and  C_15
REMARK    9  A    between atoms: C_17  and  C_19
REMARK   10  A    between atoms: C_17  and  C_20
REMARK   11  A    between atoms: C_18  and  C_21
REMARK                            x       y       z     vdW  Elec       q    Type
REMARK                         _______ _______ _______ _____ _____    ______ ____
ROOT
ATOM      1  O   UNL     1      -2.401   2.979  23.456  0.00  0.00    -0.366 OA
ATOM      9  C   UNL     1      -1.557   3.870  25.494  0.00  0.00    +0.176 C 
ATOM     10  C   UNL     1      -2.999   3.451  25.687  0.00  0.00    +0.175 C 
ATOM     11  C   UNL     1      -1.179   3.129  24.216  0.00  0.00    +0.167 C 
ATOM     12  C   UNL     1      -3.507   3.435  24.255  0.00  0.00    +0.158 C 
ENDROOT
BRANCH   9   2
ATOM      2  O   UNL     1      -1.479   5.271  25.232  0.00  0.00    -0.387 OA
ATOM     23  H   UNL     1      -0.712   5.616  25.722  0.00  0.00    +0.210 HD
ENDBRANCH   9   2
BRANCH  10   3
ATOM      3  O   UNL     1      -3.735   4.340  26.499  0.00  0.00    -0.387 OA
ATOM     24  H   UNL     1      -3.445   4.205  27.418  0.00  0.00    +0.210 HD
ENDBRANCH  10   3
BRANCH  11  13
ATOM     13  C   UNL     1      -0.621   1.738  24.477  0.00  0.00    +0.140 C 
BRANCH  13   6
ATOM      5  O   UNL     1       0.927  -0.175  22.970  0.00  0.00    -0.253 OA
ATOM      6  N   UNL     1       0.803   1.713  24.320  0.00  0.00    -0.297 N 
ATOM      8  N   UNL     1       2.858   0.959  23.582  0.00  0.00    -0.297 N 
ATOM     16  C   UNL     1       1.481   0.747  23.569  0.00  0.00    +0.300 C 
ATOM     25  H   UNL     1       1.349   2.442  24.769  0.00  0.00    +0.150 HD
ATOM     27  H   UNL     1       3.213   1.791  24.042  0.00  0.00    +0.150 HD
BRANCH   8  17
ATOM     17  C   UNL     1       3.789   0.103  22.884  0.00  0.00    +0.068 C 
ATOM     19  C   UNL     1       5.192   0.273  23.450  0.00  0.00    +0.027 C 
ATOM     20  C   UNL     1       3.759   0.388  21.387  0.00  0.00    +0.027 C 
ENDBRANCH   8  17
ENDBRANCH  13   6
ENDBRANCH  11  13
BRANCH  12  14
ATOM     14  C   UNL     1      -4.700   2.519  24.049  0.00  0.00    +0.130 C 
BRANCH  14  15
ATOM      4  O   UNL     1      -5.566   1.345  25.981  0.00  0.00    -0.276 OA
ATOM      7  N   UNL     1      -3.768   0.443  24.824  0.00  0.00    -0.304 N 
ATOM     15  C   UNL     1      -4.750   1.393  25.064  0.00  0.00    +0.216 C 
ATOM     26  H   UNL     1      -3.147   0.559  24.028  0.00  0.00    +0.150 HD
BRANCH   7  18
ATOM     18  C   UNL     1      -3.604  -0.722  25.645  0.00  0.00    +0.193 C 
BRANCH  18  21
ATOM     21  C   UNL     1      -3.622  -1.943  24.838  0.00  0.00    -0.087 C 
ATOM     22  C   UNL     1      -3.636  -2.946  24.180  0.00  0.00    +0.005 C 
ENDBRANCH  18  21
ENDBRANCH   7  18
ENDBRANCH  14  15
ENDBRANCH  12  14
TORSDOF 9
ENDMDL
MODEL 2
REMARK VINA RESULT:      -5.9      1.832      4.003
REMARK  Name = 40777920
REMARK  11 active torsions:
REMARK  status: ('A' for Active; 'I' for Inactive)
REMARK    1  A    between atoms: O_2  and  C_9
REMARK    2  A    between atoms: O_3  and  C_10
REMARK    3  A    between atoms: N_6  and  C_13
REMARK    4  A    between atoms: N_7  and  C_18
REMARK    5  A    between atoms: N_8  and  C_17
REMARK    6  A    between atoms: C_11  and  C_13
REMARK    7  A    between atoms: C_12  and  C_14
REMARK    8  A    between atoms: C_14  and  C_15
REMARK    9  A    between atoms: C_17  and  C_19
REMARK   10  A    between atoms: C_17  and  C_20
REMARK   11  A    between atoms: C_18  and  C_21
REMARK                            x       y       z     vdW  Elec       q    Type
REMARK                         _______ _______ _______ _____ _____    ______ ____
ROOT
ATOM      1  O   UNL     1      -2.505   0.801  25.410  0.00  0.00    -0.366 OA
ATOM      9  C   UNL     1      -2.079  -1.163  24.137  0.00  0.00    +0.176 C 
ATOM     10  C   UNL     1      -3.501  -0.704  23.893  0.00  0.00    +0.175 C 
ATOM     11  C   UNL     1      -1.442   0.084  24.742  0.00  0.00    +0.167 C 
ATOM     12  C   UNL     1      -3.758   0.157  25.118  0.00  0.00    +0.158 C 
ENDROOT
BRANCH   9   2
ATOM      2  O   UNL     1      -2.053  -2.194  25.123  0.00  0.00    -0.387 OA
ATOM     23  H   UNL     1      -1.179  -2.168  25.548  0.00  0.00    +0.210 HD
ENDBRANCH   9   2
BRANCH  10   3
ATOM      3  O   UNL     1      -4.422  -1.769  23.792  0.00  0.00    -0.387 OA
ATOM     24  H   UNL     1      -4.286  -2.190  22.926  0.00  0.00    +0.210 HD
ENDBRANCH  10   3
BRANCH  11  13
ATOM     13  C   UNL     1      -0.842   1.013  23.695  0.00  0.00    +0.140 C 
BRANCH  13   6
ATOM      5  O   UNL     1       1.223  -0.580  22.460  0.00  0.00    -0.253 OA
ATOM      6  N   UNL     1       0.574   1.147  23.873  0.00  0.00    -0.297 N 
ATOM      8  N   UNL     1       2.817   0.679  23.584  0.00  0.00    -0.297 N 
ATOM     16  C   UNL     1       1.514   0.332  23.235  0.00  0.00    +0.300 C 
ATOM     25  H   UNL     1       0.913   1.881  24.487  0.00  0.00    +0.150 HD
ATOM     27  H   UNL     1       2.957   1.495  24.171  0.00  0.00    +0.150 HD
BRANCH   8  17
ATOM     17  C   UNL     1       3.976  -0.007  23.064  0.00  0.00    +0.068 C 
ATOM     19  C   UNL     1       4.074  -1.406  23.656  0.00  0.00    +0.027 C 
ATOM     20  C   UNL     1       5.242   0.798  23.336  0.00  0.00    +0.027 C 
ENDBRANCH   8  17
ENDBRANCH  13   6
ENDBRANCH  11  13
BRANCH  12  14
ATOM     14  C   UNL     1      -4.834   1.207  24.902  0.00  0.00    +0.130 C 
BRANCH  14  15
ATOM      4  O   UNL     1      -4.143   3.090  23.546  0.00  0.00    -0.276 OA
ATOM      7  N   UNL     1      -3.883   3.201  25.849  0.00  0.00    -0.304 N 
ATOM     15  C   UNL     1      -4.258   2.589  24.661  0.00  0.00    +0.216 C 
ATOM     26  H   UNL     1      -4.032   2.714  26.729  0.00  0.00    +0.150 HD
BRANCH   7  18
ATOM     18  C   UNL     1      -3.308   4.515  25.893  0.00  0.00    +0.193 C 
BRANCH  18  21
ATOM     21  C   UNL     1      -1.932   4.506  25.395  0.00  0.00    -0.087 C 
ATOM     22  C   UNL     1      -0.805   4.496  24.984  0.00  0.00    +0.005 C 
ENDBRANCH  18  21
ENDBRANCH   7  18
ENDBRANCH  14  15
ENDBRANCH  12  14
TORSDOF 9
ENDMDL
MODEL 3
REMARK VINA RESULT:      -5.6      1.741      3.960
REMARK  Name = 40777920
REMARK  11 active torsions:
REMARK  status: ('A' for Active; 'I' for Inactive)
REMARK    1  A    between atoms: O_2  and  C_9
REMARK    2  A    between atoms: O_3  and  C_10
REMARK    3  A    between atoms: N_6  and  C_13
REMARK    4  A    between atoms: N_7  and  C_18
REMARK    5  A    between atoms: N_8  and  C_17
REMARK    6  A    between atoms: C_11  and  C_13
REMARK    7  A    between atoms: C_12  and  C_14
REMARK    8  A    between atoms: C_14  and  C_15
REMARK    9  A    between atoms: C_17  and  C_19
REMARK   10  A    between atoms: C_17  and  C_20
REMARK   11  A    between atoms: C_18  and  C_21
REMARK                            x       y       z     vdW  Elec       q    Type
REMARK                         _______ _______ _______ _____ _____    ______ ____
ROOT
ATOM      1  O   UNL     1      -2.176   0.544  25.626  0.00  0.00    -0.366 OA
ATOM      9  C   UNL     1      -0.625  -1.077  24.833  0.00  0.00    +0.176 C 
ATOM     10  C   UNL     1      -2.005  -1.393  24.293  0.00  0.00    +0.175 C 
ATOM     11  C   UNL     1      -0.783   0.374  25.276  0.00  0.00    +0.167 C 
ATOM     12  C   UNL     1      -2.895  -0.652  25.277  0.00  0.00    +0.158 C 
ENDROOT
BRANCH   9   2
ATOM      2  O   UNL     1      -0.354  -1.866  25.992  0.00  0.00    -0.387 OA
ATOM     23  H   UNL     1      -1.077  -2.511  26.079  0.00  0.00    +0.210 HD
ENDBRANCH   9   2
BRANCH  10   3
ATOM      3  O   UNL     1      -2.289  -2.776  24.261  0.00  0.00    -0.387 OA
ATOM     24  H   UNL     1      -2.227  -3.064  23.335  0.00  0.00    +0.210 HD
ENDBRANCH  10   3
BRANCH  11  13
ATOM     13  C   UNL     1      -0.455   1.371  24.174  0.00  0.00    +0.140 C 
BRANCH  13   6
ATOM      5  O   UNL     1       1.508   0.031  22.538  0.00  0.00    -0.253 OA
ATOM      6  N   UNL     1       0.952   1.639  24.119  0.00  0.00    -0.297 N 
ATOM      8  N   UNL     1       3.146   1.405  23.439  0.00  0.00    -0.297 N 
ATOM     16  C   UNL     1       1.841   0.942  23.296  0.00  0.00    +0.300 C 
ATOM     25  H   UNL     1       1.321   2.384  24.703  0.00  0.00    +0.150 HD
ATOM     27  H   UNL     1       3.309   2.213  24.033  0.00  0.00    +0.150 HD
BRANCH   8  17
ATOM     17  C   UNL     1       4.259   0.854  22.701  0.00  0.00    +0.068 C 
ATOM     19  C   UNL     1       3.760   0.106  21.473  0.00  0.00    +0.027 C 
ATOM     20  C   UNL     1       5.099  -0.049  23.595  0.00  0.00    +0.027 C 
ENDBRANCH   8  17
ENDBRANCH  13   6
ENDBRANCH  11  13
BRANCH  12  14
ATOM     14  C   UNL     1      -4.251  -0.284  24.702  0.00  0.00    +0.130 C 
BRANCH  14  15
ATOM      4  O   UNL     1      -5.467   1.522  25.760  0.00  0.00    -0.276 OA
ATOM      7  N   UNL     1      -3.865   2.025  24.158  0.00  0.00    -0.304 N 
ATOM     15  C   UNL     1      -4.614   1.168  24.952  0.00  0.00    +0.216 C 
ATOM     26  H   UNL     1      -3.167   1.639  23.528  0.00  0.00    +0.150 HD
BRANCH   7  18
ATOM     18  C   UNL     1      -4.019   3.451  24.205  0.00  0.00    +0.193 C 
BRANCH  18  21
ATOM     21  C   UNL     1      -2.874   4.084  24.860  0.00  0.00    -0.087 C 
ATOM     22  C   UNL     1      -1.935   4.605  25.395  0.00  0.00    +0.005 C 
ENDBRANCH  18  21
ENDBRANCH   7  18
ENDBRANCH  14  15
ENDBRANCH  12  14
TORSDOF 9
ENDMDL
MODEL 4
REMARK VINA RESULT:      -3.5      2.753      4.978
REMARK  Name = 40777920
REMARK  11 active torsions:
REMARK  status: ('A' for Active; 'I' for Inactive)
REMARK    1  A    between atoms: O_2  and  C_9
REMARK    2  A    between atoms: O_3  and  C_10
REMARK    3  A    between atoms: N_6  and  C_13
REMARK    4  A    between atoms: N_7  and  C_18
REMARK    5  A    between atoms: N_8  and  C_17
REMARK    6  A    between atoms: C_11  and  C_13
REMARK    7  A    between atoms: C_12  and  C_14
REMARK    8  A    between atoms: C_14  and  C_15
REMARK    9  A    between atoms: C_17  and  C_19
REMARK   10  A    between atoms: C_17  and  C_20
REMARK   11  A    between atoms: C_18  and  C_21
REMARK                            x       y       z     vdW  Elec       q    Type
REMARK                         _______ _______ _______ _____ _____    ______ ____
ROOT
ATOM      1  O   UNL     1      -3.505   2.641  25.614  0.00  0.00    -0.366 OA
ATOM      9  C   UNL     1      -5.867   2.662  25.324  0.00  0.00    +0.176 C 
ATOM     10  C   UNL     1      -5.352   4.086  25.362  0.00  0.00    +0.175 C 
ATOM     11  C   UNL     1      -4.592   1.871  25.051  0.00  0.00    +0.167 C 
ATOM     12  C   UNL     1      -4.016   3.909  26.065  0.00  0.00    +0.158 C 
ENDROOT
BRANCH   9   2
ATOM      2  O   UNL     1      -6.358   2.278  26.608  0.00  0.00    -0.387 OA
ATOM     23  H   UNL     1      -6.521   3.093  27.112  0.00  0.00    +0.210 HD
ENDBRANCH   9   2
BRANCH  10   3
ATOM      3  O   UNL     1      -6.203   4.969  26.060  0.00  0.00    -0.387 OA
ATOM     24  H   UNL     1      -6.119   4.767  27.008  0.00  0.00    +0.210 HD
ENDBRANCH  10   3
BRANCH  11  13
ATOM     13  C   UNL     1      -4.311   1.688  23.566  0.00  0.00    +0.140 C 
BRANCH  13   6
ATOM      5  O   UNL     1      -3.839  -0.605  25.252  0.00  0.00    -0.253 OA
ATOM      6  N   UNL     1      -3.370   0.632  23.342  0.00  0.00    -0.297 N 
ATOM      8  N   UNL     1      -2.221  -1.329  23.754  0.00  0.00    -0.297 N 
ATOM     16  C   UNL     1      -3.200  -0.450  24.211  0.00  0.00    +0.300 C 
ATOM     25  H   UNL     1      -2.802   0.666  22.500  0.00  0.00    +0.150 HD
ATOM     27  H   UNL     1      -1.804  -1.155  22.845  0.00  0.00    +0.150 HD
BRANCH   8  17
ATOM     17  C   UNL     1      -1.852  -2.530  24.466  0.00  0.00    +0.068 C 
ATOM     19  C   UNL     1      -3.085  -3.187  25.072  0.00  0.00    +0.027 C 
ATOM     20  C   UNL     1      -0.811  -2.219  25.535  0.00  0.00    +0.027 C 
ENDBRANCH   8  17
ENDBRANCH  13   6
ENDBRANCH  11  13
BRANCH  12  14
ATOM     14  C   UNL     1      -3.017   5.006  25.745  0.00  0.00    +0.130 C 
BRANCH  14  15
ATOM      4  O   UNL     1      -0.816   4.990  24.737  0.00  0.00    -0.276 OA
ATOM      7  N   UNL     1      -1.375   3.326  26.255  0.00  0.00    -0.304 N 
ATOM     15  C   UNL     1      -1.620   4.468  25.504  0.00  0.00    +0.216 C 
ATOM     26  H   UNL     1      -2.097   2.976  26.878  0.00  0.00    +0.150 HD
BRANCH   7  18
ATOM     18  C   UNL     1      -0.125   2.623  26.205  0.00  0.00    +0.193 C 
BRANCH  18  21
ATOM     21  C   UNL     1       0.007   1.869  24.958  0.00  0.00    -0.087 C 
ATOM     22  C   UNL     1       0.112   1.249  23.937  0.00  0.00    +0.005 C 
ENDBRANCH  18  21
ENDBRANCH   7  18
ENDBRANCH  14  15
ENDBRANCH  12  14
TORSDOF 9
ENDMDL
MODEL 5
REMARK VINA RESULT:      -3.5      2.498      3.343
REMARK  Name = 40777920
REMARK  11 active torsions:
REMARK  status: ('A' for Active; 'I' for Inactive)
REMARK    1  A    between atoms: O_2  and  C_9
REMARK    2  A    between atoms: O_3  and  C_10
REMARK    3  A    between atoms: N_6  and  C_13
REMARK    4  A    between atoms: N_7  and  C_18
REMARK    5  A    between atoms: N_8  and  C_17
REMARK    6  A    between atoms: C_11  and  C_13
REMARK    7  A    between atoms: C_12  and  C_14
REMARK    8  A    between atoms: C_14  and  C_15
REMARK    9  A    between atoms: C_17  and  C_19
REMARK   10  A    between atoms: C_17  and  C_20
REMARK   11  A    between atoms: C_18  and  C_21
REMARK                            x       y       z     vdW  Elec       q    Type
REMARK                         _______ _______ _______ _____ _____    ______ ____
ROOT
ATOM      1  O   UNL     1      -2.241   2.753  23.452  0.00  0.00    -0.366 OA
ATOM      9  C   UNL     1      -1.654   4.020  25.378  0.00  0.00    +0.176 C 
ATOM     10  C   UNL     1      -3.110   3.611  25.469  0.00  0.00    +0.175 C 
ATOM     11  C   UNL     1      -1.123   3.066  24.313  0.00  0.00    +0.167 C 
ATOM     12  C   UNL     1      -3.437   3.323  24.013  0.00  0.00    +0.158 C 
ENDROOT
BRANCH   9   2
ATOM      2  O   UNL     1      -1.544   5.351  24.874  0.00  0.00    -0.387 OA
ATOM     23  H   UNL     1      -2.305   5.503  24.288  0.00  0.00    +0.210 HD
ENDBRANCH   9   2
BRANCH  10   3
ATOM      3  O   UNL     1      -3.940   4.617  26.008  0.00  0.00    -0.387 OA
ATOM     24  H   UNL     1      -4.491   4.959  25.283  0.00  0.00    +0.210 HD
ENDBRANCH  10   3
BRANCH  11  13
ATOM     13  C   UNL     1      -0.601   1.759  24.892  0.00  0.00    +0.140 C 
BRANCH  13   6
ATOM      5  O   UNL     1      -0.573   2.653  27.636  0.00  0.00    -0.253 OA
ATOM      6  N   UNL     1       0.550   1.980  25.716  0.00  0.00    -0.297 N 
ATOM      8  N   UNL     1       1.745   2.547  27.609  0.00  0.00    -0.297 N 
ATOM     16  C   UNL     1       0.480   2.415  27.043  0.00  0.00    +0.300 C 
ATOM     25  H   UNL     1       1.467   1.800  25.318  0.00  0.00    +0.150 HD
ATOM     27  H   UNL     1       2.550   2.254  27.064  0.00  0.00    +0.150 HD
BRANCH   8  17
ATOM     17  C   UNL     1       1.953   2.982  28.971  0.00  0.00    +0.068 C 
ATOM     19  C   UNL     1       3.331   3.612  29.121  0.00  0.00    +0.027 C 
ATOM     20  C   UNL     1       1.769   1.819  29.938  0.00  0.00    +0.027 C 
ENDBRANCH   8  17
ENDBRANCH  13   6
ENDBRANCH  11  13
BRANCH  12  14
ATOM     14  C   UNL     1      -4.596   2.357  23.836  0.00  0.00    +0.130 C 
BRANCH  14  15
ATOM      4  O   UNL     1      -5.475   1.330  25.844  0.00  0.00    -0.276 OA
ATOM      7  N   UNL     1      -3.668   0.345  24.769  0.00  0.00    -0.304 N 
ATOM     15  C   UNL     1      -4.653   1.310  24.932  0.00  0.00    +0.216 C 
ATOM     26  H   UNL     1      -3.042   0.403  23.971  0.00  0.00    +0.150 HD
BRANCH   7  18
ATOM     18  C   UNL     1      -3.510  -0.755  25.675  0.00  0.00    +0.193 C 
BRANCH  18  21
ATOM     21  C   UNL     1      -3.511  -2.032  24.960  0.00  0.00    -0.087 C 
ATOM     22  C   UNL     1      -3.511  -3.080  24.377  0.00  0.00    +0.005 C 
ENDBRANCH  18  21
ENDBRANCH   7  18
ENDBRANCH  14  15
ENDBRANCH  12  14
TORSDOF 9
ENDMDL
MODEL 6
REMARK VINA RESULT:      -3.4      2.600      5.773
REMARK  Name = 40777920
REMARK  11 active torsions:
REMARK  status: ('A' for Active; 'I' for Inactive)
REMARK    1  A    between atoms: O_2  and  C_9
REMARK    2  A    between atoms: O_3  and  C_10
REMARK    3  A    between atoms: N_6  and  C_13
REMARK    4  A    between atoms: N_7  and  C_18
REMARK    5  A    between atoms: N_8  and  C_17
REMARK    6  A    between atoms: C_11  and  C_13
REMARK    7  A    between atoms: C_12  and  C_14
REMARK    8  A    between atoms: C_14  and  C_15
REMARK    9  A    between atoms: C_17  and  C_19
REMARK   10  A    between atoms: C_17  and  C_20
REMARK   11  A    between atoms: C_18  and  C_21
REMARK                            x       y       z     vdW  Elec       q    Type
REMARK                         _______ _______ _______ _____ _____    ______ ____
ROOT
ATOM      1  O   UNL     1      -0.066   1.896  25.905  0.00  0.00    -0.366 OA
ATOM      9  C   UNL     1       0.661   1.883  23.640  0.00  0.00    +0.176 C 
ATOM     10  C   UNL     1      -0.182   0.653  23.906  0.00  0.00    +0.175 C 
ATOM     11  C   UNL     1       0.293   2.779  24.818  0.00  0.00    +0.167 C 
ATOM     12  C   UNL     1      -0.093   0.543  25.418  0.00  0.00    +0.158 C 
ENDROOT
BRANCH   9   2
ATOM      2  O   UNL     1       2.048   1.565  23.742  0.00  0.00    -0.387 OA
ATOM     23  H   UNL     1       2.546   2.318  23.381  0.00  0.00    +0.210 HD
ENDBRANCH   9   2
BRANCH  10   3
ATOM      3  O   UNL     1       0.303  -0.506  23.262  0.00  0.00    -0.387 OA
ATOM     24  H   UNL     1       1.119  -0.773  23.718  0.00  0.00    +0.210 HD
ENDBRANCH  10   3
BRANCH  11  13
ATOM     13  C   UNL     1      -0.903   3.677  24.532  0.00  0.00    +0.140 C 
BRANCH  13   6
ATOM      5  O   UNL     1      -3.713   3.744  23.881  0.00  0.00    -0.253 OA
ATOM      6  N   UNL     1      -1.999   3.373  25.405  0.00  0.00    -0.297 N 
ATOM      8  N   UNL     1      -4.196   3.086  26.053  0.00  0.00    -0.297 N 
ATOM     16  C   UNL     1      -3.339   3.429  25.010  0.00  0.00    +0.300 C 
ATOM     25  H   UNL     1      -1.789   3.092  26.358  0.00  0.00    +0.150 HD
ATOM     27  H   UNL     1      -3.789   2.767  26.927  0.00  0.00    +0.150 HD
BRANCH   8  17
ATOM     17  C   UNL     1      -5.633   3.064  25.911  0.00  0.00    +0.068 C 
ATOM     19  C   UNL     1      -6.050   1.996  24.909  0.00  0.00    +0.027 C 
ATOM     20  C   UNL     1      -6.152   4.437  25.501  0.00  0.00    +0.027 C 
ENDBRANCH   8  17
ENDBRANCH  13   6
ENDBRANCH  11  13
BRANCH  12  14
ATOM     14  C   UNL     1      -1.263  -0.201  26.038  0.00  0.00    +0.130 C 
BRANCH  14  15
ATOM      4  O   UNL     1      -1.742  -1.988  24.477  0.00  0.00    -0.276 OA
ATOM      7  N   UNL     1      -3.288  -0.278  24.745  0.00  0.00    -0.304 N 
ATOM     15  C   UNL     1      -2.095  -0.938  25.006  0.00  0.00    +0.216 C 
ATOM     26  H   UNL     1      -3.503   0.579  25.246  0.00  0.00    +0.150 HD
BRANCH   7  18
ATOM     18  C   UNL     1      -4.252  -0.771  23.804  0.00  0.00    +0.193 C 
BRANCH  18  21
ATOM     21  C   UNL     1      -4.317  -2.233  23.833  0.00  0.00    -0.087 C 
ATOM     22  C   UNL     1      -4.369  -3.431  23.860  0.00  0.00    +0.005 C 
ENDBRANCH  18  21
ENDBRANCH   7  18
ENDBRANCH  14  15
ENDBRANCH  12  14
TORSDOF 9
ENDMDL
MODEL 7
REMARK VINA RESULT:      -3.2     17.679     19.637
REMARK  Name = 40777920
REMARK  11 active torsions:
REMARK  status: ('A' for Active; 'I' for Inactive)
REMARK    1  A    between atoms: O_2  and  C_9
REMARK    2  A    between atoms: O_3  and  C_10
REMARK    3  A    between atoms: N_6  and  C_13
REMARK    4  A    between atoms: N_7  and  C_18
REMARK    5  A    between atoms: N_8  and  C_17
REMARK    6  A    between atoms: C_11  and  C_13
REMARK    7  A    between atoms: C_12  and  C_14
REMARK    8  A    between atoms: C_14  and  C_15
REMARK    9  A    between atoms: C_17  and  C_19
REMARK   10  A    between atoms: C_17  and  C_20
REMARK   11  A    between atoms: C_18  and  C_21
REMARK                            x       y       z     vdW  Elec       q    Type
REMARK                         _______ _______ _______ _____ _____    ______ ____
ROOT
ATOM      1  O   UNL     1      17.082  -7.194  27.996  0.00  0.00    -0.366 OA
ATOM      9  C   UNL     1      16.543  -9.410  27.318  0.00  0.00    +0.176 C 
ATOM     10  C   UNL     1      15.335  -8.778  27.979  0.00  0.00    +0.175 C 
ATOM     11  C   UNL     1      17.405  -8.193  27.001  0.00  0.00    +0.167 C 
ATOM     12  C   UNL     1      15.979  -7.665  28.790  0.00  0.00    +0.158 C 
ENDROOT
BRANCH   9   2
ATOM      2  O   UNL     1      17.252 -10.221  28.255  0.00  0.00    -0.387 OA
ATOM     23  H   UNL     1      16.687 -10.985  28.462  0.00  0.00    +0.210 HD
ENDBRANCH   9   2
BRANCH  10   3
ATOM      3  O   UNL     1      14.610  -9.674  28.793  0.00  0.00    -0.387 OA
ATOM     24  H   UNL     1      15.241 -10.328  29.140  0.00  0.00    +0.210 HD
ENDBRANCH  10   3
BRANCH  11  13
ATOM     13  C   UNL     1      17.111  -7.597  25.631  0.00  0.00    +0.140 C 
BRANCH  13   6
ATOM      5  O   UNL     1      17.405  -5.716  23.463  0.00  0.00    -0.253 OA
ATOM      6  N   UNL     1      16.986  -6.171  25.702  0.00  0.00    -0.297 N 
ATOM      8  N   UNL     1      16.969  -3.988  24.949  0.00  0.00    -0.297 N 
ATOM     16  C   UNL     1      17.144  -5.325  24.600  0.00  0.00    +0.300 C 
ATOM     25  H   UNL     1      16.760  -5.753  26.600  0.00  0.00    +0.150 HD
ATOM     27  H   UNL     1      16.680  -3.771  25.898  0.00  0.00    +0.150 HD
BRANCH   8  17
ATOM     17  C   UNL     1      17.078  -2.909  23.995  0.00  0.00    +0.068 C 
ATOM     19  C   UNL     1      17.320  -1.589  24.714  0.00  0.00    +0.027 C 
ATOM     20  C   UNL     1      15.832  -2.840  23.120  0.00  0.00    +0.027 C 
ENDBRANCH   8  17
ENDBRANCH  13   6
ENDBRANCH  11  13
BRANCH  12  14
ATOM     14  C   UNL     1      15.035  -6.514  29.088  0.00  0.00    +0.130 C 
BRANCH  14  15
ATOM      4  O   UNL     1      15.143  -6.197  31.486  0.00  0.00    -0.276 OA
ATOM      7  N   UNL     1      13.199  -7.048  30.546  0.00  0.00    -0.304 N 
ATOM     15  C   UNL     1      14.497  -6.557  30.506  0.00  0.00    +0.216 C 
ATOM     26  H   UNL     1      12.737  -7.305  29.678  0.00  0.00    +0.150 HD
BRANCH   7  18
ATOM     18  C   UNL     1      12.465  -7.188  31.771  0.00  0.00    +0.193 C 
BRANCH  18  21
ATOM     21  C   UNL     1      11.891  -5.909  32.191  0.00  0.00    -0.087 C 
ATOM     22  C   UNL     1      11.417  -4.862  32.535  0.00  0.00    +0.005 C 
ENDBRANCH  18  21
ENDBRANCH   7  18
ENDBRANCH  14  15
ENDBRANCH  12  14
TORSDOF 9
ENDMDL
MODEL 8
REMARK VINA RESULT:      -3.2      2.671      5.601
REMARK  Name = 40777920
REMARK  11 active torsions:
REMARK  status: ('A' for Active; 'I' for Inactive)
REMARK    1  A    between atoms: O_2  and  C_9
REMARK    2  A    between atoms: O_3  and  C_10
REMARK    3  A    between atoms: N_6  and  C_13
REMARK    4  A    between atoms: N_7  and  C_18
REMARK    5  A    between atoms: N_8  and  C_17
REMARK    6  A    between atoms: C_11  and  C_13
REMARK    7  A    between atoms: C_12  and  C_14
REMARK    8  A    between atoms: C_14  and  C_15
REMARK    9  A    between atoms: C_17  and  C_19
REMARK   10  A    between atoms: C_17  and  C_20
REMARK   11  A    between atoms: C_18  and  C_21
REMARK                            x       y       z     vdW  Elec       q    Type
REMARK                         _______ _______ _______ _____ _____    ______ ____
ROOT
ATOM      1  O   UNL     1      -1.439  -0.959  26.014  0.00  0.00    -0.366 OA
ATOM      9  C   UNL     1      -1.245  -2.452  24.172  0.00  0.00    +0.176 C 
ATOM     10  C   UNL     1      -2.696  -2.053  24.346  0.00  0.00    +0.175 C 
ATOM     11  C   UNL     1      -0.522  -1.378  24.977  0.00  0.00    +0.167 C 
ATOM     12  C   UNL     1      -2.713  -1.589  25.792  0.00  0.00    +0.158 C 
ENDROOT
BRANCH   9   2
ATOM      2  O   UNL     1      -1.000  -3.712  24.796  0.00  0.00    -0.387 OA
ATOM     23  H   UNL     1      -0.103  -3.991  24.545  0.00  0.00    +0.210 HD
ENDBRANCH   9   2
BRANCH  10   3
ATOM      3  O   UNL     1      -3.598  -3.114  24.120  0.00  0.00    -0.387 OA
ATOM     24  H   UNL     1      -3.823  -3.495  24.986  0.00  0.00    +0.210 HD
ENDBRANCH  10   3
BRANCH  11  13
ATOM     13  C   UNL     1      -0.164  -0.152  24.149  0.00  0.00    +0.140 C 
BRANCH  13   6
ATOM      5  O   UNL     1      -1.653   2.182  23.335  0.00  0.00    -0.253 OA
ATOM      6  N   UNL     1      -0.356   1.054  24.898  0.00  0.00    -0.297 N 
ATOM      8  N   UNL     1      -1.121   3.184  25.359  0.00  0.00    -0.297 N 
ATOM     16  C   UNL     1      -1.095   2.146  24.431  0.00  0.00    +0.300 C 
ATOM     25  H   UNL     1       0.060   1.116  25.823  0.00  0.00    +0.150 HD
ATOM     27  H   UNL     1      -0.694   3.030  26.267  0.00  0.00    +0.150 HD
BRANCH   8  17
ATOM     17  C   UNL     1      -1.817   4.427  25.124  0.00  0.00    +0.068 C 
ATOM     19  C   UNL     1      -0.825   5.536  24.797  0.00  0.00    +0.027 C 
ATOM     20  C   UNL     1      -2.678   4.794  26.326  0.00  0.00    +0.027 C 
ENDBRANCH   8  17
ENDBRANCH  13   6
ENDBRANCH  11  13
BRANCH  12  14
ATOM     14  C   UNL     1      -3.830  -0.605  26.096  0.00  0.00    +0.130 C 
BRANCH  14  15
ATOM      4  O   UNL     1      -4.032  -0.051  23.748  0.00  0.00    -0.276 OA
ATOM      7  N   UNL     1      -4.564   1.555  25.338  0.00  0.00    -0.304 N 
ATOM     15  C   UNL     1      -4.143   0.300  24.920  0.00  0.00    +0.216 C 
ATOM     26  H   UNL     1      -4.642   1.748  26.332  0.00  0.00    +0.150 HD
BRANCH   7  18
ATOM     18  C   UNL     1      -4.920   2.595  24.417  0.00  0.00    +0.193 C 
BRANCH  18  21
ATOM     21  C   UNL     1      -5.567   3.712  25.107  0.00  0.00    -0.087 C 
ATOM     22  C   UNL     1      -6.094   4.629  25.673  0.00  0.00    +0.005 C 
ENDBRANCH  18  21
ENDBRANCH   7  18
ENDBRANCH  14  15
ENDBRANCH  12  14
TORSDOF 9
ENDMDL
MODEL 9
REMARK VINA RESULT:      -2.9      2.711      4.543
REMARK  Name = 40777920
REMARK  11 active torsions:
REMARK  status: ('A' for Active; 'I' for Inactive)
REMARK    1  A    between atoms: O_2  and  C_9
REMARK    2  A    between atoms: O_3  and  C_10
REMARK    3  A    between atoms: N_6  and  C_13
REMARK    4  A    between atoms: N_7  and  C_18
REMARK    5  A    between atoms: N_8  and  C_17
REMARK    6  A    between atoms: C_11  and  C_13
REMARK    7  A    between atoms: C_12  and  C_14
REMARK    8  A    between atoms: C_14  and  C_15
REMARK    9  A    between atoms: C_17  and  C_19
REMARK   10  A    between atoms: C_17  and  C_20
REMARK   11  A    between atoms: C_18  and  C_21
REMARK                            x       y       z     vdW  Elec       q    Type
REMARK                         _______ _______ _______ _____ _____    ______ ____
ROOT
ATOM      1  O   UNL     1      -0.303   1.966  23.926  0.00  0.00    -0.366 OA
ATOM      9  C   UNL     1      -0.652   3.535  25.680  0.00  0.00    +0.176 C 
ATOM     10  C   UNL     1      -1.932   3.373  24.887  0.00  0.00    +0.175 C 
ATOM     11  C   UNL     1       0.138   2.299  25.262  0.00  0.00    +0.167 C 
ATOM     12  C   UNL     1      -1.410   2.815  23.574  0.00  0.00    +0.158 C 
ENDROOT
BRANCH   9   2
ATOM      2  O   UNL     1       0.063   4.688  25.236  0.00  0.00    -0.387 OA
ATOM     23  H   UNL     1       0.844   4.783  25.807  0.00  0.00    +0.210 HD
ENDBRANCH   9   2
BRANCH  10   3
ATOM      3  O   UNL     1      -2.634   4.585  24.705  0.00  0.00    -0.387 OA
ATOM     24  H   UNL     1      -2.699   5.017  25.574  0.00  0.00    +0.210 HD
ENDBRANCH  10   3
BRANCH  11  13
ATOM     13  C   UNL     1      -0.127   1.094  26.153  0.00  0.00    +0.140 C 
BRANCH  13   6
ATOM      5  O   UNL     1      -2.694  -0.205  25.940  0.00  0.00    -0.253 OA
ATOM      6  N   UNL     1      -0.444  -0.066  25.375  0.00  0.00    -0.297 N 
ATOM      8  N   UNL     1      -1.750  -1.755  24.493  0.00  0.00    -0.297 N 
ATOM     16  C   UNL     1      -1.720  -0.638  25.325  0.00  0.00    +0.300 C 
ATOM     25  H   UNL     1       0.295  -0.491  24.822  0.00  0.00    +0.150 HD
ATOM     27  H   UNL     1      -0.912  -1.989  23.969  0.00  0.00    +0.150 HD
BRANCH   8  17
ATOM     17  C   UNL     1      -2.947  -2.530  24.266  0.00  0.00    +0.068 C 
ATOM     19  C   UNL     1      -4.052  -1.645  23.706  0.00  0.00    +0.027 C 
ATOM     20  C   UNL     1      -3.390  -3.220  25.550  0.00  0.00    +0.027 C 
ENDBRANCH   8  17
ENDBRANCH  13   6
ENDBRANCH  11  13
BRANCH  12  14
ATOM     14  C   UNL     1      -2.445   2.014  22.805  0.00  0.00    +0.130 C 
BRANCH  14  15
ATOM      4  O   UNL     1      -4.530   3.237  22.655  0.00  0.00    -0.276 OA
ATOM      7  N   UNL     1      -4.306   1.579  24.264  0.00  0.00    -0.304 N 
ATOM     15  C   UNL     1      -3.866   2.364  23.207  0.00  0.00    +0.216 C 
ATOM     26  H   UNL     1      -3.690   0.867  24.646  0.00  0.00    +0.150 HD
BRANCH   7  18
ATOM     18  C   UNL     1      -5.617   1.714  24.831  0.00  0.00    +0.193 C 
BRANCH  18  21
ATOM     21  C   UNL     1      -5.810   3.049  25.400  0.00  0.00    -0.087 C 
ATOM     22  C   UNL     1      -5.971   4.142  25.868  0.00  0.00    +0.005 C 
ENDBRANCH  18  21
ENDBRANCH   7  18
ENDBRANCH  14  15
ENDBRANCH  12  14
TORSDOF 9
ENDMDL
MODEL 10
REMARK VINA RESULT:      -2.7      2.267      4.350
REMARK  Name = 40777920
REMARK  11 active torsions:
REMARK  status: ('A' for Active; 'I' for Inactive)
REMARK    1  A    between atoms: O_2  and  C_9
REMARK    2  A    between atoms: O_3  and  C_10
REMARK    3  A    between atoms: N_6  and  C_13
REMARK    4  A    between atoms: N_7  and  C_18
REMARK    5  A    between atoms: N_8  and  C_17
REMARK    6  A    between atoms: C_11  and  C_13
REMARK    7  A    between atoms: C_12  and  C_14
REMARK    8  A    between atoms: C_14  and  C_15
REMARK    9  A    between atoms: C_17  and  C_19
REMARK   10  A    between atoms: C_17  and  C_20
REMARK   11  A    between atoms: C_18  and  C_21
REMARK                            x       y       z     vdW  Elec       q    Type
REMARK                         _______ _______ _______ _____ _____    ______ ____
ROOT
ATOM      1  O   UNL     1      -3.486   2.233  25.963  0.00  0.00    -0.366 OA
ATOM      9  C   UNL     1      -5.804   2.226  25.426  0.00  0.00    +0.176 C 
ATOM     10  C   UNL     1      -5.247   3.622  25.235  0.00  0.00    +0.175 C 
ATOM     11  C   UNL     1      -4.535   1.379  25.453  0.00  0.00    +0.167 C 
ATOM     12  C   UNL     1      -3.996   3.572  26.096  0.00  0.00    +0.158 C 
ENDROOT
BRANCH   9   2
ATOM      2  O   UNL     1      -6.435   2.115  26.701  0.00  0.00    -0.387 OA
ATOM     23  H   UNL     1      -5.736   1.962  27.359  0.00  0.00    +0.210 HD
ENDBRANCH   9   2
BRANCH  10   3
ATOM      3  O   UNL     1      -6.134   4.639  25.648  0.00  0.00    -0.387 OA
ATOM     24  H   UNL     1      -5.595   5.388  25.956  0.00  0.00    +0.210 HD
ENDBRANCH  10   3
BRANCH  11  13
ATOM     13  C   UNL     1      -4.112   0.898  24.072  0.00  0.00    +0.140 C 
BRANCH  13   6
ATOM      5  O   UNL     1      -1.860   1.916  22.584  0.00  0.00    -0.253 OA
ATOM      6  N   UNL     1      -2.770   0.396  24.086  0.00  0.00    -0.297 N 
ATOM      8  N   UNL     1      -0.531   0.268  23.535  0.00  0.00    -0.297 N 
ATOM     16  C   UNL     1      -1.730   0.948  23.333  0.00  0.00    +0.300 C 
ATOM     25  H   UNL     1      -2.561  -0.398  24.685  0.00  0.00    +0.150 HD
ATOM     27  H   UNL     1      -0.508  -0.471  24.231  0.00  0.00    +0.150 HD
BRANCH   8  17
ATOM     17  C   UNL     1       0.699   0.637  22.875  0.00  0.00    +0.068 C 
ATOM     19  C   UNL     1       1.450  -0.608  22.420  0.00  0.00    +0.027 C 
ATOM     20  C   UNL     1       1.561   1.497  23.791  0.00  0.00    +0.027 C 
ENDBRANCH   8  17
ENDBRANCH  13   6
ENDBRANCH  11  13
BRANCH  12  14
ATOM     14  C   UNL     1      -2.932   4.569  25.672  0.00  0.00    +0.130 C 
BRANCH  14  15
ATOM      4  O   UNL     1      -0.928   4.091  24.400  0.00  0.00    -0.276 OA
ATOM      7  N   UNL     1      -1.210   3.099  26.480  0.00  0.00    -0.304 N 
ATOM     15  C   UNL     1      -1.588   3.913  25.421  0.00  0.00    +0.216 C 
ATOM     26  H   UNL     1      -1.815   3.028  27.293  0.00  0.00    +0.150 HD
BRANCH   7  18
ATOM     18  C   UNL     1       0.023   2.365  26.487  0.00  0.00    +0.193 C 
BRANCH  18  21
ATOM     21  C   UNL     1       0.682   2.455  27.790  0.00  0.00    -0.087 C 
ATOM     22  C   UNL     1       1.223   2.531  28.858  0.00  0.00    +0.005 C 
ENDBRANCH  18  21
ENDBRANCH   7  18
ENDBRANCH  14  15
ENDBRANCH  12  14
TORSDOF 9
ENDMDL
