MODEL 1
REMARK VINA RESULT:       2.8      0.000      0.000
REMARK  Name = 45783395
REMARK  14 active torsions:
REMARK  status: ('A' for Active; 'I' for Inactive)
REMARK    1  A    between atoms: O_2  and  C_21
REMARK    2  A    between atoms: O_2  and  C_28
REMARK    3  A    between atoms: O_3  and  C_22
REMARK    4  A    between atoms: O_3  and  C_29
REMARK    5  A    between atoms: O_4  and  C_23
REMARK    6  A    between atoms: O_4  and  C_32
REMARK    7  A    between atoms: O_5  and  C_33
REMARK    8  A    between atoms: O_5  and  C_34
REMARK    9  A    between atoms: N_6  and  C_15
REMARK   10  A    between atoms: N_9  and  C_30
REMARK   11  A    between atoms: C_11  and  C_16
REMARK   12  A    between atoms: C_15  and  C_17
REMARK   13  A    between atoms: C_20  and  C_24
REMARK   14  A    between atoms: C_30  and  C_33
REMARK                            x       y       z     vdW  Elec       q    Type
REMARK                         _______ _______ _______ _____ _____    ______ ____
ROOT
ATOM      6  N   UNL     1      -4.356  -1.599  24.207  0.00  0.00    -0.287 NA
ATOM     11  C   UNL     1      -3.387  -2.602  24.693  0.00  0.00    +0.146 C 
ATOM     12  C   UNL     1      -3.615  -3.833  23.797  0.00  0.00    +0.030 C 
ATOM     13  C   UNL     1      -4.770  -3.451  22.882  0.00  0.00    +0.017 C 
ATOM     14  C   UNL     1      -5.480  -2.349  23.645  0.00  0.00    +0.085 C 
ENDROOT
BRANCH  11  16
ATOM      1  O   UNL     1      -1.082  -2.687  25.502  0.00  0.00    -0.336 OA
ATOM      7  N   UNL     1      -1.429  -1.170  23.891  0.00  0.00    -0.190 NA
ATOM      8  N   UNL     1       0.154  -2.068  25.277  0.00  0.00    -0.056 NA
ATOM     16  C   UNL     1      -1.958  -2.101  24.645  0.00  0.00    +0.245 A 
ATOM     20  C   UNL     1      -0.132  -1.186  24.314  0.00  0.00    +0.205 A 
BRANCH  20  24
ATOM      9  N   UNL     1       0.348   1.406  25.371  0.00  0.00    -0.326 N 
ATOM     10  N   UNL     1       2.023   1.807  23.749  0.00  0.00    -0.240 NA
ATOM     24  C   UNL     1       0.853  -0.308  23.753  0.00  0.00    +0.062 A 
ATOM     25  C   UNL     1       1.101   0.958  24.256  0.00  0.00    +0.130 A 
ATOM     26  C   UNL     1       1.600  -0.732  22.659  0.00  0.00    +0.016 A 
ATOM     27  C   UNL     1       2.558   0.113  22.110  0.00  0.00    +0.020 A 
ATOM     31  C   UNL     1       2.730   1.361  22.686  0.00  0.00    +0.113 A 
ATOM     35  H   UNL     1       0.064   0.705  26.046  0.00  0.00    +0.148 HD
BRANCH   9  30
ATOM     30  C   UNL     1       0.213   2.786  25.704  0.00  0.00    +0.131 C 
BRANCH  30  33
ATOM     33  C   UNL     1       0.279   2.966  27.212  0.00  0.00    +0.178 C 
BRANCH  33   5
ATOM      5  O   UNL     1       1.604   2.709  27.661  0.00  0.00    -0.381 OA
ATOM     34  C   UNL     1       1.653   2.553  29.072  0.00  0.00    +0.194 C 
ENDBRANCH  33   5
ENDBRANCH  30  33
ENDBRANCH   9  30
ENDBRANCH  20  24
ENDBRANCH  11  16
BRANCH   6  15
ATOM     15  C   UNL     1      -4.784  -0.666  25.241  0.00  0.00    +0.120 C 
BRANCH  15  17
ATOM     17  C   UNL     1      -4.316   0.737  24.958  0.00  0.00    -0.026 A 
ATOM     18  C   UNL     1      -4.854   1.809  25.671  0.00  0.00    +0.054 A 
ATOM     19  C   UNL     1      -3.345   0.965  23.983  0.00  0.00    +0.054 A 
ATOM     21  C   UNL     1      -2.911   2.265  23.721  0.00  0.00    +0.165 A 
ATOM     22  C   UNL     1      -4.420   3.108  25.408  0.00  0.00    +0.165 A 
ATOM     23  C   UNL     1      -3.449   3.336  24.433  0.00  0.00    +0.204 A 
BRANCH  21   2
ATOM      2  O   UNL     1      -1.962   2.473  22.767  0.00  0.00    -0.491 OA
ATOM     28  C   UNL     1      -2.331   2.203  21.415  0.00  0.00    +0.277 C 
ENDBRANCH  21   2
BRANCH  22   3
ATOM      3  O   UNL     1      -4.956   4.146  26.110  0.00  0.00    -0.491 OA
ATOM     29  C   UNL     1      -6.173   4.702  25.616  0.00  0.00    +0.277 C 
ENDBRANCH  22   3
BRANCH  23   4
ATOM      4  O   UNL     1      -3.027   4.606  24.176  0.00  0.00    -0.488 OA
ATOM     32  C   UNL     1      -2.025   5.143  25.039  0.00  0.00    +0.277 C 
ENDBRANCH  23   4
ENDBRANCH  15  17
ENDBRANCH   6  15
TORSDOF 10
ENDMDL
MODEL 2
REMARK VINA RESULT:       2.9      0.088      2.086
REMARK  Name = 45783395
REMARK  14 active torsions:
REMARK  status: ('A' for Active; 'I' for Inactive)
REMARK    1  A    between atoms: O_2  and  C_21
REMARK    2  A    between atoms: O_2  and  C_28
REMARK    3  A    between atoms: O_3  and  C_22
REMARK    4  A    between atoms: O_3  and  C_29
REMARK    5  A    between atoms: O_4  and  C_23
REMARK    6  A    between atoms: O_4  and  C_32
REMARK    7  A    between atoms: O_5  and  C_33
REMARK    8  A    between atoms: O_5  and  C_34
REMARK    9  A    between atoms: N_6  and  C_15
REMARK   10  A    between atoms: N_9  and  C_30
REMARK   11  A    between atoms: C_11  and  C_16
REMARK   12  A    between atoms: C_15  and  C_17
REMARK   13  A    between atoms: C_20  and  C_24
REMARK   14  A    between atoms: C_30  and  C_33
REMARK                            x       y       z     vdW  Elec       q    Type
REMARK                         _______ _______ _______ _____ _____    ______ ____
ROOT
ATOM      6  N   UNL     1      -4.334  -1.537  24.246  0.00  0.00    -0.287 NA
ATOM     11  C   UNL     1      -3.371  -2.562  24.695  0.00  0.00    +0.146 C 
ATOM     12  C   UNL     1      -3.634  -3.772  23.779  0.00  0.00    +0.030 C 
ATOM     13  C   UNL     1      -4.799  -3.356  22.893  0.00  0.00    +0.017 C 
ATOM     14  C   UNL     1      -5.478  -2.259  23.690  0.00  0.00    +0.085 C 
ENDROOT
BRANCH  11  16
ATOM      1  O   UNL     1      -1.047  -2.719  25.435  0.00  0.00    -0.336 OA
ATOM      7  N   UNL     1      -1.412  -1.125  23.904  0.00  0.00    -0.190 NA
ATOM      8  N   UNL     1       0.193  -2.108  25.204  0.00  0.00    -0.056 NA
ATOM     16  C   UNL     1      -1.936  -2.081  24.629  0.00  0.00    +0.245 A 
ATOM     20  C   UNL     1      -0.105  -1.180  24.290  0.00  0.00    +0.205 A 
BRANCH  20  24
ATOM      9  N   UNL     1       0.343   1.413  25.359  0.00  0.00    -0.326 N 
ATOM     10  N   UNL     1       2.032   1.832  23.756  0.00  0.00    -0.240 NA
ATOM     24  C   UNL     1       0.879  -0.293  23.742  0.00  0.00    +0.062 A 
ATOM     25  C   UNL     1       1.111   0.974  24.251  0.00  0.00    +0.130 A 
ATOM     26  C   UNL     1       1.642  -0.708  22.655  0.00  0.00    +0.016 A 
ATOM     27  C   UNL     1       2.598   0.147  22.118  0.00  0.00    +0.020 A 
ATOM     31  C   UNL     1       2.754   1.395  22.699  0.00  0.00    +0.113 A 
ATOM     35  H   UNL     1       0.057   0.708  26.029  0.00  0.00    +0.148 HD
BRANCH   9  30
ATOM     30  C   UNL     1       0.193   2.791  25.694  0.00  0.00    +0.131 C 
BRANCH  30  33
ATOM     33  C   UNL     1       0.262   2.970  27.201  0.00  0.00    +0.178 C 
BRANCH  33   5
ATOM      5  O   UNL     1       1.586   2.710  27.648  0.00  0.00    -0.381 OA
ATOM     34  C   UNL     1       1.645   2.599  29.063  0.00  0.00    +0.194 C 
ENDBRANCH  33   5
ENDBRANCH  30  33
ENDBRANCH   9  30
ENDBRANCH  20  24
ENDBRANCH  11  16
BRANCH   6  15
ATOM     15  C   UNL     1      -4.729  -0.617  25.306  0.00  0.00    +0.120 C 
BRANCH  15  17
ATOM     17  C   UNL     1      -4.297   0.795  25.011  0.00  0.00    -0.026 A 
ATOM     18  C   UNL     1      -3.345   1.042  24.022  0.00  0.00    +0.054 A 
ATOM     19  C   UNL     1      -4.851   1.857  25.727  0.00  0.00    +0.054 A 
ATOM     21  C   UNL     1      -4.451   3.165  25.454  0.00  0.00    +0.165 A 
ATOM     22  C   UNL     1      -2.946   2.350  23.750  0.00  0.00    +0.165 A 
ATOM     23  C   UNL     1      -3.499   3.412  24.466  0.00  0.00    +0.204 A 
BRANCH  21   2
ATOM      2  O   UNL     1      -5.000   4.193  26.160  0.00  0.00    -0.491 OA
ATOM     28  C   UNL     1      -6.130   4.846  25.583  0.00  0.00    +0.277 C 
ENDBRANCH  21   2
BRANCH  22   3
ATOM      3  O   UNL     1      -2.013   2.577  22.783  0.00  0.00    -0.491 OA
ATOM     29  C   UNL     1      -2.237   1.972  21.511  0.00  0.00    +0.277 C 
ENDBRANCH  22   3
BRANCH  23   4
ATOM      4  O   UNL     1      -3.107   4.690  24.200  0.00  0.00    -0.488 OA
ATOM     32  C   UNL     1      -2.000   5.196  24.946  0.00  0.00    +0.277 C 
ENDBRANCH  23   4
ENDBRANCH  15  17
ENDBRANCH   6  15
TORSDOF 10
ENDMDL
MODEL 3
REMARK VINA RESULT:       2.9      1.849      3.859
REMARK  Name = 45783395
REMARK  14 active torsions:
REMARK  status: ('A' for Active; 'I' for Inactive)
REMARK    1  A    between atoms: O_2  and  C_21
REMARK    2  A    between atoms: O_2  and  C_28
REMARK    3  A    between atoms: O_3  and  C_22
REMARK    4  A    between atoms: O_3  and  C_29
REMARK    5  A    between atoms: O_4  and  C_23
REMARK    6  A    between atoms: O_4  and  C_32
REMARK    7  A    between atoms: O_5  and  C_33
REMARK    8  A    between atoms: O_5  and  C_34
REMARK    9  A    between atoms: N_6  and  C_15
REMARK   10  A    between atoms: N_9  and  C_30
REMARK   11  A    between atoms: C_11  and  C_16
REMARK   12  A    between atoms: C_15  and  C_17
REMARK   13  A    between atoms: C_20  and  C_24
REMARK   14  A    between atoms: C_30  and  C_33
REMARK                            x       y       z     vdW  Elec       q    Type
REMARK                         _______ _______ _______ _____ _____    ______ ____
ROOT
ATOM      6  N   UNL     1      -3.433  -1.996  23.965  0.00  0.00    -0.287 NA
ATOM     11  C   UNL     1      -2.597  -2.043  25.181  0.00  0.00    +0.146 C 
ATOM     12  C   UNL     1      -1.613  -3.203  24.935  0.00  0.00    +0.030 C 
ATOM     13  C   UNL     1      -2.012  -3.783  23.586  0.00  0.00    +0.017 C 
ATOM     14  C   UNL     1      -3.458  -3.357  23.427  0.00  0.00    +0.085 C 
ENDROOT
BRANCH  11  16
ATOM      1  O   UNL     1      -1.216  -0.641  26.630  0.00  0.00    -0.336 OA
ATOM      7  N   UNL     1      -1.845   0.354  24.724  0.00  0.00    -0.190 NA
ATOM      8  N   UNL     1      -0.661   0.645  26.660  0.00  0.00    -0.056 NA
ATOM     16  C   UNL     1      -1.896  -0.730  25.456  0.00  0.00    +0.245 A 
ATOM     20  C   UNL     1      -1.076   1.170  25.503  0.00  0.00    +0.205 A 
BRANCH  20  24
ATOM      9  N   UNL     1       1.040   1.698  23.685  0.00  0.00    -0.326 N 
ATOM     10  N   UNL     1       0.626   4.025  23.808  0.00  0.00    -0.240 NA
ATOM     24  C   UNL     1      -0.741   2.503  25.096  0.00  0.00    +0.062 A 
ATOM     25  C   UNL     1       0.287   2.779  24.210  0.00  0.00    +0.130 A 
ATOM     26  C   UNL     1      -1.470   3.574  25.602  0.00  0.00    +0.016 A 
ATOM     27  C   UNL     1      -1.152   4.870  25.211  0.00  0.00    +0.020 A 
ATOM     31  C   UNL     1      -0.105   5.041  24.320  0.00  0.00    +0.113 A 
ATOM     35  H   UNL     1       0.550   0.822  23.542  0.00  0.00    +0.148 HD
BRANCH   9  30
ATOM     30  C   UNL     1       2.339   1.868  23.121  0.00  0.00    +0.131 C 
BRANCH  30  33
ATOM     33  C   UNL     1       2.958   0.512  22.824  0.00  0.00    +0.178 C 
BRANCH  33   5
ATOM      5  O   UNL     1       4.334   0.681  22.506  0.00  0.00    -0.381 OA
ATOM     34  C   UNL     1       5.170   0.064  23.475  0.00  0.00    +0.194 C 
ENDBRANCH  33   5
ENDBRANCH  30  33
ENDBRANCH   9  30
ENDBRANCH  20  24
ENDBRANCH  11  16
BRANCH   6  15
ATOM     15  C   UNL     1      -4.773  -1.479  24.209  0.00  0.00    +0.120 C 
BRANCH  15  17
ATOM     17  C   UNL     1      -4.770   0.014  24.409  0.00  0.00    -0.026 A 
ATOM     18  C   UNL     1      -4.131   0.839  23.484  0.00  0.00    +0.054 A 
ATOM     19  C   UNL     1      -5.406   0.571  25.518  0.00  0.00    +0.054 A 
ATOM     21  C   UNL     1      -5.403   1.953  25.703  0.00  0.00    +0.165 A 
ATOM     22  C   UNL     1      -4.128   2.221  23.669  0.00  0.00    +0.165 A 
ATOM     23  C   UNL     1      -4.764   2.778  24.778  0.00  0.00    +0.204 A 
BRANCH  21   2
ATOM      2  O   UNL     1      -6.029   2.484  26.790  0.00  0.00    -0.491 OA
ATOM     28  C   UNL     1      -6.917   1.629  27.508  0.00  0.00    +0.277 C 
ENDBRANCH  21   2
BRANCH  22   3
ATOM      3  O   UNL     1      -3.498   3.017  22.759  0.00  0.00    -0.491 OA
ATOM     29  C   UNL     1      -2.568   2.386  21.881  0.00  0.00    +0.277 C 
ENDBRANCH  22   3
BRANCH  23   4
ATOM      4  O   UNL     1      -4.760   4.130  24.960  0.00  0.00    -0.488 OA
ATOM     32  C   UNL     1      -5.986   4.731  25.374  0.00  0.00    +0.277 C 
ENDBRANCH  23   4
ENDBRANCH  15  17
ENDBRANCH   6  15
TORSDOF 10
ENDMDL
MODEL 4
REMARK VINA RESULT:       2.9      1.852      3.296
REMARK  Name = 45783395
REMARK  14 active torsions:
REMARK  status: ('A' for Active; 'I' for Inactive)
REMARK    1  A    between atoms: O_2  and  C_21
REMARK    2  A    between atoms: O_2  and  C_28
REMARK    3  A    between atoms: O_3  and  C_22
REMARK    4  A    between atoms: O_3  and  C_29
REMARK    5  A    between atoms: O_4  and  C_23
REMARK    6  A    between atoms: O_4  and  C_32
REMARK    7  A    between atoms: O_5  and  C_33
REMARK    8  A    between atoms: O_5  and  C_34
REMARK    9  A    between atoms: N_6  and  C_15
REMARK   10  A    between atoms: N_9  and  C_30
REMARK   11  A    between atoms: C_11  and  C_16
REMARK   12  A    between atoms: C_15  and  C_17
REMARK   13  A    between atoms: C_20  and  C_24
REMARK   14  A    between atoms: C_30  and  C_33
REMARK                            x       y       z     vdW  Elec       q    Type
REMARK                         _______ _______ _______ _____ _____    ______ ____
ROOT
ATOM      6  N   UNL     1      -3.383  -2.015  23.975  0.00  0.00    -0.287 NA
ATOM     11  C   UNL     1      -2.543  -2.052  25.189  0.00  0.00    +0.146 C 
ATOM     12  C   UNL     1      -1.549  -3.202  24.940  0.00  0.00    +0.030 C 
ATOM     13  C   UNL     1      -1.947  -3.789  23.593  0.00  0.00    +0.017 C 
ATOM     14  C   UNL     1      -3.398  -3.376  23.439  0.00  0.00    +0.085 C 
ENDROOT
BRANCH  11  16
ATOM      1  O   UNL     1      -1.187  -0.628  26.640  0.00  0.00    -0.336 OA
ATOM      7  N   UNL     1      -1.801   0.346  24.719  0.00  0.00    -0.190 NA
ATOM      8  N   UNL     1      -0.641   0.662  26.664  0.00  0.00    -0.056 NA
ATOM     16  C   UNL     1      -1.853  -0.732  25.460  0.00  0.00    +0.245 A 
ATOM     20  C   UNL     1      -1.047   1.173  25.499  0.00  0.00    +0.205 A 
BRANCH  20  24
ATOM      9  N   UNL     1       1.068   1.697  23.677  0.00  0.00    -0.326 N 
ATOM     10  N   UNL     1       0.647   4.023  23.785  0.00  0.00    -0.240 NA
ATOM     24  C   UNL     1      -0.715   2.505  25.083  0.00  0.00    +0.062 A 
ATOM     25  C   UNL     1       0.312   2.779  24.195  0.00  0.00    +0.130 A 
ATOM     26  C   UNL     1      -1.448   3.577  25.583  0.00  0.00    +0.016 A 
ATOM     27  C   UNL     1      -1.133   4.871  25.184  0.00  0.00    +0.020 A 
ATOM     31  C   UNL     1      -0.087   5.040  24.291  0.00  0.00    +0.113 A 
ATOM     35  H   UNL     1       0.581   0.819  23.539  0.00  0.00    +0.148 HD
BRANCH   9  30
ATOM     30  C   UNL     1       2.366   1.867  23.111  0.00  0.00    +0.131 C 
BRANCH  30  33
ATOM     33  C   UNL     1       2.986   0.512  22.814  0.00  0.00    +0.178 C 
BRANCH  33   5
ATOM      5  O   UNL     1       4.367   0.678  22.518  0.00  0.00    -0.381 OA
ATOM     34  C   UNL     1       5.186   0.063  23.501  0.00  0.00    +0.194 C 
ENDBRANCH  33   5
ENDBRANCH  30  33
ENDBRANCH   9  30
ENDBRANCH  20  24
ENDBRANCH  11  16
BRANCH   6  15
ATOM     15  C   UNL     1      -4.728  -1.510  24.223  0.00  0.00    +0.120 C 
BRANCH  15  17
ATOM     17  C   UNL     1      -4.739  -0.016  24.413  0.00  0.00    -0.026 A 
ATOM     18  C   UNL     1      -5.386   0.541  25.516  0.00  0.00    +0.054 A 
ATOM     19  C   UNL     1      -4.102   0.810  23.488  0.00  0.00    +0.054 A 
ATOM     21  C   UNL     1      -4.112   2.194  23.664  0.00  0.00    +0.165 A 
ATOM     22  C   UNL     1      -5.396   1.925  25.692  0.00  0.00    +0.165 A 
ATOM     23  C   UNL     1      -4.759   2.751  24.766  0.00  0.00    +0.204 A 
BRANCH  21   2
ATOM      2  O   UNL     1      -3.485   2.989  22.752  0.00  0.00    -0.491 OA
ATOM     28  C   UNL     1      -2.562   2.357  21.868  0.00  0.00    +0.277 C 
ENDBRANCH  21   2
BRANCH  22   3
ATOM      3  O   UNL     1      -6.034   2.457  26.772  0.00  0.00    -0.491 OA
ATOM     29  C   UNL     1      -6.926   1.602  27.484  0.00  0.00    +0.277 C 
ENDBRANCH  22   3
BRANCH  23   4
ATOM      4  O   UNL     1      -4.771   4.103  24.938  0.00  0.00    -0.488 OA
ATOM     32  C   UNL     1      -5.993   4.688  25.385  0.00  0.00    +0.277 C 
ENDBRANCH  23   4
ENDBRANCH  15  17
ENDBRANCH   6  15
TORSDOF 10
ENDMDL
MODEL 5
REMARK VINA RESULT:       5.3      2.233      5.669
REMARK  Name = 45783395
REMARK  14 active torsions:
REMARK  status: ('A' for Active; 'I' for Inactive)
REMARK    1  A    between atoms: O_2  and  C_21
REMARK    2  A    between atoms: O_2  and  C_28
REMARK    3  A    between atoms: O_3  and  C_22
REMARK    4  A    between atoms: O_3  and  C_29
REMARK    5  A    between atoms: O_4  and  C_23
REMARK    6  A    between atoms: O_4  and  C_32
REMARK    7  A    between atoms: O_5  and  C_33
REMARK    8  A    between atoms: O_5  and  C_34
REMARK    9  A    between atoms: N_6  and  C_15
REMARK   10  A    between atoms: N_9  and  C_30
REMARK   11  A    between atoms: C_11  and  C_16
REMARK   12  A    between atoms: C_15  and  C_17
REMARK   13  A    between atoms: C_20  and  C_24
REMARK   14  A    between atoms: C_30  and  C_33
REMARK                            x       y       z     vdW  Elec       q    Type
REMARK                         _______ _______ _______ _____ _____    ______ ____
ROOT
ATOM      6  N   UNL     1      -2.748  -1.772  24.974  0.00  0.00    -0.287 NA
ATOM     11  C   UNL     1      -2.903  -1.290  23.587  0.00  0.00    +0.146 C 
ATOM     12  C   UNL     1      -4.313  -1.750  23.169  0.00  0.00    +0.030 C 
ATOM     13  C   UNL     1      -4.846  -2.533  24.360  0.00  0.00    +0.017 C 
ATOM     14  C   UNL     1      -3.591  -2.962  25.096  0.00  0.00    +0.085 C 
ENDROOT
BRANCH  11  16
ATOM      1  O   UNL     1      -2.669   0.713  22.207  0.00  0.00    -0.336 OA
ATOM      7  N   UNL     1      -2.593   1.108  24.410  0.00  0.00    -0.190 NA
ATOM      8  N   UNL     1      -2.494   2.095  22.349  0.00  0.00    -0.056 NA
ATOM     16  C   UNL     1      -2.718   0.208  23.467  0.00  0.00    +0.245 A 
ATOM     20  C   UNL     1      -2.459   2.250  23.676  0.00  0.00    +0.205 A 
BRANCH  20  24
ATOM      9  N   UNL     1      -4.388   3.311  25.470  0.00  0.00    -0.326 N 
ATOM     10  N   UNL     1      -3.092   5.266  25.780  0.00  0.00    -0.240 NA
ATOM     24  C   UNL     1      -2.292   3.530  24.300  0.00  0.00    +0.062 A 
ATOM     25  C   UNL     1      -3.222   4.063  25.177  0.00  0.00    +0.130 A 
ATOM     26  C   UNL     1      -1.154   4.281  24.023  0.00  0.00    +0.016 A 
ATOM     27  C   UNL     1      -0.985   5.523  24.624  0.00  0.00    +0.020 A 
ATOM     31  C   UNL     1      -1.973   5.967  25.487  0.00  0.00    +0.113 A 
ATOM     35  H   UNL     1      -4.296   2.301  25.476  0.00  0.00    +0.148 HD
BRANCH   9  30
ATOM     30  C   UNL     1      -5.572   3.902  26.001  0.00  0.00    +0.131 C 
BRANCH  30  33
ATOM     33  C   UNL     1      -6.555   2.819  26.414  0.00  0.00    +0.178 C 
BRANCH  33   5
ATOM      5  O   UNL     1      -6.022   1.544  26.079  0.00  0.00    -0.381 OA
ATOM     34  C   UNL     1      -6.277   1.214  24.722  0.00  0.00    +0.194 C 
ENDBRANCH  33   5
ENDBRANCH  30  33
ENDBRANCH   9  30
ENDBRANCH  20  24
ENDBRANCH  11  16
BRANCH   6  15
ATOM     15  C   UNL     1      -1.363  -2.044  25.336  0.00  0.00    +0.120 C 
BRANCH  15  17
ATOM     17  C   UNL     1      -0.429  -0.986  24.810  0.00  0.00    -0.026 A 
ATOM     18  C   UNL     1       0.288  -1.211  23.635  0.00  0.00    +0.054 A 
ATOM     19  C   UNL     1      -0.281   0.219  25.498  0.00  0.00    +0.054 A 
ATOM     21  C   UNL     1       0.584   1.198  25.010  0.00  0.00    +0.165 A 
ATOM     22  C   UNL     1       1.153  -0.231  23.148  0.00  0.00    +0.165 A 
ATOM     23  C   UNL     1       1.301   0.974  23.836  0.00  0.00    +0.204 A 
BRANCH  21   2
ATOM      2  O   UNL     1       0.718   2.371  25.692  0.00  0.00    -0.491 OA
ATOM     28  C   UNL     1       0.044   2.473  26.945  0.00  0.00    +0.277 C 
ENDBRANCH  21   2
BRANCH  22   3
ATOM      3  O   UNL     1       1.849  -0.464  22.000  0.00  0.00    -0.491 OA
ATOM     29  C   UNL     1       1.089  -0.729  20.823  0.00  0.00    +0.277 C 
ENDBRANCH  22   3
BRANCH  23   4
ATOM      4  O   UNL     1       2.147   1.931  23.361  0.00  0.00    -0.488 OA
ATOM     32  C   UNL     1       3.430   1.495  22.913  0.00  0.00    +0.277 C 
ENDBRANCH  23   4
ENDBRANCH  15  17
ENDBRANCH   6  15
TORSDOF 10
ENDMDL
MODEL 6
REMARK VINA RESULT:       5.4      2.212      5.259
REMARK  Name = 45783395
REMARK  14 active torsions:
REMARK  status: ('A' for Active; 'I' for Inactive)
REMARK    1  A    between atoms: O_2  and  C_21
REMARK    2  A    between atoms: O_2  and  C_28
REMARK    3  A    between atoms: O_3  and  C_22
REMARK    4  A    between atoms: O_3  and  C_29
REMARK    5  A    between atoms: O_4  and  C_23
REMARK    6  A    between atoms: O_4  and  C_32
REMARK    7  A    between atoms: O_5  and  C_33
REMARK    8  A    between atoms: O_5  and  C_34
REMARK    9  A    between atoms: N_6  and  C_15
REMARK   10  A    between atoms: N_9  and  C_30
REMARK   11  A    between atoms: C_11  and  C_16
REMARK   12  A    between atoms: C_15  and  C_17
REMARK   13  A    between atoms: C_20  and  C_24
REMARK   14  A    between atoms: C_30  and  C_33
REMARK                            x       y       z     vdW  Elec       q    Type
REMARK                         _______ _______ _______ _____ _____    ______ ____
ROOT
ATOM      6  N   UNL     1      -2.760  -1.776  24.955  0.00  0.00    -0.287 NA
ATOM     11  C   UNL     1      -2.923  -1.309  23.563  0.00  0.00    +0.146 C 
ATOM     12  C   UNL     1      -4.342  -1.757  23.165  0.00  0.00    +0.030 C 
ATOM     13  C   UNL     1      -4.873  -2.518  24.371  0.00  0.00    +0.017 C 
ATOM     14  C   UNL     1      -3.617  -2.954  25.099  0.00  0.00    +0.085 C 
ENDROOT
BRANCH  11  16
ATOM      1  O   UNL     1      -2.731   0.681  22.158  0.00  0.00    -0.336 OA
ATOM      7  N   UNL     1      -2.531   1.088  24.352  0.00  0.00    -0.190 NA
ATOM      8  N   UNL     1      -2.527   2.062  22.282  0.00  0.00    -0.056 NA
ATOM     16  C   UNL     1      -2.721   0.185  23.424  0.00  0.00    +0.245 A 
ATOM     20  C   UNL     1      -2.418   2.224  23.604  0.00  0.00    +0.205 A 
BRANCH  20  24
ATOM      9  N   UNL     1      -4.331   3.422  25.327  0.00  0.00    -0.326 N 
ATOM     10  N   UNL     1      -2.938   5.310  25.636  0.00  0.00    -0.240 NA
ATOM     24  C   UNL     1      -2.197   3.505  24.209  0.00  0.00    +0.062 A 
ATOM     25  C   UNL     1      -3.119   4.104  25.051  0.00  0.00    +0.130 A 
ATOM     26  C   UNL     1      -1.013   4.187  23.949  0.00  0.00    +0.016 A 
ATOM     27  C   UNL     1      -0.792   5.429  24.532  0.00  0.00    +0.020 A 
ATOM     31  C   UNL     1      -1.776   5.943  25.361  0.00  0.00    +0.113 A 
ATOM     35  H   UNL     1      -4.294   2.409  25.353  0.00  0.00    +0.148 HD
BRANCH   9  30
ATOM     30  C   UNL     1      -5.494   4.087  25.815  0.00  0.00    +0.131 C 
BRANCH  30  33
ATOM     33  C   UNL     1      -6.575   3.071  26.145  0.00  0.00    +0.178 C 
BRANCH  33   5
ATOM      5  O   UNL     1      -6.028   1.760  26.078  0.00  0.00    -0.381 OA
ATOM     34  C   UNL     1      -6.190   1.195  24.785  0.00  0.00    +0.194 C 
ENDBRANCH  33   5
ENDBRANCH  30  33
ENDBRANCH   9  30
ENDBRANCH  20  24
ENDBRANCH  11  16
BRANCH   6  15
ATOM     15  C   UNL     1      -1.375  -2.061  25.306  0.00  0.00    +0.120 C 
BRANCH  15  17
ATOM     17  C   UNL     1      -0.437  -1.000  24.792  0.00  0.00    -0.026 A 
ATOM     18  C   UNL     1      -0.249   0.175  25.520  0.00  0.00    +0.054 A 
ATOM     19  C   UNL     1       0.243  -1.193  23.590  0.00  0.00    +0.054 A 
ATOM     21  C   UNL     1       1.111  -0.211  23.115  0.00  0.00    +0.165 A 
ATOM     22  C   UNL     1       0.619   1.158  25.044  0.00  0.00    +0.165 A 
ATOM     23  C   UNL     1       1.299   0.965  23.841  0.00  0.00    +0.204 A 
BRANCH  21   2
ATOM      2  O   UNL     1       1.770  -0.412  21.939  0.00  0.00    -0.491 OA
ATOM     28  C   UNL     1       0.984  -0.806  20.815  0.00  0.00    +0.277 C 
ENDBRANCH  21   2
BRANCH  22   3
ATOM      3  O   UNL     1       0.792   2.302  25.762  0.00  0.00    -0.491 OA
ATOM     29  C   UNL     1      -0.093   2.519  26.859  0.00  0.00    +0.277 C 
ENDBRANCH  22   3
BRANCH  23   4
ATOM      4  O   UNL     1       2.147   1.926  23.376  0.00  0.00    -0.488 OA
ATOM     32  C   UNL     1       3.432   1.494  22.931  0.00  0.00    +0.277 C 
ENDBRANCH  23   4
ENDBRANCH  15  17
ENDBRANCH   6  15
TORSDOF 10
ENDMDL
MODEL 7
REMARK VINA RESULT:       5.4      1.535      5.738
REMARK  Name = 45783395
REMARK  14 active torsions:
REMARK  status: ('A' for Active; 'I' for Inactive)
REMARK    1  A    between atoms: O_2  and  C_21
REMARK    2  A    between atoms: O_2  and  C_28
REMARK    3  A    between atoms: O_3  and  C_22
REMARK    4  A    between atoms: O_3  and  C_29
REMARK    5  A    between atoms: O_4  and  C_23
REMARK    6  A    between atoms: O_4  and  C_32
REMARK    7  A    between atoms: O_5  and  C_33
REMARK    8  A    between atoms: O_5  and  C_34
REMARK    9  A    between atoms: N_6  and  C_15
REMARK   10  A    between atoms: N_9  and  C_30
REMARK   11  A    between atoms: C_11  and  C_16
REMARK   12  A    between atoms: C_15  and  C_17
REMARK   13  A    between atoms: C_20  and  C_24
REMARK   14  A    between atoms: C_30  and  C_33
REMARK                            x       y       z     vdW  Elec       q    Type
REMARK                         _______ _______ _______ _____ _____    ______ ____
ROOT
ATOM      6  N   UNL     1       2.358   1.255  23.489  0.00  0.00    -0.287 NA
ATOM     11  C   UNL     1       1.855   0.075  22.759  0.00  0.00    +0.146 C 
ATOM     12  C   UNL     1       3.078  -0.851  22.622  0.00  0.00    +0.030 C 
ATOM     13  C   UNL     1       4.232  -0.081  23.249  0.00  0.00    +0.017 C 
ATOM     14  C   UNL     1       3.782   1.365  23.168  0.00  0.00    +0.085 C 
ENDROOT
BRANCH  11  16
ATOM      1  O   UNL     1       0.905  -0.975  24.751  0.00  0.00    -0.336 OA
ATOM      7  N   UNL     1      -0.506  -0.865  23.015  0.00  0.00    -0.190 NA
ATOM      8  N   UNL     1      -0.293  -1.560  25.184  0.00  0.00    -0.056 NA
ATOM     16  C   UNL     1       0.693  -0.593  23.464  0.00  0.00    +0.245 A 
ATOM     20  C   UNL     1      -1.075  -1.457  24.105  0.00  0.00    +0.205 A 
BRANCH  20  24
ATOM      9  N   UNL     1      -3.278   0.241  24.678  0.00  0.00    -0.326 N 
ATOM     10  N   UNL     1      -4.797  -1.543  24.347  0.00  0.00    -0.240 NA
ATOM     24  C   UNL     1      -2.426  -1.935  24.083  0.00  0.00    +0.062 A 
ATOM     25  C   UNL     1      -3.512  -1.121  24.360  0.00  0.00    +0.130 A 
ATOM     26  C   UNL     1      -2.674  -3.268  23.773  0.00  0.00    +0.016 A 
ATOM     27  C   UNL     1      -3.982  -3.738  23.749  0.00  0.00    +0.020 A 
ATOM     31  C   UNL     1      -4.999  -2.844  24.041  0.00  0.00    +0.113 A 
ATOM     35  H   UNL     1      -2.487   0.689  24.229  0.00  0.00    +0.148 HD
BRANCH   9  30
ATOM     30  C   UNL     1      -4.232   1.045  25.368  0.00  0.00    +0.131 C 
BRANCH  30  33
ATOM     33  C   UNL     1      -5.290   1.544  24.398  0.00  0.00    +0.178 C 
BRANCH  33   5
ATOM      5  O   UNL     1      -6.311   2.222  25.119  0.00  0.00    -0.381 OA
ATOM     34  C   UNL     1      -6.223   1.961  26.513  0.00  0.00    +0.194 C 
ENDBRANCH  33   5
ENDBRANCH  30  33
ENDBRANCH   9  30
ENDBRANCH  20  24
ENDBRANCH  11  16
BRANCH   6  15
ATOM     15  C   UNL     1       1.631   2.478  23.173  0.00  0.00    +0.120 C 
BRANCH  15  17
ATOM     17  C   UNL     1       0.510   2.731  24.147  0.00  0.00    -0.026 A 
ATOM     18  C   UNL     1      -0.688   3.290  23.702  0.00  0.00    +0.054 A 
ATOM     19  C   UNL     1       0.670   2.407  25.494  0.00  0.00    +0.054 A 
ATOM     21  C   UNL     1      -0.367   2.641  26.396  0.00  0.00    +0.165 A 
ATOM     22  C   UNL     1      -1.725   3.524  24.604  0.00  0.00    +0.165 A 
ATOM     23  C   UNL     1      -1.565   3.199  25.951  0.00  0.00    +0.204 A 
BRANCH  21   2
ATOM      2  O   UNL     1      -0.198   2.318  27.709  0.00  0.00    -0.491 OA
ATOM     28  C   UNL     1       1.083   2.580  28.280  0.00  0.00    +0.277 C 
ENDBRANCH  21   2
BRANCH  22   3
ATOM      3  O   UNL     1      -2.889   4.072  24.157  0.00  0.00    -0.491 OA
ATOM     29  C   UNL     1      -3.449   3.523  22.966  0.00  0.00    +0.277 C 
ENDBRANCH  22   3
BRANCH  23   4
ATOM      4  O   UNL     1      -2.579   3.430  26.833  0.00  0.00    -0.488 OA
ATOM     32  C   UNL     1      -3.450   4.523  26.546  0.00  0.00    +0.277 C 
ENDBRANCH  23   4
ENDBRANCH  15  17
ENDBRANCH   6  15
TORSDOF 10
ENDMDL
MODEL 8
REMARK VINA RESULT:       5.4      1.539      5.732
REMARK  Name = 45783395
REMARK  14 active torsions:
REMARK  status: ('A' for Active; 'I' for Inactive)
REMARK    1  A    between atoms: O_2  and  C_21
REMARK    2  A    between atoms: O_2  and  C_28
REMARK    3  A    between atoms: O_3  and  C_22
REMARK    4  A    between atoms: O_3  and  C_29
REMARK    5  A    between atoms: O_4  and  C_23
REMARK    6  A    between atoms: O_4  and  C_32
REMARK    7  A    between atoms: O_5  and  C_33
REMARK    8  A    between atoms: O_5  and  C_34
REMARK    9  A    between atoms: N_6  and  C_15
REMARK   10  A    between atoms: N_9  and  C_30
REMARK   11  A    between atoms: C_11  and  C_16
REMARK   12  A    between atoms: C_15  and  C_17
REMARK   13  A    between atoms: C_20  and  C_24
REMARK   14  A    between atoms: C_30  and  C_33
REMARK                            x       y       z     vdW  Elec       q    Type
REMARK                         _______ _______ _______ _____ _____    ______ ____
ROOT
ATOM      6  N   UNL     1       2.359   1.254  23.477  0.00  0.00    -0.287 NA
ATOM     11  C   UNL     1       1.851   0.074  22.749  0.00  0.00    +0.146 C 
ATOM     12  C   UNL     1       3.072  -0.853  22.607  0.00  0.00    +0.030 C 
ATOM     13  C   UNL     1       4.230  -0.085  23.229  0.00  0.00    +0.017 C 
ATOM     14  C   UNL     1       3.781   1.361  23.151  0.00  0.00    +0.085 C 
ENDROOT
BRANCH  11  16
ATOM      1  O   UNL     1       0.905  -0.970  24.746  0.00  0.00    -0.336 OA
ATOM      7  N   UNL     1      -0.509  -0.866  23.013  0.00  0.00    -0.190 NA
ATOM      8  N   UNL     1      -0.291  -1.553  25.184  0.00  0.00    -0.056 NA
ATOM     16  C   UNL     1       0.691  -0.591  23.459  0.00  0.00    +0.245 A 
ATOM     20  C   UNL     1      -1.075  -1.455  24.106  0.00  0.00    +0.205 A 
BRANCH  20  24
ATOM      9  N   UNL     1      -3.279   0.248  24.662  0.00  0.00    -0.326 N 
ATOM     10  N   UNL     1      -4.798  -1.539  24.347  0.00  0.00    -0.240 NA
ATOM     24  C   UNL     1      -2.427  -1.933  24.089  0.00  0.00    +0.062 A 
ATOM     25  C   UNL     1      -3.513  -1.117  24.357  0.00  0.00    +0.130 A 
ATOM     26  C   UNL     1      -2.673  -3.269  23.791  0.00  0.00    +0.016 A 
ATOM     27  C   UNL     1      -3.981  -3.741  23.772  0.00  0.00    +0.020 A 
ATOM     31  C   UNL     1      -4.999  -2.844  24.054  0.00  0.00    +0.113 A 
ATOM     35  H   UNL     1      -2.488   0.692  24.209  0.00  0.00    +0.148 HD
BRANCH   9  30
ATOM     30  C   UNL     1      -4.234   1.059  25.343  0.00  0.00    +0.131 C 
BRANCH  30  33
ATOM     33  C   UNL     1      -5.244   1.616  24.353  0.00  0.00    +0.178 C 
BRANCH  33   5
ATOM      5  O   UNL     1      -6.437   1.967  25.043  0.00  0.00    -0.381 OA
ATOM     34  C   UNL     1      -6.244   1.965  26.450  0.00  0.00    +0.194 C 
ENDBRANCH  33   5
ENDBRANCH  30  33
ENDBRANCH   9  30
ENDBRANCH  20  24
ENDBRANCH  11  16
BRANCH   6  15
ATOM     15  C   UNL     1       1.632   2.479  23.165  0.00  0.00    +0.120 C 
BRANCH  15  17
ATOM     17  C   UNL     1       0.523   2.738  24.150  0.00  0.00    -0.026 A 
ATOM     18  C   UNL     1       0.687   2.392  25.491  0.00  0.00    +0.054 A 
ATOM     19  C   UNL     1      -0.667   3.325  23.721  0.00  0.00    +0.054 A 
ATOM     21  C   UNL     1      -1.694   3.566  24.633  0.00  0.00    +0.165 A 
ATOM     22  C   UNL     1      -0.340   2.633  26.403  0.00  0.00    +0.165 A 
ATOM     23  C   UNL     1      -1.531   3.220  25.974  0.00  0.00    +0.204 A 
BRANCH  21   2
ATOM      2  O   UNL     1      -2.852   4.140  24.201  0.00  0.00    -0.491 OA
ATOM     28  C   UNL     1      -3.430   3.614  23.008  0.00  0.00    +0.277 C 
ENDBRANCH  21   2
BRANCH  22   3
ATOM      3  O   UNL     1      -0.169   2.288  27.710  0.00  0.00    -0.491 OA
ATOM     29  C   UNL     1       1.099   2.576  28.295  0.00  0.00    +0.277 C 
ENDBRANCH  22   3
BRANCH  23   4
ATOM      4  O   UNL     1      -2.536   3.453  26.865  0.00  0.00    -0.488 OA
ATOM     32  C   UNL     1      -3.450   4.502  26.549  0.00  0.00    +0.277 C 
ENDBRANCH  23   4
ENDBRANCH  15  17
ENDBRANCH   6  15
TORSDOF 10
ENDMDL
MODEL 9
REMARK VINA RESULT:       5.5      1.906      4.789
REMARK  Name = 45783395
REMARK  14 active torsions:
REMARK  status: ('A' for Active; 'I' for Inactive)
REMARK    1  A    between atoms: O_2  and  C_21
REMARK    2  A    between atoms: O_2  and  C_28
REMARK    3  A    between atoms: O_3  and  C_22
REMARK    4  A    between atoms: O_3  and  C_29
REMARK    5  A    between atoms: O_4  and  C_23
REMARK    6  A    between atoms: O_4  and  C_32
REMARK    7  A    between atoms: O_5  and  C_33
REMARK    8  A    between atoms: O_5  and  C_34
REMARK    9  A    between atoms: N_6  and  C_15
REMARK   10  A    between atoms: N_9  and  C_30
REMARK   11  A    between atoms: C_11  and  C_16
REMARK   12  A    between atoms: C_15  and  C_17
REMARK   13  A    between atoms: C_20  and  C_24
REMARK   14  A    between atoms: C_30  and  C_33
REMARK                            x       y       z     vdW  Elec       q    Type
REMARK                         _______ _______ _______ _____ _____    ______ ____
ROOT
ATOM      6  N   UNL     1      -5.027   2.610  25.373  0.00  0.00    -0.287 NA
ATOM     11  C   UNL     1      -4.750   3.144  24.024  0.00  0.00    +0.146 C 
ATOM     12  C   UNL     1      -4.674   4.670  24.217  0.00  0.00    +0.030 C 
ATOM     13  C   UNL     1      -4.982   4.901  25.690  0.00  0.00    +0.017 C 
ATOM     14  C   UNL     1      -5.750   3.658  26.093  0.00  0.00    +0.085 C 
ENDROOT
BRANCH  11  16
ATOM      1  O   UNL     1      -3.466   2.446  22.065  0.00  0.00    -0.336 OA
ATOM      7  N   UNL     1      -2.393   2.160  24.010  0.00  0.00    -0.190 NA
ATOM      8  N   UNL     1      -2.217   1.899  21.744  0.00  0.00    -0.056 NA
ATOM     16  C   UNL     1      -3.487   2.568  23.419  0.00  0.00    +0.245 A 
ATOM     20  C   UNL     1      -1.643   1.758  22.943  0.00  0.00    +0.205 A 
BRANCH  20  24
ATOM      9  N   UNL     1      -0.037   2.390  25.199  0.00  0.00    -0.326 N 
ATOM     10  N   UNL     1       1.720   1.029  24.386  0.00  0.00    -0.240 NA
ATOM     24  C   UNL     1      -0.324   1.223  23.109  0.00  0.00    +0.062 A 
ATOM     25  C   UNL     1       0.473   1.519  24.202  0.00  0.00    +0.130 A 
ATOM     26  C   UNL     1       0.192   0.367  22.140  0.00  0.00    +0.016 A 
ATOM     27  C   UNL     1       1.470  -0.157  22.294  0.00  0.00    +0.020 A 
ATOM     31  C   UNL     1       2.187   0.201  23.424  0.00  0.00    +0.113 A 
ATOM     35  H   UNL     1      -1.036   2.359  25.369  0.00  0.00    +0.148 HD
BRANCH   9  30
ATOM     30  C   UNL     1       0.803   3.082  26.119  0.00  0.00    +0.131 C 
BRANCH  30  33
ATOM     33  C   UNL     1       0.710   2.439  27.493  0.00  0.00    +0.178 C 
BRANCH  33   5
ATOM      5  O   UNL     1       1.862   2.780  28.254  0.00  0.00    -0.381 OA
ATOM     34  C   UNL     1       1.698   2.444  29.624  0.00  0.00    +0.194 C 
ENDBRANCH  33   5
ENDBRANCH  30  33
ENDBRANCH   9  30
ENDBRANCH  20  24
ENDBRANCH  11  16
BRANCH   6  15
ATOM     15  C   UNL     1      -5.764   1.352  25.351  0.00  0.00    +0.120 C 
BRANCH  15  17
ATOM     17  C   UNL     1      -4.850   0.170  25.164  0.00  0.00    -0.026 A 
ATOM     18  C   UNL     1      -3.811  -0.056  26.066  0.00  0.00    +0.054 A 
ATOM     19  C   UNL     1      -5.044  -0.698  24.090  0.00  0.00    +0.054 A 
ATOM     21  C   UNL     1      -4.198  -1.793  23.917  0.00  0.00    +0.165 A 
ATOM     22  C   UNL     1      -2.964  -1.151  25.893  0.00  0.00    +0.165 A 
ATOM     23  C   UNL     1      -3.158  -2.020  24.818  0.00  0.00    +0.204 A 
BRANCH  21   2
ATOM      2  O   UNL     1      -4.398  -2.634  22.864  0.00  0.00    -0.491 OA
ATOM     28  C   UNL     1      -5.323  -3.704  23.055  0.00  0.00    +0.277 C 
ENDBRANCH  21   2
BRANCH  22   3
ATOM      3  O   UNL     1      -1.950  -1.360  26.778  0.00  0.00    -0.491 OA
ATOM     29  C   UNL     1      -0.728  -0.664  26.540  0.00  0.00    +0.277 C 
ENDBRANCH  22   3
BRANCH  23   4
ATOM      4  O   UNL     1      -2.329  -3.089  24.648  0.00  0.00    -0.488 OA
ATOM     32  C   UNL     1      -1.128  -2.866  23.911  0.00  0.00    +0.277 C 
ENDBRANCH  23   4
ENDBRANCH  15  17
ENDBRANCH   6  15
TORSDOF 10
ENDMDL
MODEL 10
REMARK VINA RESULT:       5.5      1.903      4.884
REMARK  Name = 45783395
REMARK  14 active torsions:
REMARK  status: ('A' for Active; 'I' for Inactive)
REMARK    1  A    between atoms: O_2  and  C_21
REMARK    2  A    between atoms: O_2  and  C_28
REMARK    3  A    between atoms: O_3  and  C_22
REMARK    4  A    between atoms: O_3  and  C_29
REMARK    5  A    between atoms: O_4  and  C_23
REMARK    6  A    between atoms: O_4  and  C_32
REMARK    7  A    between atoms: O_5  and  C_33
REMARK    8  A    between atoms: O_5  and  C_34
REMARK    9  A    between atoms: N_6  and  C_15
REMARK   10  A    between atoms: N_9  and  C_30
REMARK   11  A    between atoms: C_11  and  C_16
REMARK   12  A    between atoms: C_15  and  C_17
REMARK   13  A    between atoms: C_20  and  C_24
REMARK   14  A    between atoms: C_30  and  C_33
REMARK                            x       y       z     vdW  Elec       q    Type
REMARK                         _______ _______ _______ _____ _____    ______ ____
ROOT
ATOM      6  N   UNL     1      -5.007   2.587  25.412  0.00  0.00    -0.287 NA
ATOM     11  C   UNL     1      -4.739   3.129  24.065  0.00  0.00    +0.146 C 
ATOM     12  C   UNL     1      -4.662   4.654  24.266  0.00  0.00    +0.030 C 
ATOM     13  C   UNL     1      -4.959   4.877  25.742  0.00  0.00    +0.017 C 
ATOM     14  C   UNL     1      -5.725   3.631  26.143  0.00  0.00    +0.085 C 
ENDROOT
BRANCH  11  16
ATOM      1  O   UNL     1      -3.469   2.442  22.093  0.00  0.00    -0.336 OA
ATOM      7  N   UNL     1      -2.382   2.145  24.029  0.00  0.00    -0.190 NA
ATOM      8  N   UNL     1      -2.223   1.896  21.760  0.00  0.00    -0.056 NA
ATOM     16  C   UNL     1      -3.481   2.557  23.447  0.00  0.00    +0.245 A 
ATOM     20  C   UNL     1      -1.640   1.750  22.954  0.00  0.00    +0.205 A 
BRANCH  20  24
ATOM      9  N   UNL     1      -0.007   2.392  25.187  0.00  0.00    -0.326 N 
ATOM     10  N   UNL     1       1.739   1.025  24.362  0.00  0.00    -0.240 NA
ATOM     24  C   UNL     1      -0.319   1.214  23.108  0.00  0.00    +0.062 A 
ATOM     25  C   UNL     1       0.490   1.516  24.190  0.00  0.00    +0.130 A 
ATOM     26  C   UNL     1       0.184   0.352  22.138  0.00  0.00    +0.016 A 
ATOM     27  C   UNL     1       1.464  -0.172  22.280  0.00  0.00    +0.020 A 
ATOM     31  C   UNL     1       2.194   0.191  23.400  0.00  0.00    +0.113 A 
ATOM     35  H   UNL     1      -1.004   2.364  25.369  0.00  0.00    +0.148 HD
BRANCH   9  30
ATOM     30  C   UNL     1       0.844   3.089  26.094  0.00  0.00    +0.131 C 
BRANCH  30  33
ATOM     33  C   UNL     1       0.684   2.525  27.496  0.00  0.00    +0.178 C 
BRANCH  33   5
ATOM      5  O   UNL     1       1.864   2.783  28.247  0.00  0.00    -0.381 OA
ATOM     34  C   UNL     1       1.720   2.368  29.598  0.00  0.00    +0.194 C 
ENDBRANCH  33   5
ENDBRANCH  30  33
ENDBRANCH   9  30
ENDBRANCH  20  24
ENDBRANCH  11  16
BRANCH   6  15
ATOM     15  C   UNL     1      -5.745   1.330  25.388  0.00  0.00    +0.120 C 
BRANCH  15  17
ATOM     17  C   UNL     1      -4.832   0.149  25.188  0.00  0.00    -0.026 A 
ATOM     18  C   UNL     1      -5.044  -0.723  24.119  0.00  0.00    +0.054 A 
ATOM     19  C   UNL     1      -3.775  -0.074  26.070  0.00  0.00    +0.054 A 
ATOM     21  C   UNL     1      -2.930  -1.167  25.885  0.00  0.00    +0.165 A 
ATOM     22  C   UNL     1      -4.199  -1.816  23.934  0.00  0.00    +0.165 A 
ATOM     23  C   UNL     1      -3.142  -2.039  24.817  0.00  0.00    +0.204 A 
BRANCH  21   2
ATOM      2  O   UNL     1      -1.901  -1.373  26.754  0.00  0.00    -0.491 OA
ATOM     28  C   UNL     1      -0.687  -0.669  26.498  0.00  0.00    +0.277 C 
ENDBRANCH  21   2
BRANCH  22   3
ATOM      3  O   UNL     1      -4.418  -2.662  22.888  0.00  0.00    -0.491 OA
ATOM     29  C   UNL     1      -5.432  -3.651  23.057  0.00  0.00    +0.277 C 
ENDBRANCH  22   3
BRANCH  23   4
ATOM      4  O   UNL     1      -2.317  -3.109  24.637  0.00  0.00    -0.488 OA
ATOM     32  C   UNL     1      -1.122  -2.886  23.890  0.00  0.00    +0.277 C 
ENDBRANCH  23   4
ENDBRANCH  15  17
ENDBRANCH   6  15
TORSDOF 10
ENDMDL
