MODEL 1
REMARK VINA RESULT:      -3.3      0.000      0.000
REMARK  Name = 75536071
REMARK  8 active torsions:
REMARK  status: ('A' for Active; 'I' for Inactive)
REMARK    1  A    between atoms: O_1  and  C_9
REMARK    2  A    between atoms: O_2  and  C_11
REMARK    3  A    between atoms: O_4  and  C_24
REMARK    4  A    between atoms: O_4  and  C_25
REMARK    5  A    between atoms: N_5  and  C_8
REMARK    6  A    between atoms: C_7  and  C_12
REMARK    7  A    between atoms: C_14  and  C_16
REMARK    8  A    between atoms: C_16  and  C_19
REMARK                            x       y       z     vdW  Elec       q    Type
REMARK                         _______ _______ _______ _____ _____    ______ ____
ROOT
ATOM      7  C   UNL     1      -4.468   1.186  24.276  0.00  0.00    +0.046 C 
ATOM      8  C   UNL     1      -3.611   2.199  25.068  0.00  0.00    +0.111 C 
ATOM      9  C   UNL     1      -4.544   3.398  25.236  0.00  0.00    +0.164 C 
ATOM     10  C   UNL     1      -5.944   1.577  24.547  0.00  0.00    +0.044 C 
ATOM     11  C   UNL     1      -5.892   2.749  25.524  0.00  0.00    +0.145 C 
ENDROOT
BRANCH   7  12
ATOM      6  N   UNL     1      -3.273  -1.868  26.182  0.00  0.00    -0.263 NA
ATOM     12  C   UNL     1      -4.134  -0.255  24.602  0.00  0.00    -0.024 A 
ATOM     13  C   UNL     1      -4.359  -1.269  23.677  0.00  0.00    +0.007 A 
ATOM     15  C   UNL     1      -3.595  -0.604  25.829  0.00  0.00    +0.114 A 
ATOM     17  C   UNL     1      -4.042  -2.583  24.004  0.00  0.00    +0.020 A 
ATOM     18  C   UNL     1      -3.506  -2.828  25.258  0.00  0.00    +0.111 A 
ENDBRANCH   7  12
BRANCH   8   5
ATOM      3  O   UNL     1      -1.102   2.984  26.241  0.00  0.00    -0.275 OA
ATOM      5  N   UNL     1      -2.404   2.551  24.365  0.00  0.00    -0.309 N 
ATOM     14  C   UNL     1      -1.234   2.920  25.021  0.00  0.00    +0.218 C 
ATOM     26  H   UNL     1      -2.403   2.465  23.353  0.00  0.00    +0.149 HD
BRANCH  14  16
ATOM     16  C   UNL     1      -0.119   3.232  24.041  0.00  0.00    +0.130 C 
BRANCH  16  19
ATOM     19  C   UNL     1       0.753   2.045  23.732  0.00  0.00    -0.038 A 
ATOM     20  C   UNL     1       2.092   2.233  23.389  0.00  0.00    +0.007 A 
ATOM     21  C   UNL     1       0.222   0.756  23.790  0.00  0.00    +0.007 A 
ATOM     22  C   UNL     1       2.900   1.133  23.103  0.00  0.00    +0.046 A 
ATOM     23  C   UNL     1       1.031  -0.344  23.504  0.00  0.00    +0.046 A 
ATOM     24  C   UNL     1       2.369  -0.156  23.161  0.00  0.00    +0.120 A 
BRANCH  24   4
ATOM      4  O   UNL     1       3.158  -1.230  22.883  0.00  0.00    -0.495 OA
ATOM     25  C   UNL     1       4.309  -1.420  23.705  0.00  0.00    +0.277 C 
ENDBRANCH  24   4
ENDBRANCH  16  19
ENDBRANCH  14  16
ENDBRANCH   8   5
BRANCH   9   1
ATOM      1  O   UNL     1      -4.145   4.242  26.300  0.00  0.00    -0.387 OA
ATOM     27  H   UNL     1      -4.903   4.808  26.523  0.00  0.00    +0.210 HD
ENDBRANCH   9   1
BRANCH  11   2
ATOM      2  O   UNL     1      -5.940   2.240  26.853  0.00  0.00    -0.389 OA
ATOM     28  H   UNL     1      -5.186   1.635  26.963  0.00  0.00    +0.210 HD
ENDBRANCH  11   2
TORSDOF 7
ENDMDL
MODEL 2
REMARK VINA RESULT:      -3.1      1.708      2.890
REMARK  Name = 75536071
REMARK  8 active torsions:
REMARK  status: ('A' for Active; 'I' for Inactive)
REMARK    1  A    between atoms: O_1  and  C_9
REMARK    2  A    between atoms: O_2  and  C_11
REMARK    3  A    between atoms: O_4  and  C_24
REMARK    4  A    between atoms: O_4  and  C_25
REMARK    5  A    between atoms: N_5  and  C_8
REMARK    6  A    between atoms: C_7  and  C_12
REMARK    7  A    between atoms: C_14  and  C_16
REMARK    8  A    between atoms: C_16  and  C_19
REMARK                            x       y       z     vdW  Elec       q    Type
REMARK                         _______ _______ _______ _____ _____    ______ ____
ROOT
ATOM      7  C   UNL     1      -2.858   1.334  23.693  0.00  0.00    +0.046 C 
ATOM      8  C   UNL     1      -1.463   1.831  24.133  0.00  0.00    +0.111 C 
ATOM      9  C   UNL     1      -1.623   3.351  24.172  0.00  0.00    +0.164 C 
ATOM     10  C   UNL     1      -3.849   2.464  24.075  0.00  0.00    +0.044 C 
ATOM     11  C   UNL     1      -3.012   3.536  24.770  0.00  0.00    +0.145 C 
ENDROOT
BRANCH   7  12
ATOM      6  N   UNL     1      -3.187  -1.542  26.144  0.00  0.00    -0.263 NA
ATOM     12  C   UNL     1      -3.209  -0.024  24.263  0.00  0.00    -0.024 A 
ATOM     13  C   UNL     1      -3.850  -0.983  23.486  0.00  0.00    +0.007 A 
ATOM     15  C   UNL     1      -2.903  -0.350  25.574  0.00  0.00    +0.114 A 
ATOM     17  C   UNL     1      -4.160  -2.221  24.037  0.00  0.00    +0.020 A 
ATOM     18  C   UNL     1      -3.810  -2.450  25.358  0.00  0.00    +0.111 A 
ENDBRANCH   7  12
BRANCH   8   5
ATOM      3  O   UNL     1       0.080  -0.597  24.241  0.00  0.00    -0.275 OA
ATOM      5  N   UNL     1      -0.429   1.424  23.214  0.00  0.00    -0.309 N 
ATOM     14  C   UNL     1       0.265   0.226  23.348  0.00  0.00    +0.218 C 
ATOM     26  H   UNL     1      -0.253   2.016  22.408  0.00  0.00    +0.149 HD
BRANCH  14  16
ATOM     16  C   UNL     1       1.288   0.048  22.243  0.00  0.00    +0.130 C 
BRANCH  16  19
ATOM     19  C   UNL     1       2.699  -0.076  22.753  0.00  0.00    -0.038 A 
ATOM     20  C   UNL     1       3.120  -1.257  23.364  0.00  0.00    +0.007 A 
ATOM     21  C   UNL     1       3.587   0.991  22.614  0.00  0.00    +0.007 A 
ATOM     22  C   UNL     1       4.427  -1.372  23.836  0.00  0.00    +0.046 A 
ATOM     23  C   UNL     1       4.895   0.876  23.086  0.00  0.00    +0.046 A 
ATOM     24  C   UNL     1       5.315  -0.304  23.697  0.00  0.00    +0.120 A 
BRANCH  24   4
ATOM      4  O   UNL     1       6.591  -0.417  24.155  0.00  0.00    -0.495 OA
ATOM     25  C   UNL     1       7.637  -0.345  23.188  0.00  0.00    +0.277 C 
ENDBRANCH  24   4
ENDBRANCH  16  19
ENDBRANCH  14  16
ENDBRANCH   8   5
BRANCH   9   1
ATOM      1  O   UNL     1      -0.635   3.974  24.972  0.00  0.00    -0.387 OA
ATOM     27  H   UNL     1      -0.275   3.297  25.570  0.00  0.00    +0.210 HD
ENDBRANCH   9   1
BRANCH  11   2
ATOM      2  O   UNL     1      -3.005   3.274  26.170  0.00  0.00    -0.389 OA
ATOM     28  H   UNL     1      -3.831   3.632  26.539  0.00  0.00    +0.210 HD
ENDBRANCH  11   2
TORSDOF 7
ENDMDL
MODEL 3
REMARK VINA RESULT:      -1.6      2.369      6.702
REMARK  Name = 75536071
REMARK  8 active torsions:
REMARK  status: ('A' for Active; 'I' for Inactive)
REMARK    1  A    between atoms: O_1  and  C_9
REMARK    2  A    between atoms: O_2  and  C_11
REMARK    3  A    between atoms: O_4  and  C_24
REMARK    4  A    between atoms: O_4  and  C_25
REMARK    5  A    between atoms: N_5  and  C_8
REMARK    6  A    between atoms: C_7  and  C_12
REMARK    7  A    between atoms: C_14  and  C_16
REMARK    8  A    between atoms: C_16  and  C_19
REMARK                            x       y       z     vdW  Elec       q    Type
REMARK                         _______ _______ _______ _____ _____    ______ ____
ROOT
ATOM      7  C   UNL     1      -0.085  -0.219  23.567  0.00  0.00    +0.046 C 
ATOM      8  C   UNL     1      -0.221   0.362  24.992  0.00  0.00    +0.111 C 
ATOM      9  C   UNL     1      -1.159  -0.624  25.689  0.00  0.00    +0.164 C 
ATOM     10  C   UNL     1      -0.424  -1.727  23.690  0.00  0.00    +0.044 C 
ATOM     11  C   UNL     1      -0.683  -1.977  25.175  0.00  0.00    +0.145 C 
ENDROOT
BRANCH   7  12
ATOM      6  N   UNL     1       2.765  -0.199  21.064  0.00  0.00    -0.263 NA
ATOM     12  C   UNL     1       1.262   0.068  22.938  0.00  0.00    -0.024 A 
ATOM     13  C   UNL     1       2.217   0.828  23.605  0.00  0.00    +0.007 A 
ATOM     15  C   UNL     1       1.582  -0.417  21.680  0.00  0.00    +0.114 A 
ATOM     17  C   UNL     1       3.445   1.075  23.003  0.00  0.00    +0.020 A 
ATOM     18  C   UNL     1       3.669   0.544  21.743  0.00  0.00    +0.111 A 
ENDBRANCH   7  12
BRANCH   8   5
ATOM      3  O   UNL     1       0.925   2.689  26.240  0.00  0.00    -0.275 OA
ATOM      5  N   UNL     1      -0.759   1.699  24.982  0.00  0.00    -0.309 N 
ATOM     14  C   UNL     1      -0.131   2.765  25.616  0.00  0.00    +0.218 C 
ATOM     26  H   UNL     1      -1.598   1.867  24.436  0.00  0.00    +0.149 HD
BRANCH  14  16
ATOM     16  C   UNL     1      -0.909   4.055  25.441  0.00  0.00    +0.130 C 
BRANCH  16  19
ATOM     19  C   UNL     1      -2.398   3.847  25.363  0.00  0.00    -0.038 A 
ATOM     20  C   UNL     1      -2.989   3.481  24.154  0.00  0.00    +0.007 A 
ATOM     21  C   UNL     1      -3.186   4.022  26.501  0.00  0.00    +0.007 A 
ATOM     22  C   UNL     1      -4.369   3.289  24.082  0.00  0.00    +0.046 A 
ATOM     23  C   UNL     1      -4.566   3.829  26.429  0.00  0.00    +0.046 A 
ATOM     24  C   UNL     1      -5.158   3.463  25.220  0.00  0.00    +0.120 A 
BRANCH  24   4
ATOM      4  O   UNL     1      -6.503   3.274  25.150  0.00  0.00    -0.495 OA
ATOM     25  C   UNL     1      -6.959   1.952  24.869  0.00  0.00    +0.277 C 
ENDBRANCH  24   4
ENDBRANCH  16  19
ENDBRANCH  14  16
ENDBRANCH   8   5
BRANCH   9   1
ATOM      1  O   UNL     1      -1.063  -0.550  27.099  0.00  0.00    -0.387 OA
ATOM     27  H   UNL     1      -0.744   0.341  27.324  0.00  0.00    +0.210 HD
ENDBRANCH   9   1
BRANCH  11   2
ATOM      2  O   UNL     1       0.543  -2.356  25.794  0.00  0.00    -0.389 OA
ATOM     28  H   UNL     1       1.185  -1.644  25.632  0.00  0.00    +0.210 HD
ENDBRANCH  11   2
TORSDOF 7
ENDMDL
MODEL 4
REMARK VINA RESULT:      -1.4      2.164      5.414
REMARK  Name = 75536071
REMARK  8 active torsions:
REMARK  status: ('A' for Active; 'I' for Inactive)
REMARK    1  A    between atoms: O_1  and  C_9
REMARK    2  A    between atoms: O_2  and  C_11
REMARK    3  A    between atoms: O_4  and  C_24
REMARK    4  A    between atoms: O_4  and  C_25
REMARK    5  A    between atoms: N_5  and  C_8
REMARK    6  A    between atoms: C_7  and  C_12
REMARK    7  A    between atoms: C_14  and  C_16
REMARK    8  A    between atoms: C_16  and  C_19
REMARK                            x       y       z     vdW  Elec       q    Type
REMARK                         _______ _______ _______ _____ _____    ______ ____
ROOT
ATOM      7  C   UNL     1      -0.733   2.498  25.165  0.00  0.00    +0.046 C 
ATOM      8  C   UNL     1      -2.008   2.958  24.423  0.00  0.00    +0.111 C 
ATOM      9  C   UNL     1      -2.279   4.343  25.011  0.00  0.00    +0.164 C 
ATOM     10  C   UNL     1      -0.035   3.794  25.651  0.00  0.00    +0.044 C 
ATOM     11  C   UNL     1      -0.887   4.948  25.127  0.00  0.00    +0.145 C 
ENDROOT
BRANCH   7  12
ATOM      6  N   UNL     1       2.256   1.217  23.212  0.00  0.00    -0.263 NA
ATOM     12  C   UNL     1       0.144   1.592  24.326  0.00  0.00    -0.024 A 
ATOM     13  C   UNL     1      -0.311   0.349  23.900  0.00  0.00    +0.007 A 
ATOM     15  C   UNL     1       1.424   1.976  23.959  0.00  0.00    +0.114 A 
ATOM     17  C   UNL     1       0.517  -0.461  23.130  0.00  0.00    +0.020 A 
ATOM     18  C   UNL     1       1.780   0.014  22.816  0.00  0.00    +0.111 A 
ENDBRANCH   7  12
BRANCH   8   5
ATOM      3  O   UNL     1      -4.424   3.512  25.888  0.00  0.00    -0.275 OA
ATOM      5  N   UNL     1      -3.113   2.058  24.637  0.00  0.00    -0.309 N 
ATOM     14  C   UNL     1      -4.244   2.416  25.362  0.00  0.00    +0.218 C 
ATOM     26  H   UNL     1      -3.078   1.150  24.184  0.00  0.00    +0.149 HD
BRANCH  14  16
ATOM     16  C   UNL     1      -5.249   1.283  25.425  0.00  0.00    +0.130 C 
BRANCH  16  19
ATOM     19  C   UNL     1      -4.651  -0.063  25.114  0.00  0.00    -0.038 A 
ATOM     20  C   UNL     1      -3.815  -0.686  26.041  0.00  0.00    +0.007 A 
ATOM     21  C   UNL     1      -4.932  -0.687  23.898  0.00  0.00    +0.007 A 
ATOM     22  C   UNL     1      -3.260  -1.933  25.753  0.00  0.00    +0.046 A 
ATOM     23  C   UNL     1      -4.377  -1.934  23.610  0.00  0.00    +0.046 A 
ATOM     24  C   UNL     1      -3.542  -2.557  24.537  0.00  0.00    +0.120 A 
BRANCH  24   4
ATOM      4  O   UNL     1      -3.002  -3.775  24.256  0.00  0.00    -0.495 OA
ATOM     25  C   UNL     1      -1.809  -3.791  23.475  0.00  0.00    +0.277 C 
ENDBRANCH  24   4
ENDBRANCH  16  19
ENDBRANCH  14  16
ENDBRANCH   8   5
BRANCH   9   1
ATOM      1  O   UNL     1      -3.110   5.127  24.174  0.00  0.00    -0.387 OA
ATOM     27  H   UNL     1      -2.532   5.608  23.558  0.00  0.00    +0.210 HD
ENDBRANCH   9   1
BRANCH  11   2
ATOM      2  O   UNL     1      -0.391   5.339  23.850  0.00  0.00    -0.389 OA
ATOM     28  H   UNL     1      -1.063   5.098  23.189  0.00  0.00    +0.210 HD
ENDBRANCH  11   2
TORSDOF 7
ENDMDL
MODEL 5
REMARK VINA RESULT:      -0.5      1.700      6.039
REMARK  Name = 75536071
REMARK  8 active torsions:
REMARK  status: ('A' for Active; 'I' for Inactive)
REMARK    1  A    between atoms: O_1  and  C_9
REMARK    2  A    between atoms: O_2  and  C_11
REMARK    3  A    between atoms: O_4  and  C_24
REMARK    4  A    between atoms: O_4  and  C_25
REMARK    5  A    between atoms: N_5  and  C_8
REMARK    6  A    between atoms: C_7  and  C_12
REMARK    7  A    between atoms: C_14  and  C_16
REMARK    8  A    between atoms: C_16  and  C_19
REMARK                            x       y       z     vdW  Elec       q    Type
REMARK                         _______ _______ _______ _____ _____    ______ ____
ROOT
ATOM      7  C   UNL     1      -0.695  -0.343  24.817  0.00  0.00    +0.046 C 
ATOM      8  C   UNL     1      -0.381   0.886  23.934  0.00  0.00    +0.111 C 
ATOM      9  C   UNL     1       1.145   0.884  23.854  0.00  0.00    +0.164 C 
ATOM     10  C   UNL     1       0.536  -1.277  24.695  0.00  0.00    +0.044 C 
ATOM     11  C   UNL     1       1.482  -0.594  23.710  0.00  0.00    +0.145 C 
ENDROOT
BRANCH   7  12
ATOM      6  N   UNL     1      -3.271  -3.026  24.071  0.00  0.00    -0.263 NA
ATOM     12  C   UNL     1      -2.014  -1.000  24.469  0.00  0.00    -0.024 A 
ATOM     13  C   UNL     1      -3.153  -0.238  24.230  0.00  0.00    +0.007 A 
ATOM     15  C   UNL     1      -2.125  -2.378  24.378  0.00  0.00    +0.114 A 
ATOM     17  C   UNL     1      -4.350  -0.869  23.912  0.00  0.00    +0.020 A 
ATOM     18  C   UNL     1      -4.357  -2.253  23.845  0.00  0.00    +0.111 A 
ENDBRANCH   7  12
BRANCH   8   5
ATOM      3  O   UNL     1       0.581   3.552  23.436  0.00  0.00    -0.275 OA
ATOM      5  N   UNL     1      -0.888   2.107  24.507  0.00  0.00    -0.309 N 
ATOM     14  C   UNL     1      -0.356   3.356  24.205  0.00  0.00    +0.218 C 
ATOM     26  H   UNL     1      -1.706   2.044  25.107  0.00  0.00    +0.149 HD
BRANCH  14  16
ATOM     16  C   UNL     1      -1.082   4.465  24.941  0.00  0.00    +0.130 C 
BRANCH  16  19
ATOM     19  C   UNL     1      -2.511   4.126  25.271  0.00  0.00    -0.038 A 
ATOM     20  C   UNL     1      -2.968   4.227  26.584  0.00  0.00    +0.007 A 
ATOM     21  C   UNL     1      -3.380   3.711  24.260  0.00  0.00    +0.007 A 
ATOM     22  C   UNL     1      -4.292   3.913  26.889  0.00  0.00    +0.046 A 
ATOM     23  C   UNL     1      -4.704   3.397  24.565  0.00  0.00    +0.046 A 
ATOM     24  C   UNL     1      -5.161   3.498  25.879  0.00  0.00    +0.120 A 
BRANCH  24   4
ATOM      4  O   UNL     1      -6.453   3.193  26.176  0.00  0.00    -0.495 OA
ATOM     25  C   UNL     1      -6.732   1.847  26.555  0.00  0.00    +0.277 C 
ENDBRANCH  24   4
ENDBRANCH  16  19
ENDBRANCH  14  16
ENDBRANCH   8   5
BRANCH   9   1
ATOM      1  O   UNL     1       1.624   1.629  22.749  0.00  0.00    -0.387 OA
ATOM     27  H   UNL     1       1.655   1.029  21.984  0.00  0.00    +0.210 HD
ENDBRANCH   9   1
BRANCH  11   2
ATOM      2  O   UNL     1       1.188  -1.060  22.396  0.00  0.00    -0.389 OA
ATOM     28  H   UNL     1       0.825  -0.310  21.894  0.00  0.00    +0.210 HD
ENDBRANCH  11   2
TORSDOF 7
ENDMDL
MODEL 6
REMARK VINA RESULT:      -0.2      2.352      4.513
REMARK  Name = 75536071
REMARK  8 active torsions:
REMARK  status: ('A' for Active; 'I' for Inactive)
REMARK    1  A    between atoms: O_1  and  C_9
REMARK    2  A    between atoms: O_2  and  C_11
REMARK    3  A    between atoms: O_4  and  C_24
REMARK    4  A    between atoms: O_4  and  C_25
REMARK    5  A    between atoms: N_5  and  C_8
REMARK    6  A    between atoms: C_7  and  C_12
REMARK    7  A    between atoms: C_14  and  C_16
REMARK    8  A    between atoms: C_16  and  C_19
REMARK                            x       y       z     vdW  Elec       q    Type
REMARK                         _______ _______ _______ _____ _____    ______ ____
ROOT
ATOM      7  C   UNL     1      -1.803   1.091  25.166  0.00  0.00    +0.046 C 
ATOM      8  C   UNL     1      -2.211   0.539  23.782  0.00  0.00    +0.111 C 
ATOM      9  C   UNL     1      -2.902  -0.783  24.117  0.00  0.00    +0.164 C 
ATOM     10  C   UNL     1      -2.754   0.417  26.188  0.00  0.00    +0.044 C 
ATOM     11  C   UNL     1      -3.709  -0.445  25.364  0.00  0.00    +0.145 C 
ENDROOT
BRANCH   7  12
ATOM      6  N   UNL     1      -0.611   4.680  24.872  0.00  0.00    -0.263 NA
ATOM     12  C   UNL     1      -1.799   2.604  25.221  0.00  0.00    -0.024 A 
ATOM     13  C   UNL     1      -2.919   3.308  25.651  0.00  0.00    +0.007 A 
ATOM     15  C   UNL     1      -0.681   3.330  24.846  0.00  0.00    +0.114 A 
ATOM     17  C   UNL     1      -2.886   4.697  25.691  0.00  0.00    +0.020 A 
ATOM     18  C   UNL     1      -1.719   5.331  25.295  0.00  0.00    +0.111 A 
ENDBRANCH   7  12
BRANCH   8   5
ATOM      3  O   UNL     1       0.331  -0.599  24.510  0.00  0.00    -0.275 OA
ATOM      5  N   UNL     1      -1.073   0.346  22.919  0.00  0.00    -0.309 N 
ATOM     14  C   UNL     1       0.119  -0.214  23.363  0.00  0.00    +0.218 C 
ATOM     26  H   UNL     1      -1.180   0.578  21.936  0.00  0.00    +0.149 HD
BRANCH  14  16
ATOM     16  C   UNL     1       1.143  -0.304  22.248  0.00  0.00    +0.130 C 
BRANCH  16  19
ATOM     19  C   UNL     1       2.565  -0.266  22.740  0.00  0.00    -0.038 A 
ATOM     20  C   UNL     1       3.106  -1.370  23.398  0.00  0.00    +0.007 A 
ATOM     21  C   UNL     1       3.343   0.875  22.539  0.00  0.00    +0.007 A 
ATOM     22  C   UNL     1       4.424  -1.335  23.854  0.00  0.00    +0.046 A 
ATOM     23  C   UNL     1       4.660   0.911  22.995  0.00  0.00    +0.046 A 
ATOM     24  C   UNL     1       5.201  -0.194  23.652  0.00  0.00    +0.120 A 
BRANCH  24   4
ATOM      4  O   UNL     1       6.487  -0.159  24.095  0.00  0.00    -0.495 OA
ATOM     25  C   UNL     1       7.515  -0.327  23.120  0.00  0.00    +0.277 C 
ENDBRANCH  24   4
ENDBRANCH  16  19
ENDBRANCH  14  16
ENDBRANCH   8   5
BRANCH   9   1
ATOM      1  O   UNL     1      -3.743  -1.229  23.069  0.00  0.00    -0.387 OA
ATOM     27  H   UNL     1      -4.662  -1.123  23.367  0.00  0.00    +0.210 HD
ENDBRANCH   9   1
BRANCH  11   2
ATOM      2  O   UNL     1      -4.857   0.331  25.035  0.00  0.00    -0.389 OA
ATOM     28  H   UNL     1      -5.077   0.872  25.813  0.00  0.00    +0.210 HD
ENDBRANCH  11   2
TORSDOF 7
ENDMDL
MODEL 7
REMARK VINA RESULT:      -0.1      1.901      4.461
REMARK  Name = 75536071
REMARK  8 active torsions:
REMARK  status: ('A' for Active; 'I' for Inactive)
REMARK    1  A    between atoms: O_1  and  C_9
REMARK    2  A    between atoms: O_2  and  C_11
REMARK    3  A    between atoms: O_4  and  C_24
REMARK    4  A    between atoms: O_4  and  C_25
REMARK    5  A    between atoms: N_5  and  C_8
REMARK    6  A    between atoms: C_7  and  C_12
REMARK    7  A    between atoms: C_14  and  C_16
REMARK    8  A    between atoms: C_16  and  C_19
REMARK                            x       y       z     vdW  Elec       q    Type
REMARK                         _______ _______ _______ _____ _____    ______ ____
ROOT
ATOM      7  C   UNL     1      -3.598   2.863  25.932  0.00  0.00    +0.046 C 
ATOM      8  C   UNL     1      -4.420   2.206  24.800  0.00  0.00    +0.111 C 
ATOM      9  C   UNL     1      -5.815   2.067  25.411  0.00  0.00    +0.164 C 
ATOM     10  C   UNL     1      -4.627   3.582  26.840  0.00  0.00    +0.044 C 
ATOM     11  C   UNL     1      -5.987   3.371  26.178  0.00  0.00    +0.145 C 
ENDROOT
BRANCH   7  12
ATOM      6  N   UNL     1      -0.296   3.960  24.419  0.00  0.00    -0.263 NA
ATOM     12  C   UNL     1      -2.490   3.756  25.415  0.00  0.00    -0.024 A 
ATOM     13  C   UNL     1      -2.613   5.141  25.446  0.00  0.00    +0.007 A 
ATOM     15  C   UNL     1      -1.323   3.220  24.896  0.00  0.00    +0.114 A 
ATOM     17  C   UNL     1      -1.578   5.936  24.965  0.00  0.00    +0.020 A 
ATOM     18  C   UNL     1      -0.451   5.303  24.466  0.00  0.00    +0.111 A 
ENDBRANCH   7  12
BRANCH   8   5
ATOM      3  O   UNL     1      -4.690  -0.290  26.209  0.00  0.00    -0.275 OA
ATOM      5  N   UNL     1      -3.877   0.930  24.408  0.00  0.00    -0.309 N 
ATOM     14  C   UNL     1      -4.060  -0.227  25.156  0.00  0.00    +0.218 C 
ATOM     26  H   UNL     1      -3.394   0.876  23.516  0.00  0.00    +0.149 HD
BRANCH  14  16
ATOM     16  C   UNL     1      -3.388  -1.423  24.510  0.00  0.00    +0.130 C 
BRANCH  16  19
ATOM     19  C   UNL     1      -1.919  -1.215  24.254  0.00  0.00    -0.038 A 
ATOM     20  C   UNL     1      -0.984  -2.096  24.796  0.00  0.00    +0.007 A 
ATOM     21  C   UNL     1      -1.493  -0.139  23.474  0.00  0.00    +0.007 A 
ATOM     22  C   UNL     1       0.377  -1.903  24.558  0.00  0.00    +0.046 A 
ATOM     23  C   UNL     1      -0.132   0.054  23.237  0.00  0.00    +0.046 A 
ATOM     24  C   UNL     1       0.803  -0.827  23.779  0.00  0.00    +0.120 A 
BRANCH  24   4
ATOM      4  O   UNL     1       2.130  -0.639  23.545  0.00  0.00    -0.495 OA
ATOM     25  C   UNL     1       2.486   0.113  22.387  0.00  0.00    +0.277 C 
ENDBRANCH  24   4
ENDBRANCH  16  19
ENDBRANCH  14  16
ENDBRANCH   8   5
BRANCH   9   1
ATOM      1  O   UNL     1      -6.819   1.917  24.424  0.00  0.00    -0.387 OA
ATOM     27  H   UNL     1      -6.601   2.519  23.692  0.00  0.00    +0.210 HD
ENDBRANCH   9   1
BRANCH  11   2
ATOM      2  O   UNL     1      -6.237   4.457  25.291  0.00  0.00    -0.389 OA
ATOM     28  H   UNL     1      -5.840   4.231  24.432  0.00  0.00    +0.210 HD
ENDBRANCH  11   2
TORSDOF 7
ENDMDL
MODEL 8
REMARK VINA RESULT:      -0.1      2.421      4.327
REMARK  Name = 75536071
REMARK  8 active torsions:
REMARK  status: ('A' for Active; 'I' for Inactive)
REMARK    1  A    between atoms: O_1  and  C_9
REMARK    2  A    between atoms: O_2  and  C_11
REMARK    3  A    between atoms: O_4  and  C_24
REMARK    4  A    between atoms: O_4  and  C_25
REMARK    5  A    between atoms: N_5  and  C_8
REMARK    6  A    between atoms: C_7  and  C_12
REMARK    7  A    between atoms: C_14  and  C_16
REMARK    8  A    between atoms: C_16  and  C_19
REMARK                            x       y       z     vdW  Elec       q    Type
REMARK                         _______ _______ _______ _____ _____    ______ ____
ROOT
ATOM      7  C   UNL     1      -1.917   0.140  25.165  0.00  0.00    +0.046 C 
ATOM      8  C   UNL     1      -1.906  -0.830  23.962  0.00  0.00    +0.111 C 
ATOM      9  C   UNL     1      -1.824  -2.208  24.618  0.00  0.00    +0.164 C 
ATOM     10  C   UNL     1      -2.429  -0.688  26.371  0.00  0.00    +0.044 C 
ATOM     11  C   UNL     1      -2.751  -2.075  25.819  0.00  0.00    +0.145 C 
ENDROOT
BRANCH   7  12
ATOM      6  N   UNL     1      -2.746   3.817  24.740  0.00  0.00    -0.263 NA
ATOM     12  C   UNL     1      -2.704   1.406  24.898  0.00  0.00    -0.024 A 
ATOM     13  C   UNL     1      -4.056   1.353  24.575  0.00  0.00    +0.007 A 
ATOM     15  C   UNL     1      -2.101   2.651  24.966  0.00  0.00    +0.114 A 
ATOM     17  C   UNL     1      -4.753   2.532  24.335  0.00  0.00    +0.020 A 
ATOM     18  C   UNL     1      -4.059   3.728  24.429  0.00  0.00    +0.111 A 
ENDBRANCH   7  12
BRANCH   8   5
ATOM      3  O   UNL     1       0.489   0.643  24.580  0.00  0.00    -0.275 OA
ATOM      5  N   UNL     1      -0.792  -0.586  23.081  0.00  0.00    -0.309 N 
ATOM     14  C   UNL     1       0.328   0.140  23.471  0.00  0.00    +0.218 C 
ATOM     26  H   UNL     1      -0.811  -1.019  22.163  0.00  0.00    +0.149 HD
BRANCH  14  16
ATOM     16  C   UNL     1       1.348   0.237  22.352  0.00  0.00    +0.130 C 
BRANCH  16  19
ATOM     19  C   UNL     1       2.765   0.042  22.819  0.00  0.00    -0.038 A 
ATOM     20  C   UNL     1       3.692   1.076  22.688  0.00  0.00    +0.007 A 
ATOM     21  C   UNL     1       3.152  -1.174  23.383  0.00  0.00    +0.007 A 
ATOM     22  C   UNL     1       5.006   0.895  23.120  0.00  0.00    +0.046 A 
ATOM     23  C   UNL     1       4.466  -1.355  23.816  0.00  0.00    +0.046 A 
ATOM     24  C   UNL     1       5.393  -0.321  23.685  0.00  0.00    +0.120 A 
BRANCH  24   4
ATOM      4  O   UNL     1       6.674  -0.497  24.108  0.00  0.00    -0.495 OA
ATOM     25  C   UNL     1       7.701  -0.419  23.121  0.00  0.00    +0.277 C 
ENDBRANCH  24   4
ENDBRANCH  16  19
ENDBRANCH  14  16
ENDBRANCH   8   5
BRANCH   9   1
ATOM      1  O   UNL     1      -2.254  -3.241  23.751  0.00  0.00    -0.387 OA
ATOM     27  H   UNL     1      -1.503  -3.844  23.620  0.00  0.00    +0.210 HD
ENDBRANCH   9   1
BRANCH  11   2
ATOM      2  O   UNL     1      -4.117  -2.100  25.415  0.00  0.00    -0.389 OA
ATOM     28  H   UNL     1      -4.366  -1.192  25.169  0.00  0.00    +0.210 HD
ENDBRANCH  11   2
TORSDOF 7
ENDMDL
MODEL 9
REMARK VINA RESULT:       0.3      2.577      4.653
REMARK  Name = 75536071
REMARK  8 active torsions:
REMARK  status: ('A' for Active; 'I' for Inactive)
REMARK    1  A    between atoms: O_1  and  C_9
REMARK    2  A    between atoms: O_2  and  C_11
REMARK    3  A    between atoms: O_4  and  C_24
REMARK    4  A    between atoms: O_4  and  C_25
REMARK    5  A    between atoms: N_5  and  C_8
REMARK    6  A    between atoms: C_7  and  C_12
REMARK    7  A    between atoms: C_14  and  C_16
REMARK    8  A    between atoms: C_16  and  C_19
REMARK                            x       y       z     vdW  Elec       q    Type
REMARK                         _______ _______ _______ _____ _____    ______ ____
ROOT
ATOM      7  C   UNL     1      -3.226   3.508  24.036  0.00  0.00    +0.046 C 
ATOM      8  C   UNL     1      -1.902   3.397  24.825  0.00  0.00    +0.111 C 
ATOM      9  C   UNL     1      -1.089   4.590  24.322  0.00  0.00    +0.164 C 
ATOM     10  C   UNL     1      -3.344   4.994  23.613  0.00  0.00    +0.044 C 
ATOM     11  C   UNL     1      -2.130   5.697  24.216  0.00  0.00    +0.145 C 
ENDROOT
BRANCH   7  12
ATOM      6  N   UNL     1      -6.321   3.431  26.229  0.00  0.00    -0.263 NA
ATOM     12  C   UNL     1      -4.419   2.981  24.806  0.00  0.00    -0.024 A 
ATOM     13  C   UNL     1      -4.722   1.624  24.817  0.00  0.00    +0.007 A 
ATOM     15  C   UNL     1      -5.243   3.835  25.521  0.00  0.00    +0.114 A 
ATOM     17  C   UNL     1      -5.823   1.169  25.534  0.00  0.00    +0.020 A 
ATOM     18  C   UNL     1      -6.584   2.104  26.217  0.00  0.00    +0.111 A 
ENDBRANCH   7  12
BRANCH   8   5
ATOM      3  O   UNL     1       0.513   2.465  26.083  0.00  0.00    -0.275 OA
ATOM      5  N   UNL     1      -1.229   2.147  24.580  0.00  0.00    -0.309 N 
ATOM     14  C   UNL     1      -0.061   1.781  25.239  0.00  0.00    +0.218 C 
ATOM     26  H   UNL     1      -1.669   1.490  23.942  0.00  0.00    +0.149 HD
BRANCH  14  16
ATOM     16  C   UNL     1       0.427   0.416  24.794  0.00  0.00    +0.130 C 
BRANCH  16  19
ATOM     19  C   UNL     1      -0.664  -0.621  24.746  0.00  0.00    -0.038 A 
ATOM     20  C   UNL     1      -1.765  -0.516  25.594  0.00  0.00    +0.007 A 
ATOM     21  C   UNL     1      -0.572  -1.687  23.851  0.00  0.00    +0.007 A 
ATOM     22  C   UNL     1      -2.776  -1.476  25.549  0.00  0.00    +0.046 A 
ATOM     23  C   UNL     1      -1.582  -2.648  23.805  0.00  0.00    +0.046 A 
ATOM     24  C   UNL     1      -2.684  -2.543  24.654  0.00  0.00    +0.120 A 
BRANCH  24   4
ATOM      4  O   UNL     1      -3.670  -3.479  24.608  0.00  0.00    -0.495 OA
ATOM     25  C   UNL     1      -4.651  -3.340  23.581  0.00  0.00    +0.277 C 
ENDBRANCH  24   4
ENDBRANCH  16  19
ENDBRANCH  14  16
ENDBRANCH   8   5
BRANCH   9   1
ATOM      1  O   UNL     1      -0.051   4.947  25.217  0.00  0.00    -0.387 OA
ATOM     27  H   UNL     1       0.775   4.571  24.869  0.00  0.00    +0.210 HD
ENDBRANCH   9   1
BRANCH  11   2
ATOM      2  O   UNL     1      -2.482   6.193  25.505  0.00  0.00    -0.389 OA
ATOM     28  H   UNL     1      -1.693   6.126  26.070  0.00  0.00    +0.210 HD
ENDBRANCH  11   2
TORSDOF 7
ENDMDL
MODEL 10
REMARK VINA RESULT:       0.5      2.458      6.146
REMARK  Name = 75536071
REMARK  8 active torsions:
REMARK  status: ('A' for Active; 'I' for Inactive)
REMARK    1  A    between atoms: O_1  and  C_9
REMARK    2  A    between atoms: O_2  and  C_11
REMARK    3  A    between atoms: O_4  and  C_24
REMARK    4  A    between atoms: O_4  and  C_25
REMARK    5  A    between atoms: N_5  and  C_8
REMARK    6  A    between atoms: C_7  and  C_12
REMARK    7  A    between atoms: C_14  and  C_16
REMARK    8  A    between atoms: C_16  and  C_19
REMARK                            x       y       z     vdW  Elec       q    Type
REMARK                         _______ _______ _______ _____ _____    ______ ____
ROOT
ATOM      7  C   UNL     1      -1.543  -0.910  23.648  0.00  0.00    +0.046 C 
ATOM      8  C   UNL     1      -2.250  -0.791  25.017  0.00  0.00    +0.111 C 
ATOM      9  C   UNL     1      -2.949  -2.142  25.173  0.00  0.00    +0.164 C 
ATOM     10  C   UNL     1      -1.370  -2.429  23.392  0.00  0.00    +0.044 C 
ATOM     11  C   UNL     1      -1.921  -3.127  24.633  0.00  0.00    +0.145 C 
ENDROOT
BRANCH   7  12
ATOM      6  N   UNL     1       0.993   1.854  24.216  0.00  0.00    -0.263 NA
ATOM     12  C   UNL     1      -0.256  -0.114  23.577  0.00  0.00    -0.024 A 
ATOM     13  C   UNL     1       0.831  -0.575  22.843  0.00  0.00    +0.007 A 
ATOM     15  C   UNL     1      -0.125   1.095  24.240  0.00  0.00    +0.114 A 
ATOM     17  C   UNL     1       1.999   0.177  22.795  0.00  0.00    +0.020 A 
ATOM     18  C   UNL     1       2.030   1.374  23.492  0.00  0.00    +0.111 A 
ENDBRANCH   7  12
BRANCH   8   5
ATOM      3  O   UNL     1      -5.028  -0.874  24.266  0.00  0.00    -0.275 OA
ATOM      5  N   UNL     1      -3.186   0.305  25.050  0.00  0.00    -0.309 N 
ATOM     14  C   UNL     1      -4.515   0.168  24.666  0.00  0.00    +0.218 C 
ATOM     26  H   UNL     1      -2.863   1.191  25.427  0.00  0.00    +0.149 HD
BRANCH  14  16
ATOM     16  C   UNL     1      -5.273   1.474  24.805  0.00  0.00    +0.130 C 
BRANCH  16  19
ATOM     19  C   UNL     1      -4.374   2.677  24.916  0.00  0.00    -0.038 A 
ATOM     20  C   UNL     1      -4.206   3.312  26.146  0.00  0.00    +0.007 A 
ATOM     21  C   UNL     1      -3.708   3.156  23.787  0.00  0.00    +0.007 A 
ATOM     22  C   UNL     1      -3.373   4.426  26.249  0.00  0.00    +0.046 A 
ATOM     23  C   UNL     1      -2.874   4.269  23.890  0.00  0.00    +0.046 A 
ATOM     24  C   UNL     1      -2.707   4.905  25.120  0.00  0.00    +0.120 A 
BRANCH  24   4
ATOM      4  O   UNL     1      -1.892   5.990  25.220  0.00  0.00    -0.495 OA
ATOM     25  C   UNL     1      -0.554   5.844  24.749  0.00  0.00    +0.277 C 
ENDBRANCH  24   4
ENDBRANCH  16  19
ENDBRANCH  14  16
ENDBRANCH   8   5
BRANCH   9   1
ATOM      1  O   UNL     1      -3.270  -2.426  26.523  0.00  0.00    -0.387 OA
ATOM     27  H   UNL     1      -4.029  -3.034  26.520  0.00  0.00    +0.210 HD
ENDBRANCH   9   1
BRANCH  11   2
ATOM      2  O   UNL     1      -0.857  -3.316  25.561  0.00  0.00    -0.389 OA
ATOM     28  H   UNL     1      -0.499  -4.210  25.418  0.00  0.00    +0.210 HD
ENDBRANCH  11   2
TORSDOF 7
ENDMDL
