MODEL 1
REMARK VINA RESULT:      -2.6      0.000      0.000
REMARK  Name = 71693635
REMARK  8 active torsions:
REMARK  status: ('A' for Active; 'I' for Inactive)
REMARK    1  A    between atoms: O_2  and  C_11
REMARK    2  A    between atoms: N_5  and  C_14
REMARK    3  A    between atoms: N_6  and  C_19
REMARK    4  A    between atoms: N_7  and  C_20
REMARK    5  A    between atoms: C_8  and  C_11
REMARK    6  A    between atoms: C_9  and  C_10
REMARK    7  A    between atoms: C_20  and  C_22
REMARK    8  A    between atoms: C_20  and  C_23
REMARK                            x       y       z     vdW  Elec       q    Type
REMARK                         _______ _______ _______ _____ _____    ______ ____
ROOT
ATOM     10  C   UNL     1      -3.876 -10.143  11.471  0.00  0.00    -0.017 A 
ATOM     15  C   UNL     1      -2.976 -10.525  12.467  0.00  0.00    +0.008 A 
ATOM     16  C   UNL     1      -3.454  -9.318  10.429  0.00  0.00    +0.008 A 
ATOM     17  C   UNL     1      -1.655 -10.081  12.419  0.00  0.00    +0.024 A 
ATOM     18  C   UNL     1      -2.132  -8.874  10.381  0.00  0.00    +0.024 A 
ATOM     19  C   UNL     1      -1.232  -9.256  11.377  0.00  0.00    +0.035 A 
ENDROOT
BRANCH  10   9
ATOM      1  O   UNL     1      -5.861 -10.167  12.758  0.00  0.00    -0.361 OA
ATOM      3  O   UNL     1      -9.330 -10.739  12.185  0.00  0.00    -0.273 OA
ATOM      5  N   UNL     1      -7.630 -10.386  10.630  0.00  0.00    -0.295 N 
ATOM      8  C   UNL     1      -6.199 -10.088  10.381  0.00  0.00    +0.134 C 
ATOM      9  C   UNL     1      -5.311 -10.624  11.521  0.00  0.00    +0.171 C 
ATOM     12  C   UNL     1      -7.103 -10.780  13.010  0.00  0.00    +0.256 C 
ATOM     13  C   UNL     1      -8.135 -10.613  11.912  0.00  0.00    +0.242 C 
ATOM     14  C   UNL     1      -8.573 -10.198   9.531  0.00  0.00    +0.132 C 
BRANCH   8  11
ATOM     11  C   UNL     1      -5.714 -10.619   9.025  0.00  0.00    +0.181 C 
BRANCH  11   2
ATOM      2  O   UNL     1      -5.588  -9.522   8.142  0.00  0.00    -0.393 OA
ATOM     24  H   UNL     1      -4.638  -9.352   8.028  0.00  0.00    +0.209 HD
ENDBRANCH  11   2
ENDBRANCH   8  11
ENDBRANCH  10   9
BRANCH  19   6
ATOM      4  O   UNL     1       0.153  -7.104  12.945  0.00  0.00    -0.253 OA
ATOM      6  N   UNL     1       0.090  -8.812  11.330  0.00  0.00    -0.269 N 
ATOM      7  N   UNL     1       2.048  -7.653  11.742  0.00  0.00    -0.297 N 
ATOM     21  C   UNL     1       0.700  -7.794  12.088  0.00  0.00    +0.304 C 
ATOM     25  H   UNL     1       0.690  -9.289  10.661  0.00  0.00    +0.156 HD
ATOM     26  H   UNL     1       2.408  -8.209  10.972  0.00  0.00    +0.151 HD
BRANCH   7  20
ATOM     20  C   UNL     1       2.924  -6.684  12.358  0.00  0.00    +0.068 C 
ATOM     22  C   UNL     1       4.374  -6.951  11.972  0.00  0.00    +0.027 C 
ATOM     23  C   UNL     1       2.502  -5.271  11.977  0.00  0.00    +0.027 C 
ENDBRANCH   7  20
ENDBRANCH  19   6
TORSDOF 5
ENDMDL
MODEL 2
REMARK VINA RESULT:      -1.1     16.072     16.943
REMARK  Name = 71693635
REMARK  8 active torsions:
REMARK  status: ('A' for Active; 'I' for Inactive)
REMARK    1  A    between atoms: O_2  and  C_11
REMARK    2  A    between atoms: N_5  and  C_14
REMARK    3  A    between atoms: N_6  and  C_19
REMARK    4  A    between atoms: N_7  and  C_20
REMARK    5  A    between atoms: C_8  and  C_11
REMARK    6  A    between atoms: C_9  and  C_10
REMARK    7  A    between atoms: C_20  and  C_22
REMARK    8  A    between atoms: C_20  and  C_23
REMARK                            x       y       z     vdW  Elec       q    Type
REMARK                         _______ _______ _______ _____ _____    ______ ____
ROOT
ATOM     10  C   UNL     1      -2.124   0.770  24.000  0.00  0.00    -0.017 A 
ATOM     15  C   UNL     1      -1.233   1.559  23.271  0.00  0.00    +0.008 A 
ATOM     16  C   UNL     1      -1.693  -0.434  24.556  0.00  0.00    +0.008 A 
ATOM     17  C   UNL     1       0.087   1.142  23.099  0.00  0.00    +0.024 A 
ATOM     18  C   UNL     1      -0.373  -0.851  24.385  0.00  0.00    +0.024 A 
ATOM     19  C   UNL     1       0.517  -0.062  23.655  0.00  0.00    +0.035 A 
ENDROOT
BRANCH  10   9
ATOM      1  O   UNL     1      -4.216   0.209  24.951  0.00  0.00    -0.361 OA
ATOM      3  O   UNL     1      -7.203   1.920  25.869  0.00  0.00    -0.273 OA
ATOM      5  N   UNL     1      -5.122   2.808  25.310  0.00  0.00    -0.295 N 
ATOM      8  C   UNL     1      -3.708   2.556  24.941  0.00  0.00    +0.134 C 
ATOM      9  C   UNL     1      -3.556   1.221  24.187  0.00  0.00    +0.171 C 
ATOM     12  C   UNL     1      -5.609   0.414  24.956  0.00  0.00    +0.256 C 
ATOM     13  C   UNL     1      -6.054   1.778  25.444  0.00  0.00    +0.242 C 
ATOM     14  C   UNL     1      -5.483   4.143  25.778  0.00  0.00    +0.132 C 
BRANCH   8  11
ATOM     11  C   UNL     1      -3.098   3.707  24.128  0.00  0.00    +0.181 C 
BRANCH  11   2
ATOM      2  O   UNL     1      -2.193   4.403  24.960  0.00  0.00    -0.393 OA
ATOM     24  H   UNL     1      -2.198   3.961  25.826  0.00  0.00    +0.209 HD
ENDBRANCH  11   2
ENDBRANCH   8  11
ENDBRANCH  10   9
BRANCH  19   6
ATOM      4  O   UNL     1       3.034   1.541  23.342  0.00  0.00    -0.253 OA
ATOM      6  N   UNL     1       1.838  -0.478  23.483  0.00  0.00    -0.269 N 
ATOM      7  N   UNL     1       4.131  -0.487  23.188  0.00  0.00    -0.297 N 
ATOM     21  C   UNL     1       2.995   0.313  23.339  0.00  0.00    +0.304 C 
ATOM     25  H   UNL     1       1.982  -1.485  23.460  0.00  0.00    +0.156 HD
ATOM     26  H   UNL     1       4.007  -1.493  23.122  0.00  0.00    +0.151 HD
BRANCH   7  20
ATOM     20  C   UNL     1       5.460   0.053  23.021  0.00  0.00    +0.068 C 
ATOM     22  C   UNL     1       5.889   0.816  24.268  0.00  0.00    +0.027 C 
ATOM     23  C   UNL     1       6.446  -1.059  22.688  0.00  0.00    +0.027 C 
ENDBRANCH   7  20
ENDBRANCH  19   6
TORSDOF 5
ENDMDL
MODEL 3
REMARK VINA RESULT:       0.3     15.930     17.098
REMARK  Name = 71693635
REMARK  8 active torsions:
REMARK  status: ('A' for Active; 'I' for Inactive)
REMARK    1  A    between atoms: O_2  and  C_11
REMARK    2  A    between atoms: N_5  and  C_14
REMARK    3  A    between atoms: N_6  and  C_19
REMARK    4  A    between atoms: N_7  and  C_20
REMARK    5  A    between atoms: C_8  and  C_11
REMARK    6  A    between atoms: C_9  and  C_10
REMARK    7  A    between atoms: C_20  and  C_22
REMARK    8  A    between atoms: C_20  and  C_23
REMARK                            x       y       z     vdW  Elec       q    Type
REMARK                         _______ _______ _______ _____ _____    ______ ____
ROOT
ATOM     10  C   UNL     1      -1.799   1.394  24.927  0.00  0.00    -0.017 A 
ATOM     15  C   UNL     1      -0.841   2.201  24.313  0.00  0.00    +0.008 A 
ATOM     16  C   UNL     1      -1.559   0.030  25.090  0.00  0.00    +0.008 A 
ATOM     17  C   UNL     1       0.357   1.643  23.864  0.00  0.00    +0.024 A 
ATOM     18  C   UNL     1      -0.362  -0.528  24.642  0.00  0.00    +0.024 A 
ATOM     19  C   UNL     1       0.596   0.279  24.027  0.00  0.00    +0.035 A 
ENDROOT
BRANCH  10   9
ATOM      1  O   UNL     1      -3.022   3.404  25.172  0.00  0.00    -0.361 OA
ATOM      3  O   UNL     1      -6.426   4.340  25.655  0.00  0.00    -0.273 OA
ATOM      5  N   UNL     1      -5.551   2.268  25.041  0.00  0.00    -0.295 N 
ATOM      8  C   UNL     1      -4.354   1.462  24.701  0.00  0.00    +0.134 C 
ATOM      9  C   UNL     1      -3.098   1.998  25.415  0.00  0.00    +0.171 C 
ATOM     12  C   UNL     1      -4.070   4.082  25.824  0.00  0.00    +0.256 C 
ATOM     13  C   UNL     1      -5.462   3.591  25.480  0.00  0.00    +0.242 C 
ATOM     14  C   UNL     1      -6.863   1.739  24.677  0.00  0.00    +0.132 C 
BRANCH   8  11
ATOM     11  C   UNL     1      -4.547  -0.032  24.997  0.00  0.00    +0.181 C 
BRANCH  11   2
ATOM      2  O   UNL     1      -4.345  -0.748  23.795  0.00  0.00    -0.393 OA
ATOM     24  H   UNL     1      -3.817  -0.182  23.207  0.00  0.00    +0.209 HD
ENDBRANCH  11   2
ENDBRANCH   8  11
ENDBRANCH  10   9
BRANCH  19   6
ATOM      4  O   UNL     1       3.292   1.533  23.624  0.00  0.00    -0.253 OA
ATOM      6  N   UNL     1       1.793  -0.279  23.578  0.00  0.00    -0.269 N 
ATOM      7  N   UNL     1       3.996  -0.557  22.932  0.00  0.00    -0.297 N 
ATOM     21  C   UNL     1       3.042   0.350  23.402  0.00  0.00    +0.304 C 
ATOM     25  H   UNL     1       1.758  -1.269  23.348  0.00  0.00    +0.156 HD
ATOM     26  H   UNL     1       3.693  -1.498  22.703  0.00  0.00    +0.151 HD
BRANCH   7  20
ATOM     20  C   UNL     1       5.367  -0.191  22.661  0.00  0.00    +0.068 C 
ATOM     22  C   UNL     1       5.853   0.847  23.665  0.00  0.00    +0.027 C 
ATOM     23  C   UNL     1       6.256  -1.427  22.670  0.00  0.00    +0.027 C 
ENDBRANCH   7  20
ENDBRANCH  19   6
TORSDOF 5
ENDMDL
