MODEL 1
REMARK VINA RESULT:      20.3      0.000      0.000
REMARK  Name = 11882967
REMARK  10 active torsions:
REMARK  status: ('A' for Active; 'I' for Inactive)
REMARK    1  A    between atoms: O_2  and  C_16
REMARK    2  A    between atoms: O_3  and  C_21
REMARK    3  A    between atoms: N_9  and  C_28
REMARK    4  A    between atoms: C_11  and  C_19
REMARK    5  A    between atoms: C_13  and  C_21
REMARK    6  A    between atoms: C_13  and  C_22
REMARK    7  A    between atoms: C_14  and  C_24
REMARK    8  A    between atoms: C_24  and  C_25
REMARK    9  A    between atoms: C_27  and  C_29
REMARK   10  A    between atoms: C_28  and  C_35
REMARK                            x       y       z     vdW  Elec       q    Type
REMARK                         _______ _______ _______ _____ _____    ______ ____
ROOT
ATOM      1  S   UNL     1       2.393  -1.372  22.440  0.00  0.00    -0.057 S 
ATOM      5  O   UNL     1       5.510   1.602  24.234  0.00  0.00    -0.275 OA
ATOM      8  N   UNL     1       2.714   0.598  24.086  0.00  0.00    -0.229 NA
ATOM     10  N   UNL     1       4.672  -0.161  22.902  0.00  0.00    -0.264 N 
ATOM     11  C   UNL     1      -1.110   0.639  24.581  0.00  0.00    -0.019 C 
ATOM     12  C   UNL     1      -1.237  -0.928  24.334  0.00  0.00    +0.011 C 
ATOM     13  C   UNL     1      -2.694  -1.530  24.292  0.00  0.00    +0.021 C 
ATOM     14  C   UNL     1       0.396   0.948  25.019  0.00  0.00    +0.054 C 
ATOM     15  C   UNL     1      -2.049   1.056  25.742  0.00  0.00    +0.010 C 
ATOM     16  C   UNL     1      -3.512  -0.976  25.494  0.00  0.00    +0.123 C 
ATOM     17  C   UNL     1      -0.333  -1.394  23.155  0.00  0.00    +0.049 C 
ATOM     18  C   UNL     1      -3.475   0.545  25.594  0.00  0.00    +0.032 C 
ATOM     19  C   UNL     1      -1.465   1.477  23.328  0.00  0.00    +0.012 C 
ATOM     20  C   UNL     1       1.377   0.247  24.114  0.00  0.00    +0.058 A 
ATOM     22  C   UNL     1      -2.611  -3.073  24.464  0.00  0.00    +0.016 C 
ATOM     23  C   UNL     1       1.033  -0.813  23.300  0.00  0.00    +0.015 A 
ATOM     26  C   UNL     1       3.343  -0.182  23.234  0.00  0.00    +0.165 A 
ATOM     27  C   UNL     1       5.654   0.708  23.408  0.00  0.00    +0.222 C 
ATOM     45  H   UNL     1       4.934  -0.836  22.190  0.00  0.00    +0.157 HD
ENDROOT
BRANCH  27  29
ATOM     29  C   UNL     1       7.001   0.429  22.813  0.00  0.00    +0.075 C 
ATOM     30  C   UNL     1       7.211  -1.082  22.679  0.00  0.00    +0.013 C 
ATOM     31  C   UNL     1       8.094   1.072  23.671  0.00  0.00    +0.013 C 
ATOM     32  C   UNL     1       8.609  -1.414  22.164  0.00  0.00    +0.001 C 
ATOM     33  C   UNL     1       9.489   0.734  23.153  0.00  0.00    +0.001 C 
ATOM     34  C   UNL     1       9.693  -0.773  23.024  0.00  0.00    +0.000 C 
ENDBRANCH  27  29
BRANCH  16   2
ATOM      2  O   UNL     1      -4.872  -1.399  25.414  0.00  0.00    -0.391 OA
ATOM     42  H   UNL     1      -4.946  -2.040  24.689  0.00  0.00    +0.210 HD
ENDBRANCH  16   2
BRANCH  13  21
ATOM     21  C   UNL     1      -3.446  -1.300  22.963  0.00  0.00    +0.165 C 
BRANCH  21   3
ATOM      3  O   UNL     1      -4.486  -2.249  22.885  0.00  0.00    -0.394 OA
ATOM     43  H   UNL     1      -4.368  -2.757  22.064  0.00  0.00    +0.209 HD
ENDBRANCH  21   3
ENDBRANCH  13  21
BRANCH  14  24
ATOM     24  C   UNL     1       0.727   2.440  25.156  0.00  0.00    +0.106 C 
BRANCH  24  25
ATOM      4  O   UNL     1      -0.867   3.114  26.847  0.00  0.00    -0.276 OA
ATOM      9  N   UNL     1      -0.951   4.088  24.738  0.00  0.00    -0.311 N 
ATOM     25  C   UNL     1      -0.440   3.231  25.700  0.00  0.00    +0.214 C 
ATOM     44  H   UNL     1      -0.491   4.162  23.835  0.00  0.00    +0.149 HD
BRANCH   9  28
ATOM     28  C   UNL     1      -2.074   4.965  24.977  0.00  0.00    +0.139 C 
BRANCH  28  35
ATOM      6  O   UNL     1      -5.917   2.698  27.090  0.00  0.00    -0.453 OA
ATOM      7  O   UNL     1      -6.831   2.017  24.967  0.00  0.00    -0.453 OA
ATOM     35  C   UNL     1      -3.346   4.175  24.937  0.00  0.00    -0.027 A 
ATOM     36  C   UNL     1      -3.987   3.843  26.130  0.00  0.00    +0.054 A 
ATOM     37  C   UNL     1      -3.874   3.782  23.698  0.00  0.00    +0.009 A 
ATOM     38  C   UNL     1      -5.156   3.114  26.042  0.00  0.00    +0.167 A 
ATOM     39  C   UNL     1      -5.060   3.043  23.637  0.00  0.00    +0.050 A 
ATOM     40  C   UNL     1      -5.678   2.726  24.830  0.00  0.00    +0.166 A 
ATOM     41  C   UNL     1      -6.977   2.004  26.401  0.00  0.00    +0.466 C 
ENDBRANCH  28  35
ENDBRANCH   9  28
ENDBRANCH  24  25
ENDBRANCH  14  24
TORSDOF 8
ENDMDL
MODEL 2
REMARK VINA RESULT:      20.4      2.650      5.067
REMARK  Name = 11882967
REMARK  10 active torsions:
REMARK  status: ('A' for Active; 'I' for Inactive)
REMARK    1  A    between atoms: O_2  and  C_16
REMARK    2  A    between atoms: O_3  and  C_21
REMARK    3  A    between atoms: N_9  and  C_28
REMARK    4  A    between atoms: C_11  and  C_19
REMARK    5  A    between atoms: C_13  and  C_21
REMARK    6  A    between atoms: C_13  and  C_22
REMARK    7  A    between atoms: C_14  and  C_24
REMARK    8  A    between atoms: C_24  and  C_25
REMARK    9  A    between atoms: C_27  and  C_29
REMARK   10  A    between atoms: C_28  and  C_35
REMARK                            x       y       z     vdW  Elec       q    Type
REMARK                         _______ _______ _______ _____ _____    ______ ____
ROOT
ATOM      1  S   UNL     1      -1.121  -0.890  23.891  0.00  0.00    -0.057 S 
ATOM      5  O   UNL     1       2.672   1.803  23.510  0.00  0.00    -0.275 OA
ATOM      8  N   UNL     1      -0.230   1.530  24.101  0.00  0.00    -0.229 NA
ATOM     10  N   UNL     1       1.362  -0.163  23.465  0.00  0.00    -0.264 N 
ATOM     11  C   UNL     1      -3.866   2.680  24.676  0.00  0.00    -0.019 C 
ATOM     12  C   UNL     1      -4.272   1.308  25.373  0.00  0.00    +0.011 C 
ATOM     13  C   UNL     1      -5.791   1.122  25.756  0.00  0.00    +0.021 C 
ATOM     14  C   UNL     1      -2.279   2.836  24.783  0.00  0.00    +0.054 C 
ATOM     15  C   UNL     1      -4.523   3.860  25.437  0.00  0.00    +0.010 C 
ATOM     16  C   UNL     1      -6.302   2.409  26.466  0.00  0.00    +0.123 C 
ATOM     17  C   UNL     1      -3.660   0.087  24.627  0.00  0.00    +0.049 C 
ATOM     18  C   UNL     1      -6.015   3.683  25.679  0.00  0.00    +0.032 C 
ATOM     19  C   UNL     1      -4.292   2.749  23.188  0.00  0.00    +0.012 C 
ATOM     20  C   UNL     1      -1.582   1.557  24.391  0.00  0.00    +0.058 A 
ATOM     22  C   UNL     1      -5.919  -0.047  26.772  0.00  0.00    +0.016 C 
ATOM     23  C   UNL     1      -2.216   0.333  24.346  0.00  0.00    +0.015 A 
ATOM     26  C   UNL     1       0.120   0.295  23.815  0.00  0.00    +0.165 A 
ATOM     27  C   UNL     1       2.537   0.597  23.335  0.00  0.00    +0.222 C 
ATOM     45  H   UNL     1       1.395  -1.157  23.253  0.00  0.00    +0.157 HD
ENDROOT
BRANCH  27  29
ATOM     29  C   UNL     1       3.707  -0.252  22.939  0.00  0.00    +0.075 C 
ATOM     30  C   UNL     1       3.792  -1.481  23.847  0.00  0.00    +0.013 C 
ATOM     31  C   UNL     1       4.994   0.575  22.992  0.00  0.00    +0.013 C 
ATOM     32  C   UNL     1       5.026  -2.326  23.539  0.00  0.00    +0.001 C 
ATOM     33  C   UNL     1       6.224  -0.275  22.686  0.00  0.00    +0.001 C 
ATOM     34  C   UNL     1       6.305  -1.497  23.597  0.00  0.00    +0.000 C 
ENDBRANCH  27  29
BRANCH  16   2
ATOM      2  O   UNL     1      -7.705   2.325  26.710  0.00  0.00    -0.391 OA
ATOM     42  H   UNL     1      -7.842   1.767  27.494  0.00  0.00    +0.210 HD
ENDBRANCH  16   2
BRANCH  13  21
ATOM     21  C   UNL     1      -6.709   0.746  24.572  0.00  0.00    +0.165 C 
BRANCH  21   3
ATOM      3  O   UNL     1      -7.510   1.867  24.273  0.00  0.00    -0.394 OA
ATOM     43  H   UNL     1      -7.155   2.285  23.470  0.00  0.00    +0.209 HD
ENDBRANCH  21   3
ENDBRANCH  13  21
BRANCH  14  24
ATOM     24  C   UNL     1      -1.704   4.042  24.027  0.00  0.00    +0.106 C 
BRANCH  24  25
ATOM      4  O   UNL     1       0.058   5.648  24.438  0.00  0.00    -0.276 OA
ATOM      9  N   UNL     1       0.155   3.557  25.447  0.00  0.00    -0.311 N 
ATOM     25  C   UNL     1      -0.413   4.532  24.641  0.00  0.00    +0.214 C 
ATOM     44  H   UNL     1      -0.340   2.684  25.605  0.00  0.00    +0.149 HD
BRANCH   9  28
ATOM     28  C   UNL     1       1.397   3.746  26.161  0.00  0.00    +0.139 C 
BRANCH  28  35
ATOM      6  O   UNL     1       3.204   1.937  30.384  0.00  0.00    -0.453 OA
ATOM      7  O   UNL     1       1.019   1.780  31.387  0.00  0.00    -0.453 OA
ATOM     35  C   UNL     1       1.258   3.224  27.558  0.00  0.00    -0.027 A 
ATOM     36  C   UNL     1       2.397   2.836  28.263  0.00  0.00    +0.054 A 
ATOM     37  C   UNL     1      -0.017   3.135  28.138  0.00  0.00    +0.009 A 
ATOM     38  C   UNL     1       2.219   2.362  29.547  0.00  0.00    +0.167 A 
ATOM     39  C   UNL     1      -0.169   2.650  29.440  0.00  0.00    +0.050 A 
ATOM     40  C   UNL     1       0.971   2.272  30.119  0.00  0.00    +0.166 A 
ATOM     41  C   UNL     1       2.435   1.570  31.549  0.00  0.00    +0.466 C 
ENDBRANCH  28  35
ENDBRANCH   9  28
ENDBRANCH  24  25
ENDBRANCH  14  24
TORSDOF 8
ENDMDL
MODEL 3
REMARK VINA RESULT:      20.5      2.390      5.700
REMARK  Name = 11882967
REMARK  10 active torsions:
REMARK  status: ('A' for Active; 'I' for Inactive)
REMARK    1  A    between atoms: O_2  and  C_16
REMARK    2  A    between atoms: O_3  and  C_21
REMARK    3  A    between atoms: N_9  and  C_28
REMARK    4  A    between atoms: C_11  and  C_19
REMARK    5  A    between atoms: C_13  and  C_21
REMARK    6  A    between atoms: C_13  and  C_22
REMARK    7  A    between atoms: C_14  and  C_24
REMARK    8  A    between atoms: C_24  and  C_25
REMARK    9  A    between atoms: C_27  and  C_29
REMARK   10  A    between atoms: C_28  and  C_35
REMARK                            x       y       z     vdW  Elec       q    Type
REMARK                         _______ _______ _______ _____ _____    ______ ____
ROOT
ATOM      1  S   UNL     1       0.320   1.922  25.695  0.00  0.00    -0.057 S 
ATOM      5  O   UNL     1       1.663   0.300  21.529  0.00  0.00    -0.275 OA
ATOM      8  N   UNL     1      -0.407   1.587  23.234  0.00  0.00    -0.229 NA
ATOM     10  N   UNL     1       1.803   0.831  23.828  0.00  0.00    -0.264 N 
ATOM     11  C   UNL     1      -3.913   2.839  24.236  0.00  0.00    -0.019 C 
ATOM     12  C   UNL     1      -3.335   3.790  25.372  0.00  0.00    +0.011 C 
ATOM     13  C   UNL     1      -4.384   4.540  26.281  0.00  0.00    +0.021 C 
ATOM     14  C   UNL     1      -2.739   2.547  23.191  0.00  0.00    +0.054 C 
ATOM     15  C   UNL     1      -5.061   3.565  23.488  0.00  0.00    +0.010 C 
ATOM     16  C   UNL     1      -5.485   5.170  25.379  0.00  0.00    +0.123 C 
ATOM     17  C   UNL     1      -2.197   3.094  26.174  0.00  0.00    +0.049 C 
ATOM     18  C   UNL     1      -6.110   4.173  24.409  0.00  0.00    +0.032 C 
ATOM     19  C   UNL     1      -4.454   1.497  24.791  0.00  0.00    +0.012 C 
ATOM     20  C   UNL     1      -1.462   2.180  23.903  0.00  0.00    +0.058 A 
ATOM     22  C   UNL     1      -3.672   5.707  27.022  0.00  0.00    +0.016 C 
ATOM     23  C   UNL     1      -1.233   2.451  25.236  0.00  0.00    +0.015 A 
ATOM     26  C   UNL     1       0.582   1.397  24.081  0.00  0.00    +0.165 A 
ATOM     27  C   UNL     1       2.262   0.327  22.598  0.00  0.00    +0.222 C 
ATOM     45  H   UNL     1       2.404   0.753  24.644  0.00  0.00    +0.157 HD
ENDROOT
BRANCH  27  29
ATOM     29  C   UNL     1       3.656  -0.215  22.706  0.00  0.00    +0.075 C 
ATOM     30  C   UNL     1       3.686  -1.389  23.688  0.00  0.00    +0.013 C 
ATOM     31  C   UNL     1       4.616   0.898  23.135  0.00  0.00    +0.013 C 
ATOM     32  C   UNL     1       5.104  -1.911  23.900  0.00  0.00    +0.001 C 
ATOM     33  C   UNL     1       6.032   0.370  23.348  0.00  0.00    +0.001 C 
ATOM     34  C   UNL     1       6.055  -0.799  24.329  0.00  0.00    +0.000 C 
ENDBRANCH  27  29
BRANCH  16   2
ATOM      2  O   UNL     1      -6.519   5.746  26.176  0.00  0.00    -0.391 OA
ATOM     42  H   UNL     1      -6.605   6.681  25.929  0.00  0.00    +0.210 HD
ENDBRANCH  16   2
BRANCH  13  21
ATOM     21  C   UNL     1      -5.013   3.668  27.389  0.00  0.00    +0.165 C 
BRANCH  21   3
ATOM      3  O   UNL     1      -6.027   2.886  26.799  0.00  0.00    -0.394 OA
ATOM     43  H   UNL     1      -6.488   2.405  27.508  0.00  0.00    +0.209 HD
ENDBRANCH  21   3
ENDBRANCH  13  21
BRANCH  14  24
ATOM     24  C   UNL     1      -3.091   1.523  22.105  0.00  0.00    +0.106 C 
BRANCH  24  25
ATOM      4  O   UNL     1      -2.138  -0.664  22.513  0.00  0.00    -0.276 OA
ATOM      9  N   UNL     1      -4.282  -0.188  23.272  0.00  0.00    -0.311 N 
ATOM     25  C   UNL     1      -3.086   0.108  22.638  0.00  0.00    +0.214 C 
ATOM     44  H   UNL     1      -4.986   0.536  23.382  0.00  0.00    +0.149 HD
BRANCH   9  28
ATOM     28  C   UNL     1      -4.560  -1.471  23.875  0.00  0.00    +0.139 C 
BRANCH  28  35
ATOM      6  O   UNL     1      -0.141  -1.426  26.075  0.00  0.00    -0.453 OA
ATOM      7  O   UNL     1       0.273  -3.741  25.552  0.00  0.00    -0.453 OA
ATOM     35  C   UNL     1      -3.277  -2.112  24.309  0.00  0.00    -0.027 A 
ATOM     36  C   UNL     1      -2.337  -1.359  25.011  0.00  0.00    +0.054 A 
ATOM     37  C   UNL     1      -3.041  -3.460  24.002  0.00  0.00    +0.009 A 
ATOM     38  C   UNL     1      -1.170  -1.992  25.389  0.00  0.00    +0.167 A 
ATOM     39  C   UNL     1      -1.851  -4.077  24.396  0.00  0.00    +0.050 A 
ATOM     40  C   UNL     1      -0.934  -3.315  25.090  0.00  0.00    +0.166 A 
ATOM     41  C   UNL     1       0.770  -2.540  26.175  0.00  0.00    +0.466 C 
ENDBRANCH  28  35
ENDBRANCH   9  28
ENDBRANCH  24  25
ENDBRANCH  14  24
TORSDOF 8
ENDMDL
MODEL 4
REMARK VINA RESULT:      21.0      3.497      6.200
REMARK  Name = 11882967
REMARK  10 active torsions:
REMARK  status: ('A' for Active; 'I' for Inactive)
REMARK    1  A    between atoms: O_2  and  C_16
REMARK    2  A    between atoms: O_3  and  C_21
REMARK    3  A    between atoms: N_9  and  C_28
REMARK    4  A    between atoms: C_11  and  C_19
REMARK    5  A    between atoms: C_13  and  C_21
REMARK    6  A    between atoms: C_13  and  C_22
REMARK    7  A    between atoms: C_14  and  C_24
REMARK    8  A    between atoms: C_24  and  C_25
REMARK    9  A    between atoms: C_27  and  C_29
REMARK   10  A    between atoms: C_28  and  C_35
REMARK                            x       y       z     vdW  Elec       q    Type
REMARK                         _______ _______ _______ _____ _____    ______ ____
ROOT
ATOM      1  S   UNL     1      -0.911  -0.581  24.331  0.00  0.00    -0.057 S 
ATOM      5  O   UNL     1       2.683   2.123  23.080  0.00  0.00    -0.275 OA
ATOM      8  N   UNL     1      -0.164   1.859  23.899  0.00  0.00    -0.229 NA
ATOM     10  N   UNL     1       1.498   0.142  23.590  0.00  0.00    -0.264 N 
ATOM     11  C   UNL     1      -3.832   2.934  24.408  0.00  0.00    -0.019 C 
ATOM     12  C   UNL     1      -4.117   1.754  25.437  0.00  0.00    +0.011 C 
ATOM     13  C   UNL     1      -5.602   1.592  25.947  0.00  0.00    +0.021 C 
ATOM     14  C   UNL     1      -2.255   3.189  24.375  0.00  0.00    +0.054 C 
ATOM     15  C   UNL     1      -4.525   4.230  24.903  0.00  0.00    +0.010 C 
ATOM     16  C   UNL     1      -6.157   2.986  26.359  0.00  0.00    +0.123 C 
ATOM     17  C   UNL     1      -3.467   0.420  24.968  0.00  0.00    +0.049 C 
ATOM     18  C   UNL     1      -5.989   4.043  25.273  0.00  0.00    +0.032 C 
ATOM     19  C   UNL     1      -4.333   2.619  22.976  0.00  0.00    +0.012 C 
ATOM     20  C   UNL     1      -1.499   1.889  24.258  0.00  0.00    +0.058 A 
ATOM     22  C   UNL     1      -5.606   0.699  27.219  0.00  0.00    +0.016 C 
ATOM     23  C   UNL     1      -2.057   0.661  24.547  0.00  0.00    +0.015 A 
ATOM     26  C   UNL     1       0.248   0.610  23.897  0.00  0.00    +0.165 A 
ATOM     27  C   UNL     1       2.615   0.905  23.209  0.00  0.00    +0.222 C 
ATOM     45  H   UNL     1       1.584  -0.870  23.620  0.00  0.00    +0.157 HD
ENDROOT
BRANCH  27  29
ATOM     29  C   UNL     1       3.816   0.043  22.955  0.00  0.00    +0.075 C 
ATOM     30  C   UNL     1       3.724  -1.239  23.786  0.00  0.00    +0.013 C 
ATOM     31  C   UNL     1       5.094   0.825  23.269  0.00  0.00    +0.013 C 
ATOM     32  C   UNL     1       4.972  -2.103  23.630  0.00  0.00    +0.001 C 
ATOM     33  C   UNL     1       6.339  -0.045  23.114  0.00  0.00    +0.001 C 
ATOM     34  C   UNL     1       6.243  -1.320  23.947  0.00  0.00    +0.000 C 
ENDBRANCH  27  29
BRANCH  16   2
ATOM      2  O   UNL     1      -7.539   2.894  26.702  0.00  0.00    -0.391 OA
ATOM     42  H   UNL     1      -7.990   3.678  26.347  0.00  0.00    +0.210 HD
ENDBRANCH  16   2
BRANCH  13  21
ATOM     21  C   UNL     1      -6.550   0.895  24.947  0.00  0.00    +0.165 C 
BRANCH  21   3
ATOM      3  O   UNL     1      -7.352   1.888  24.348  0.00  0.00    -0.394 OA
ATOM     43  H   UNL     1      -8.084   1.445  23.885  0.00  0.00    +0.209 HD
ENDBRANCH  21   3
ENDBRANCH  13  21
BRANCH  14  24
ATOM     24  C   UNL     1      -1.794   4.202  23.319  0.00  0.00    +0.106 C 
BRANCH  24  25
ATOM      4  O   UNL     1       0.053   4.804  24.761  0.00  0.00    -0.276 OA
ATOM      9  N   UNL     1       0.199   5.215  22.478  0.00  0.00    -0.311 N 
ATOM     25  C   UNL     1      -0.425   4.762  23.630  0.00  0.00    +0.214 C 
ATOM     44  H   UNL     1      -0.250   5.081  21.577  0.00  0.00    +0.149 HD
BRANCH   9  28
ATOM     28  C   UNL     1       1.518   5.805  22.474  0.00  0.00    +0.139 C 
BRANCH  28  35
ATOM      6  O   UNL     1       5.196   4.755  19.352  0.00  0.00    -0.453 OA
ATOM      7  O   UNL     1       3.874   5.323  17.420  0.00  0.00    -0.453 OA
ATOM     35  C   UNL     1       2.117   5.687  21.105  0.00  0.00    -0.027 A 
ATOM     36  C   UNL     1       3.433   5.250  20.966  0.00  0.00    +0.054 A 
ATOM     37  C   UNL     1       1.342   6.019  19.983  0.00  0.00    +0.009 A 
ATOM     38  C   UNL     1       3.941   5.158  19.686  0.00  0.00    +0.167 A 
ATOM     39  C   UNL     1       1.881   5.918  18.697  0.00  0.00    +0.050 A 
ATOM     40  C   UNL     1       3.185   5.483  18.583  0.00  0.00    +0.166 A 
ATOM     41  C   UNL     1       5.147   4.862  17.915  0.00  0.00    +0.466 C 
ENDBRANCH  28  35
ENDBRANCH   9  28
ENDBRANCH  24  25
ENDBRANCH  14  24
TORSDOF 8
ENDMDL
MODEL 5
REMARK VINA RESULT:      22.2      2.492      5.136
REMARK  Name = 11882967
REMARK  10 active torsions:
REMARK  status: ('A' for Active; 'I' for Inactive)
REMARK    1  A    between atoms: O_2  and  C_16
REMARK    2  A    between atoms: O_3  and  C_21
REMARK    3  A    between atoms: N_9  and  C_28
REMARK    4  A    between atoms: C_11  and  C_19
REMARK    5  A    between atoms: C_13  and  C_21
REMARK    6  A    between atoms: C_13  and  C_22
REMARK    7  A    between atoms: C_14  and  C_24
REMARK    8  A    between atoms: C_24  and  C_25
REMARK    9  A    between atoms: C_27  and  C_29
REMARK   10  A    between atoms: C_28  and  C_35
REMARK                            x       y       z     vdW  Elec       q    Type
REMARK                         _______ _______ _______ _____ _____    ______ ____
ROOT
ATOM      1  S   UNL     1       0.561   2.705  24.041  0.00  0.00    -0.057 S 
ATOM      5  O   UNL     1       2.879  -1.164  22.841  0.00  0.00    -0.275 OA
ATOM      8  N   UNL     1       0.320   0.177  23.545  0.00  0.00    -0.229 NA
ATOM     10  N   UNL     1       2.536   1.111  23.382  0.00  0.00    -0.264 N 
ATOM     11  C   UNL     1      -3.373   0.452  24.622  0.00  0.00    -0.019 C 
ATOM     12  C   UNL     1      -3.487   1.959  24.124  0.00  0.00    +0.011 C 
ATOM     13  C   UNL     1      -4.841   2.711  24.426  0.00  0.00    +0.021 C 
ATOM     14  C   UNL     1      -2.151  -0.231  23.849  0.00  0.00    +0.054 C 
ATOM     15  C   UNL     1      -4.670  -0.314  24.255  0.00  0.00    +0.010 C 
ATOM     16  C   UNL     1      -6.035   1.789  24.044  0.00  0.00    +0.123 C 
ATOM     17  C   UNL     1      -2.218   2.779  24.497  0.00  0.00    +0.049 C 
ATOM     18  C   UNL     1      -5.947   0.402  24.671  0.00  0.00    +0.032 C 
ATOM     19  C   UNL     1      -3.144   0.337  26.150  0.00  0.00    +0.012 C 
ATOM     20  C   UNL     1      -0.936   0.661  23.863  0.00  0.00    +0.058 A 
ATOM     22  C   UNL     1      -4.929   3.976  23.527  0.00  0.00    +0.016 C 
ATOM     23  C   UNL     1      -0.991   2.011  24.139  0.00  0.00    +0.015 A 
ATOM     26  C   UNL     1       1.187   1.164  23.614  0.00  0.00    +0.165 A 
ATOM     27  C   UNL     1       3.286  -0.021  23.019  0.00  0.00    +0.222 C 
ATOM     45  H   UNL     1       3.019   1.993  23.528  0.00  0.00    +0.157 HD
ENDROOT
BRANCH  27  29
ATOM     29  C   UNL     1       4.738   0.307  22.848  0.00  0.00    +0.075 C 
ATOM     30  C   UNL     1       5.525  -0.961  22.508  0.00  0.00    +0.013 C 
ATOM     31  C   UNL     1       5.274   0.975  24.117  0.00  0.00    +0.013 C 
ATOM     32  C   UNL     1       7.024  -0.689  22.419  0.00  0.00    +0.001 C 
ATOM     33  C   UNL     1       6.774   1.243  24.023  0.00  0.00    +0.001 C 
ATOM     34  C   UNL     1       7.553  -0.026  23.687  0.00  0.00    +0.000 C 
ENDBRANCH  27  29
BRANCH  16   2
ATOM      2  O   UNL     1      -7.273   2.388  24.424  0.00  0.00    -0.391 OA
ATOM     42  H   UNL     1      -7.564   2.963  23.697  0.00  0.00    +0.210 HD
ENDBRANCH  16   2
BRANCH  13  21
ATOM     21  C   UNL     1      -4.982   3.221  25.876  0.00  0.00    +0.165 C 
BRANCH  21   3
ATOM      3  O   UNL     1      -5.955   4.241  25.883  0.00  0.00    -0.394 OA
ATOM     43  H   UNL     1      -5.840   4.772  25.075  0.00  0.00    +0.209 HD
ENDBRANCH  21   3
ENDBRANCH  13  21
BRANCH  14  24
ATOM     24  C   UNL     1      -1.811  -1.651  24.322  0.00  0.00    +0.106 C 
BRANCH  24  25
ATOM      4  O   UNL     1       0.196  -2.199  25.558  0.00  0.00    -0.276 OA
ATOM      9  N   UNL     1      -1.469  -0.935  26.575  0.00  0.00    -0.311 N 
ATOM     25  C   UNL     1      -0.900  -1.643  25.528  0.00  0.00    +0.214 C 
ATOM     44  H   UNL     1      -2.353  -0.456  26.436  0.00  0.00    +0.149 HD
BRANCH   9  28
ATOM     28  C   UNL     1      -0.824  -0.765  27.857  0.00  0.00    +0.139 C 
BRANCH  28  35
ATOM      6  O   UNL     1       2.489   2.368  29.750  0.00  0.00    -0.453 OA
ATOM      7  O   UNL     1       2.137   3.982  27.997  0.00  0.00    -0.453 OA
ATOM     35  C   UNL     1      -0.048   0.517  27.862  0.00  0.00    -0.027 A 
ATOM     36  C   UNL     1       0.869   0.760  28.883  0.00  0.00    +0.054 A 
ATOM     37  C   UNL     1      -0.256   1.454  26.839  0.00  0.00    +0.009 A 
ATOM     38  C   UNL     1       1.560   1.954  28.846  0.00  0.00    +0.167 A 
ATOM     39  C   UNL     1       0.456   2.656  26.825  0.00  0.00    +0.050 A 
ATOM     40  C   UNL     1       1.359   2.877  27.845  0.00  0.00    +0.166 A 
ATOM     41  C   UNL     1       2.851   3.653  29.205  0.00  0.00    +0.466 C 
ENDBRANCH  28  35
ENDBRANCH   9  28
ENDBRANCH  24  25
ENDBRANCH  14  24
TORSDOF 8
ENDMDL
