MODEL 1
REMARK VINA RESULT:      -4.3      0.000      0.000
REMARK  Name = 75537025
REMARK  5 active torsions:
REMARK  status: ('A' for Active; 'I' for Inactive)
REMARK    1  A    between atoms: O_3  and  C_18
REMARK    2  A    between atoms: O_3  and  C_19
REMARK    3  A    between atoms: N_6  and  C_17
REMARK    4  A    between atoms: C_8  and  C_15
REMARK    5  A    between atoms: C_17  and  C_18
REMARK                            x       y       z     vdW  Elec       q    Type
REMARK                         _______ _______ _______ _____ _____    ______ ____
ROOT
ATOM      1  O   UNL     1      -5.772  -9.327   8.271  0.00  0.00    -0.275 OA
ATOM      2  O   UNL     1      -1.790 -10.397  13.889  0.00  0.00    -0.252 OA
ATOM      4  N   UNL     1      -3.706 -10.306  12.531  0.00  0.00    -0.278 N 
ATOM      5  N   UNL     1      -5.423  -9.336  10.572  0.00  0.00    -0.298 N 
ATOM      6  N   UNL     1      -3.977 -10.637  14.737  0.00  0.00    -0.281 N 
ATOM      7  C   UNL     1      -5.131 -10.531  12.696  0.00  0.00    +0.112 C 
ATOM     11  C   UNL     1      -5.929  -9.465  11.950  0.00  0.00    +0.132 C 
ATOM     12  C   UNL     1      -5.326 -10.533  14.211  0.00  0.00    +0.133 C 
ATOM     13  C   UNL     1      -3.158 -10.087  11.205  0.00  0.00    +0.128 C 
ATOM     14  C   UNL     1      -3.987  -9.040  10.466  0.00  0.00    +0.127 C 
ATOM     15  C   UNL     1      -6.198  -9.454   9.415  0.00  0.00    +0.219 C 
ATOM     16  C   UNL     1      -3.004 -10.444  13.737  0.00  0.00    +0.305 C 
ENDROOT
BRANCH  15   8
ATOM      8  C   UNL     1      -7.651  -9.759   9.593  0.00  0.00    +0.075 C 
ATOM      9  C   UNL     1      -8.559  -9.597   8.422  0.00  0.00    +0.013 C 
ATOM     10  C   UNL     1      -8.622  -8.628   9.565  0.00  0.00    +0.013 C 
ENDBRANCH  15   8
BRANCH   6  17
ATOM     17  C   UNL     1      -3.717 -10.780  16.153  0.00  0.00    +0.137 C 
BRANCH  17  18
ATOM     18  C   UNL     1      -4.962 -10.510  16.979  0.00  0.00    +0.178 C 
BRANCH  18   3
ATOM      3  O   UNL     1      -4.689 -10.780  18.348  0.00  0.00    -0.381 OA
ATOM     19  C   UNL     1      -5.875 -10.759  19.130  0.00  0.00    +0.194 C 
ENDBRANCH  18   3
ENDBRANCH  17  18
ENDBRANCH   6  17
TORSDOF 4
ENDMDL
MODEL 2
REMARK VINA RESULT:      -3.3      2.585      3.691
REMARK  Name = 75537025
REMARK  5 active torsions:
REMARK  status: ('A' for Active; 'I' for Inactive)
REMARK    1  A    between atoms: O_3  and  C_18
REMARK    2  A    between atoms: O_3  and  C_19
REMARK    3  A    between atoms: N_6  and  C_17
REMARK    4  A    between atoms: C_8  and  C_15
REMARK    5  A    between atoms: C_17  and  C_18
REMARK                            x       y       z     vdW  Elec       q    Type
REMARK                         _______ _______ _______ _____ _____    ______ ____
ROOT
ATOM      1  O   UNL     1     -10.157  -8.201  10.037  0.00  0.00    -0.275 OA
ATOM      2  O   UNL     1      -5.006 -10.665  14.031  0.00  0.00    -0.252 OA
ATOM      4  N   UNL     1      -6.084  -9.598  12.237  0.00  0.00    -0.278 N 
ATOM      5  N   UNL     1      -8.048  -9.143  10.322  0.00  0.00    -0.298 N 
ATOM      6  N   UNL     1      -3.883 -10.013  12.063  0.00  0.00    -0.281 N 
ATOM      7  C   UNL     1      -5.691  -8.973  10.987  0.00  0.00    +0.112 C 
ATOM     11  C   UNL     1      -6.660  -9.354   9.871  0.00  0.00    +0.132 C 
ATOM     12  C   UNL     1      -4.256  -9.450  10.777  0.00  0.00    +0.133 C 
ATOM     13  C   UNL     1      -7.459  -9.497  12.693  0.00  0.00    +0.128 C 
ATOM     14  C   UNL     1      -8.412  -9.855  11.556  0.00  0.00    +0.127 C 
ATOM     15  C   UNL     1      -8.998  -8.358   9.664  0.00  0.00    +0.219 C 
ATOM     16  C   UNL     1      -4.993 -10.154  12.919  0.00  0.00    +0.305 C 
ENDROOT
BRANCH  15   8
ATOM      8  C   UNL     1      -8.561  -7.659   8.416  0.00  0.00    +0.075 C 
ATOM      9  C   UNL     1      -7.691  -6.455   8.544  0.00  0.00    +0.013 C 
ATOM     10  C   UNL     1      -9.123  -6.309   8.126  0.00  0.00    +0.013 C 
ENDBRANCH  15   8
BRANCH   6  17
ATOM     17  C   UNL     1      -2.544 -10.489  12.331  0.00  0.00    +0.137 C 
BRANCH  17  18
ATOM     18  C   UNL     1      -2.341 -10.781  13.807  0.00  0.00    +0.178 C 
BRANCH  18   3
ATOM      3  O   UNL     1      -1.441  -9.828  14.358  0.00  0.00    -0.381 OA
ATOM     19  C   UNL     1      -0.892 -10.280  15.588  0.00  0.00    +0.194 C 
ENDBRANCH  18   3
ENDBRANCH  17  18
ENDBRANCH   6  17
TORSDOF 4
ENDMDL
MODEL 3
REMARK VINA RESULT:      -3.1     16.033     17.687
REMARK  Name = 75537025
REMARK  5 active torsions:
REMARK  status: ('A' for Active; 'I' for Inactive)
REMARK    1  A    between atoms: O_3  and  C_18
REMARK    2  A    between atoms: O_3  and  C_19
REMARK    3  A    between atoms: N_6  and  C_17
REMARK    4  A    between atoms: C_8  and  C_15
REMARK    5  A    between atoms: C_17  and  C_18
REMARK                            x       y       z     vdW  Elec       q    Type
REMARK                         _______ _______ _______ _____ _____    ______ ____
ROOT
ATOM      1  O   UNL     1      -5.131   4.609  25.650  0.00  0.00    -0.275 OA
ATOM      2  O   UNL     1       1.299   2.374  24.162  0.00  0.00    -0.252 OA
ATOM      4  N   UNL     1      -1.044   2.382  24.342  0.00  0.00    -0.278 N 
ATOM      5  N   UNL     1      -3.535   2.928  25.451  0.00  0.00    -0.298 N 
ATOM      6  N   UNL     1      -0.022   0.450  23.820  0.00  0.00    -0.281 N 
ATOM      7  C   UNL     1      -2.128   1.451  24.083  0.00  0.00    +0.112 C 
ATOM     11  C   UNL     1      -3.169   1.522  25.197  0.00  0.00    +0.132 C 
ATOM     12  C   UNL     1      -1.425   0.102  23.950  0.00  0.00    +0.133 C 
ATOM     13  C   UNL     1      -1.343   3.762  24.680  0.00  0.00    +0.128 C 
ATOM     14  C   UNL     1      -2.405   3.811  25.775  0.00  0.00    +0.127 C 
ATOM     15  C   UNL     1      -4.834   3.440  25.421  0.00  0.00    +0.219 C 
ATOM     16  C   UNL     1       0.214   1.808  24.112  0.00  0.00    +0.305 C 
ENDROOT
BRANCH  15   8
ATOM      8  C   UNL     1      -5.936   2.489  25.081  0.00  0.00    +0.075 C 
ATOM      9  C   UNL     1      -6.528   1.667  26.176  0.00  0.00    +0.013 C 
ATOM     10  C   UNL     1      -5.655   1.026  25.141  0.00  0.00    +0.013 C 
ENDBRANCH  15   8
BRANCH   6  17
ATOM     17  C   UNL     1       0.993  -0.547  23.561  0.00  0.00    +0.137 C 
BRANCH  17  18
ATOM     18  C   UNL     1       1.874  -0.154  22.388  0.00  0.00    +0.178 C 
BRANCH  18   3
ATOM      3  O   UNL     1       3.239  -0.335  22.740  0.00  0.00    -0.381 OA
ATOM     19  C   UNL     1       3.958   0.889  22.687  0.00  0.00    +0.194 C 
ENDBRANCH  18   3
ENDBRANCH  17  18
ENDBRANCH   6  17
TORSDOF 4
ENDMDL
MODEL 4
REMARK VINA RESULT:      -2.7     23.070     26.209
REMARK  Name = 75537025
REMARK  5 active torsions:
REMARK  status: ('A' for Active; 'I' for Inactive)
REMARK    1  A    between atoms: O_3  and  C_18
REMARK    2  A    between atoms: O_3  and  C_19
REMARK    3  A    between atoms: N_6  and  C_17
REMARK    4  A    between atoms: C_8  and  C_15
REMARK    5  A    between atoms: C_17  and  C_18
REMARK                            x       y       z     vdW  Elec       q    Type
REMARK                         _______ _______ _______ _____ _____    ______ ____
ROOT
ATOM      1  O   UNL     1       8.244 -10.475  32.597  0.00  0.00    -0.275 OA
ATOM      2  O   UNL     1      14.858  -8.280  32.649  0.00  0.00    -0.252 OA
ATOM      4  N   UNL     1      12.510  -8.201  32.700  0.00  0.00    -0.278 N 
ATOM      5  N   UNL     1       9.900  -8.925  32.073  0.00  0.00    -0.298 N 
ATOM      6  N   UNL     1      13.637  -6.273  32.448  0.00  0.00    -0.281 N 
ATOM      7  C   UNL     1      11.487  -7.171  32.732  0.00  0.00    +0.112 C 
ATOM     11  C   UNL     1      10.330  -7.540  31.807  0.00  0.00    +0.132 C 
ATOM     12  C   UNL     1      12.238  -5.900  32.340  0.00  0.00    +0.133 C 
ATOM     13  C   UNL     1      12.138  -9.594  32.873  0.00  0.00    +0.128 C 
ATOM     14  C   UNL     1      10.963  -9.935  31.960  0.00  0.00    +0.127 C 
ATOM     15  C   UNL     1       8.598  -9.316  32.393  0.00  0.00    +0.219 C 
ATOM     16  C   UNL     1      13.801  -7.663  32.608  0.00  0.00    +0.305 C 
ENDROOT
BRANCH  15   8
ATOM      8  C   UNL     1       7.566  -8.240  32.495  0.00  0.00    +0.075 C 
ATOM      9  C   UNL     1       6.168  -8.626  32.843  0.00  0.00    +0.013 C 
ATOM     10  C   UNL     1       6.502  -8.175  31.453  0.00  0.00    +0.013 C 
ENDBRANCH  15   8
BRANCH   6  17
ATOM     17  C   UNL     1      14.701  -5.312  32.263  0.00  0.00    +0.137 C 
BRANCH  17  18
ATOM     18  C   UNL     1      15.050  -5.141  30.795  0.00  0.00    +0.178 C 
BRANCH  18   3
ATOM      3  O   UNL     1      15.687  -3.884  30.604  0.00  0.00    -0.381 OA
ATOM     19  C   UNL     1      15.561  -3.056  31.752  0.00  0.00    +0.194 C 
ENDBRANCH  18   3
ENDBRANCH  17  18
ENDBRANCH   6  17
TORSDOF 4
ENDMDL
MODEL 5
REMARK VINA RESULT:      -2.7      3.231      6.007
REMARK  Name = 75537025
REMARK  5 active torsions:
REMARK  status: ('A' for Active; 'I' for Inactive)
REMARK    1  A    between atoms: O_3  and  C_18
REMARK    2  A    between atoms: O_3  and  C_19
REMARK    3  A    between atoms: N_6  and  C_17
REMARK    4  A    between atoms: C_8  and  C_15
REMARK    5  A    between atoms: C_17  and  C_18
REMARK                            x       y       z     vdW  Elec       q    Type
REMARK                         _______ _______ _______ _____ _____    ______ ____
ROOT
ATOM      1  O   UNL     1      -9.662  -9.204  17.931  0.00  0.00    -0.275 OA
ATOM      2  O   UNL     1      -3.131 -10.608  15.946  0.00  0.00    -0.252 OA
ATOM      4  N   UNL     1      -5.394  -9.990  15.800  0.00  0.00    -0.278 N 
ATOM      5  N   UNL     1      -8.109 -10.014  16.399  0.00  0.00    -0.298 N 
ATOM      6  N   UNL     1      -4.272 -10.386  13.894  0.00  0.00    -0.281 N 
ATOM      7  C   UNL     1      -6.332  -9.650  14.745  0.00  0.00    +0.112 C 
ATOM     11  C   UNL     1      -7.691 -10.291  15.013  0.00  0.00    +0.132 C 
ATOM     12  C   UNL     1      -5.637 -10.132  13.473  0.00  0.00    +0.133 C 
ATOM     13  C   UNL     1      -5.778  -9.819  17.190  0.00  0.00    +0.128 C 
ATOM     14  C   UNL     1      -7.151 -10.441  17.430  0.00  0.00    +0.127 C 
ATOM     15  C   UNL     1      -9.314  -9.415  16.773  0.00  0.00    +0.219 C 
ATOM     16  C   UNL     1      -4.138 -10.356  15.297  0.00  0.00    +0.305 C 
ENDROOT
BRANCH  15   8
ATOM      8  C   UNL     1     -10.242  -9.002  15.675  0.00  0.00    +0.075 C 
ATOM      9  C   UNL     1      -9.730  -8.077  14.624  0.00  0.00    +0.013 C 
ATOM     10  C   UNL     1     -10.717  -7.590  15.642  0.00  0.00    +0.013 C 
ENDBRANCH  15   8
BRANCH   6  17
ATOM     17  C   UNL     1      -3.238 -10.762  12.955  0.00  0.00    +0.137 C 
BRANCH  17  18
ATOM     18  C   UNL     1      -3.666 -10.502  11.521  0.00  0.00    +0.178 C 
BRANCH  18   3
ATOM      3  O   UNL     1      -3.203  -9.221  11.115  0.00  0.00    -0.381 OA
ATOM     19  C   UNL     1      -3.589  -8.926   9.779  0.00  0.00    +0.194 C 
ENDBRANCH  18   3
ENDBRANCH  17  18
ENDBRANCH   6  17
TORSDOF 4
ENDMDL
MODEL 6
REMARK VINA RESULT:      -2.7     14.403     17.280
REMARK  Name = 75537025
REMARK  5 active torsions:
REMARK  status: ('A' for Active; 'I' for Inactive)
REMARK    1  A    between atoms: O_3  and  C_18
REMARK    2  A    between atoms: O_3  and  C_19
REMARK    3  A    between atoms: N_6  and  C_17
REMARK    4  A    between atoms: C_8  and  C_15
REMARK    5  A    between atoms: C_17  and  C_18
REMARK                            x       y       z     vdW  Elec       q    Type
REMARK                         _______ _______ _______ _____ _____    ______ ____
ROOT
ATOM      1  O   UNL     1      -0.963   5.601  24.972  0.00  0.00    -0.275 OA
ATOM      2  O   UNL     1       0.779  -1.077  24.005  0.00  0.00    -0.252 OA
ATOM      4  N   UNL     1      -0.560   0.822  24.357  0.00  0.00    -0.278 N 
ATOM      5  N   UNL     1      -1.263   3.324  25.347  0.00  0.00    -0.298 N 
ATOM      6  N   UNL     1      -1.503  -1.205  24.588  0.00  0.00    -0.281 N 
ATOM      7  C   UNL     1      -1.967   1.096  24.591  0.00  0.00    +0.112 C 
ATOM     11  C   UNL     1      -2.130   2.173  25.660  0.00  0.00    +0.132 C 
ATOM     12  C   UNL     1      -2.546  -0.267  24.962  0.00  0.00    +0.133 C 
ATOM     13  C   UNL     1       0.361   1.921  24.126  0.00  0.00    +0.128 C 
ATOM     14  C   UNL     1       0.162   2.998  25.188  0.00  0.00    +0.127 C 
ATOM     15  C   UNL     1      -1.695   4.646  25.217  0.00  0.00    +0.219 C 
ATOM     16  C   UNL     1      -0.293  -0.552  24.279  0.00  0.00    +0.305 C 
ENDROOT
BRANCH  15   8
ATOM      8  C   UNL     1      -3.157   4.907  25.386  0.00  0.00    +0.075 C 
ATOM      9  C   UNL     1      -4.023   3.802  25.887  0.00  0.00    +0.013 C 
ATOM     10  C   UNL     1      -4.110   4.238  24.456  0.00  0.00    +0.013 C 
ENDBRANCH  15   8
BRANCH   6  17
ATOM     17  C   UNL     1      -1.692  -2.636  24.676  0.00  0.00    +0.137 C 
BRANCH  17  18
ATOM     18  C   UNL     1      -3.092  -2.985  25.150  0.00  0.00    +0.178 C 
BRANCH  18   3
ATOM      3  O   UNL     1      -3.900  -3.320  24.029  0.00  0.00    -0.381 OA
ATOM     19  C   UNL     1      -4.665  -2.207  23.587  0.00  0.00    +0.194 C 
ENDBRANCH  18   3
ENDBRANCH  17  18
ENDBRANCH   6  17
TORSDOF 4
ENDMDL
MODEL 7
REMARK VINA RESULT:      -2.4     15.486     17.098
REMARK  Name = 75537025
REMARK  5 active torsions:
REMARK  status: ('A' for Active; 'I' for Inactive)
REMARK    1  A    between atoms: O_3  and  C_18
REMARK    2  A    between atoms: O_3  and  C_19
REMARK    3  A    between atoms: N_6  and  C_17
REMARK    4  A    between atoms: C_8  and  C_15
REMARK    5  A    between atoms: C_17  and  C_18
REMARK                            x       y       z     vdW  Elec       q    Type
REMARK                         _______ _______ _______ _____ _____    ______ ____
ROOT
ATOM      1  O   UNL     1       2.417  -1.416  23.496  0.00  0.00    -0.275 OA
ATOM      2  O   UNL     1      -4.334  -0.272  24.794  0.00  0.00    -0.252 OA
ATOM      4  N   UNL     1      -2.142   0.103  24.033  0.00  0.00    -0.278 N 
ATOM      5  N   UNL     1       0.636  -0.019  24.037  0.00  0.00    -0.298 N 
ATOM      6  N   UNL     1      -3.570   1.837  24.065  0.00  0.00    -0.281 N 
ATOM      7  C   UNL     1      -1.407   1.194  23.420  0.00  0.00    +0.112 C 
ATOM     11  C   UNL     1      -0.011   1.306  24.026  0.00  0.00    +0.132 C 
ATOM     12  C   UNL     1      -2.303   2.410  23.649  0.00  0.00    +0.133 C 
ATOM     13  C   UNL     1      -1.526  -1.207  24.149  0.00  0.00    +0.128 C 
ATOM     14  C   UNL     1      -0.121  -1.071  24.731  0.00  0.00    +0.127 C 
ATOM     15  C   UNL     1       1.877  -0.314  23.468  0.00  0.00    +0.219 C 
ATOM     16  C   UNL     1      -3.459   0.462  24.350  0.00  0.00    +0.305 C 
ENDROOT
BRANCH  15   8
ATOM      8  C   UNL     1       2.593   0.801  22.774  0.00  0.00    +0.075 C 
ATOM      9  C   UNL     1       3.527   0.461  21.662  0.00  0.00    +0.013 C 
ATOM     10  C   UNL     1       4.064   0.935  22.979  0.00  0.00    +0.013 C 
ENDBRANCH  15   8
BRANCH   6  17
ATOM     17  C   UNL     1      -4.744   2.653  24.284  0.00  0.00    +0.137 C 
BRANCH  17  18
ATOM     18  C   UNL     1      -4.589   3.538  25.508  0.00  0.00    +0.178 C 
BRANCH  18   3
ATOM      3  O   UNL     1      -5.499   3.115  26.515  0.00  0.00    -0.381 OA
ATOM     19  C   UNL     1      -6.373   2.102  26.036  0.00  0.00    +0.194 C 
ENDBRANCH  18   3
ENDBRANCH  17  18
ENDBRANCH   6  17
TORSDOF 4
ENDMDL
MODEL 8
REMARK VINA RESULT:      -2.0     14.853     17.429
REMARK  Name = 75537025
REMARK  5 active torsions:
REMARK  status: ('A' for Active; 'I' for Inactive)
REMARK    1  A    between atoms: O_3  and  C_18
REMARK    2  A    between atoms: O_3  and  C_19
REMARK    3  A    between atoms: N_6  and  C_17
REMARK    4  A    between atoms: C_8  and  C_15
REMARK    5  A    between atoms: C_17  and  C_18
REMARK                            x       y       z     vdW  Elec       q    Type
REMARK                         _______ _______ _______ _____ _____    ______ ____
ROOT
ATOM      1  O   UNL     1       0.034  -2.294  24.997  0.00  0.00    -0.275 OA
ATOM      2  O   UNL     1      -1.656   4.447  25.514  0.00  0.00    -0.252 OA
ATOM      4  N   UNL     1      -1.908   2.127  25.232  0.00  0.00    -0.278 N 
ATOM      5  N   UNL     1      -1.256  -0.448  24.412  0.00  0.00    -0.298 N 
ATOM      6  N   UNL     1      -3.661   3.455  24.766  0.00  0.00    -0.281 N 
ATOM      7  C   UNL     1      -2.992   1.210  24.926  0.00  0.00    +0.112 C 
ATOM     11  C   UNL     1      -2.524   0.141  23.943  0.00  0.00    +0.132 C 
ATOM     12  C   UNL     1      -4.101   2.120  24.401  0.00  0.00    +0.133 C 
ATOM     13  C   UNL     1      -0.610   1.607  25.619  0.00  0.00    +0.128 C 
ATOM     14  C   UNL     1      -0.173   0.520  24.640  0.00  0.00    +0.127 C 
ATOM     15  C   UNL     1      -1.030  -1.810  24.623  0.00  0.00    +0.219 C 
ATOM     16  C   UNL     1      -2.324   3.466  25.212  0.00  0.00    +0.305 C 
ENDROOT
BRANCH  15   8
ATOM      8  C   UNL     1      -2.175  -2.739  24.375  0.00  0.00    +0.075 C 
ATOM      9  C   UNL     1      -3.532  -2.157  24.174  0.00  0.00    +0.013 C 
ATOM     10  C   UNL     1      -3.208  -2.892  25.439  0.00  0.00    +0.013 C 
ENDBRANCH  15   8
BRANCH   6  17
ATOM     17  C   UNL     1      -4.487   4.621  24.544  0.00  0.00    +0.137 C 
BRANCH  17  18
ATOM     18  C   UNL     1      -5.785   4.542  25.329  0.00  0.00    +0.178 C 
BRANCH  18   3
ATOM      3  O   UNL     1      -5.643   3.599  26.384  0.00  0.00    -0.381 OA
ATOM     19  C   UNL     1      -6.428   2.437  26.154  0.00  0.00    +0.194 C 
ENDBRANCH  18   3
ENDBRANCH  17  18
ENDBRANCH   6  17
TORSDOF 4
ENDMDL
MODEL 9
REMARK VINA RESULT:      -1.1      2.925      5.041
REMARK  Name = 75537025
REMARK  5 active torsions:
REMARK  status: ('A' for Active; 'I' for Inactive)
REMARK    1  A    between atoms: O_3  and  C_18
REMARK    2  A    between atoms: O_3  and  C_19
REMARK    3  A    between atoms: N_6  and  C_17
REMARK    4  A    between atoms: C_8  and  C_15
REMARK    5  A    between atoms: C_17  and  C_18
REMARK                            x       y       z     vdW  Elec       q    Type
REMARK                         _______ _______ _______ _____ _____    ______ ____
ROOT
ATOM      1  O   UNL     1     -10.402  -9.989  14.833  0.00  0.00    -0.275 OA
ATOM      2  O   UNL     1      -3.458 -10.268  14.313  0.00  0.00    -0.252 OA
ATOM      4  N   UNL     1      -5.709 -10.061  13.671  0.00  0.00    -0.278 N 
ATOM      5  N   UNL     1      -8.446 -10.548  13.702  0.00  0.00    -0.298 N 
ATOM      6  N   UNL     1      -4.158 -10.298  12.061  0.00  0.00    -0.281 N 
ATOM      7  C   UNL     1      -6.446  -9.916  12.427  0.00  0.00    +0.112 C 
ATOM     11  C   UNL     1      -7.704 -10.779  12.449  0.00  0.00    +0.132 C 
ATOM     12  C   UNL     1      -5.427 -10.297  11.355  0.00  0.00    +0.133 C 
ATOM     13  C   UNL     1      -6.402  -9.928  14.939  0.00  0.00    +0.128 C 
ATOM     14  C   UNL     1      -7.671 -10.776  14.930  0.00  0.00    +0.127 C 
ATOM     15  C   UNL     1      -9.786 -10.163  13.785  0.00  0.00    +0.219 C 
ATOM     16  C   UNL     1      -4.332 -10.213  13.457  0.00  0.00    +0.305 C 
ENDROOT
BRANCH  15   8
ATOM      8  C   UNL     1     -10.516  -9.945  12.498  0.00  0.00    +0.075 C 
ATOM      9  C   UNL     1      -9.745  -9.458  11.318  0.00  0.00    +0.013 C 
ATOM     10  C   UNL     1     -10.706  -8.546  12.019  0.00  0.00    +0.013 C 
ENDBRANCH  15   8
BRANCH   6  17
ATOM     17  C   UNL     1      -2.902 -10.507  11.377  0.00  0.00    +0.137 C 
BRANCH  17  18
ATOM     18  C   UNL     1      -2.433  -9.246  10.673  0.00  0.00    +0.178 C 
BRANCH  18   3
ATOM      3  O   UNL     1      -1.012  -9.213  10.659  0.00  0.00    -0.381 OA
ATOM     19  C   UNL     1      -0.495  -8.540  11.798  0.00  0.00    +0.194 C 
ENDBRANCH  18   3
ENDBRANCH  17  18
ENDBRANCH   6  17
TORSDOF 4
ENDMDL
MODEL 10
REMARK VINA RESULT:      -1.1     15.616     17.032
REMARK  Name = 75537025
REMARK  5 active torsions:
REMARK  status: ('A' for Active; 'I' for Inactive)
REMARK    1  A    between atoms: O_3  and  C_18
REMARK    2  A    between atoms: O_3  and  C_19
REMARK    3  A    between atoms: N_6  and  C_17
REMARK    4  A    between atoms: C_8  and  C_15
REMARK    5  A    between atoms: C_17  and  C_18
REMARK                            x       y       z     vdW  Elec       q    Type
REMARK                         _______ _______ _______ _____ _____    ______ ____
ROOT
ATOM      1  O   UNL     1      -4.016   2.524  25.365  0.00  0.00    -0.275 OA
ATOM      2  O   UNL     1       2.661   2.226  23.390  0.00  0.00    -0.252 OA
ATOM      4  N   UNL     1       0.426   1.573  23.707  0.00  0.00    -0.278 N 
ATOM      5  N   UNL     1      -2.034   1.364  24.987  0.00  0.00    -0.298 N 
ATOM      6  N   UNL     1       1.904   0.022  23.029  0.00  0.00    -0.281 N 
ATOM      7  C   UNL     1      -0.374   0.385  23.466  0.00  0.00    +0.112 C 
ATOM     11  C   UNL     1      -1.312   0.126  24.641  0.00  0.00    +0.132 C 
ATOM     12  C   UNL     1       0.664  -0.708  23.223  0.00  0.00    +0.133 C 
ATOM     13  C   UNL     1      -0.219   2.803  24.132  0.00  0.00    +0.128 C 
ATOM     14  C   UNL     1      -1.173   2.517  25.289  0.00  0.00    +0.127 C 
ATOM     15  C   UNL     1      -3.423   1.493  25.059  0.00  0.00    +0.219 C 
ATOM     16  C   UNL     1       1.774   1.382  23.375  0.00  0.00    +0.305 C 
ENDROOT
BRANCH  15   8
ATOM      8  C   UNL     1      -4.240   0.283  24.737  0.00  0.00    +0.075 C 
ATOM      9  C   UNL     1      -3.783  -1.040  25.251  0.00  0.00    +0.013 C 
ATOM     10  C   UNL     1      -3.677  -0.721  23.790  0.00  0.00    +0.013 C 
ENDBRANCH  15   8
BRANCH   6  17
ATOM     17  C   UNL     1       3.134  -0.642  22.660  0.00  0.00    +0.137 C 
BRANCH  17  18
ATOM     18  C   UNL     1       3.722  -1.415  23.828  0.00  0.00    +0.178 C 
BRANCH  18   3
ATOM      3  O   UNL     1       4.989  -0.866  24.168  0.00  0.00    -0.381 OA
ATOM     19  C   UNL     1       5.373   0.159  23.262  0.00  0.00    +0.194 C 
ENDBRANCH  18   3
ENDBRANCH  17  18
ENDBRANCH   6  17
TORSDOF 4
ENDMDL
