MODEL 1
REMARK VINA RESULT:       5.7      0.000      0.000
REMARK  Name = 11886002
REMARK  8 active torsions:
REMARK  status: ('A' for Active; 'I' for Inactive)
REMARK    1  A    between atoms: S_1  and  C_18
REMARK    2  A    between atoms: S_1  and  C_20
REMARK    3  A    between atoms: O_4  and  C_15
REMARK    4  A    between atoms: O_4  and  C_19
REMARK    5  A    between atoms: O_6  and  C_30
REMARK    6  A    between atoms: O_6  and  C_32
REMARK    7  A    between atoms: N_7  and  C_14
REMARK    8  A    between atoms: N_11  and  C_21
REMARK                            x       y       z     vdW  Elec       q    Type
REMARK                         _______ _______ _______ _____ _____    ______ ____
ROOT
ATOM      2  O   UNL     1      -2.715  -0.127  25.203  0.00  0.00    -0.368 OA
ATOM      3  O   UNL     1      -5.106  -1.156  23.537  0.00  0.00    -0.368 OA
ATOM     12  C   UNL     1      -5.026  -0.267  24.672  0.00  0.00    +0.177 C 
ATOM     13  C   UNL     1      -3.928  -0.801  25.571  0.00  0.00    +0.192 C 
ATOM     14  C   UNL     1      -4.522   1.090  24.222  0.00  0.00    +0.168 C 
ATOM     15  C   UNL     1      -3.884  -2.266  25.207  0.00  0.00    +0.235 C 
ATOM     16  C   UNL     1      -3.007   0.916  24.262  0.00  0.00    +0.190 C 
ATOM     17  C   UNL     1      -4.179  -2.234  23.726  0.00  0.00    +0.207 C 
ENDROOT
BRANCH  14   7
ATOM      7  N   UNL     1      -5.050   2.185  25.038  0.00  0.00    -0.212 N 
ATOM      8  N   UNL     1      -5.987   1.948  25.966  0.00  0.00    -0.043 NA
ATOM      9  N   UNL     1      -5.468   4.115  25.934  0.00  0.00    -0.101 NA
ATOM     10  N   UNL     1      -6.238   3.131  26.511  0.00  0.00    -0.022 NA
ATOM     18  C   UNL     1      -4.740   3.508  25.026  0.00  0.00    +0.214 A 
BRANCH  18   1
ATOM      1  S   UNL     1      -3.576   4.211  23.972  0.00  0.00    -0.049 S 
BRANCH   1  20
ATOM     20  C   UNL     1      -2.072   3.613  24.745  0.00  0.00    +0.016 A 
ATOM     22  C   UNL     1      -2.022   3.434  26.129  0.00  0.00    +0.015 A 
ATOM     23  C   UNL     1      -0.953   3.325  23.964  0.00  0.00    +0.015 A 
ATOM     26  C   UNL     1      -0.852   2.968  26.729  0.00  0.00    +0.001 A 
ATOM     27  C   UNL     1       0.217   2.859  24.565  0.00  0.00    +0.001 A 
ATOM     31  C   UNL     1       0.268   2.681  25.948  0.00  0.00    +0.000 A 
ENDBRANCH   1  20
ENDBRANCH  18   1
ENDBRANCH  14   7
BRANCH  15   4
ATOM      4  O   UNL     1      -2.648  -2.881  25.490  0.00  0.00    -0.442 OA
BRANCH   4  19
ATOM      5  O   UNL     1      -1.506  -3.523  23.616  0.00  0.00    -0.226 OA
ATOM     11  N   UNL     1      -0.897  -1.619  24.835  0.00  0.00    -0.251 N 
ATOM     19  C   UNL     1      -1.652  -2.741  24.547  0.00  0.00    +0.405 C 
ATOM     38  H   UNL     1      -1.175  -1.090  25.658  0.00  0.00    +0.158 HD
BRANCH  11  21
ATOM     21  C   UNL     1       0.216  -1.114  24.126  0.00  0.00    +0.037 A 
ATOM     24  C   UNL     1       0.027  -0.185  23.103  0.00  0.00    +0.027 A 
ATOM     25  C   UNL     1       1.503  -1.544  24.450  0.00  0.00    +0.027 A 
ATOM     28  C   UNL     1       1.126   0.314  22.403  0.00  0.00    +0.048 A 
ATOM     29  C   UNL     1       2.601  -1.045  23.750  0.00  0.00    +0.048 A 
ATOM     30  C   UNL     1       2.414  -0.115  22.726  0.00  0.00    +0.129 A 
BRANCH  30   6
ATOM      6  O   UNL     1       3.485   0.373  22.045  0.00  0.00    -0.456 OA
BRANCH   6  32
ATOM     32  C   UNL     1       4.731   0.262  22.639  0.00  0.00    +0.128 A 
ATOM     33  C   UNL     1       5.001   0.938  23.828  0.00  0.00    +0.046 A 
ATOM     34  C   UNL     1       5.717  -0.527  22.046  0.00  0.00    +0.046 A 
ATOM     35  C   UNL     1       6.256   0.828  24.425  0.00  0.00    +0.004 A 
ATOM     36  C   UNL     1       6.973  -0.638  22.644  0.00  0.00    +0.004 A 
ATOM     37  C   UNL     1       7.242   0.040  23.833  0.00  0.00    +0.000 A 
ENDBRANCH   6  32
ENDBRANCH  30   6
ENDBRANCH  11  21
ENDBRANCH   4  19
ENDBRANCH  15   4
TORSDOF 8
ENDMDL
MODEL 2
REMARK VINA RESULT:       6.1      2.431      3.516
REMARK  Name = 11886002
REMARK  8 active torsions:
REMARK  status: ('A' for Active; 'I' for Inactive)
REMARK    1  A    between atoms: S_1  and  C_18
REMARK    2  A    between atoms: S_1  and  C_20
REMARK    3  A    between atoms: O_4  and  C_15
REMARK    4  A    between atoms: O_4  and  C_19
REMARK    5  A    between atoms: O_6  and  C_30
REMARK    6  A    between atoms: O_6  and  C_32
REMARK    7  A    between atoms: N_7  and  C_14
REMARK    8  A    between atoms: N_11  and  C_21
REMARK                            x       y       z     vdW  Elec       q    Type
REMARK                         _______ _______ _______ _____ _____    ______ ____
ROOT
ATOM      2  O   UNL     1      -3.771   1.971  23.683  0.00  0.00    -0.368 OA
ATOM      3  O   UNL     1      -5.457   3.142  25.994  0.00  0.00    -0.368 OA
ATOM     12  C   UNL     1      -4.032   3.100  25.757  0.00  0.00    +0.177 C 
ATOM     13  C   UNL     1      -3.736   1.764  25.104  0.00  0.00    +0.192 C 
ATOM     14  C   UNL     1      -3.661   4.128  24.706  0.00  0.00    +0.168 C 
ATOM     15  C   UNL     1      -4.886   0.904  25.570  0.00  0.00    +0.235 C 
ATOM     16  C   UNL     1      -3.892   3.373  23.401  0.00  0.00    +0.190 C 
ATOM     17  C   UNL     1      -6.031   1.890  25.594  0.00  0.00    +0.207 C 
ENDROOT
BRANCH  14   7
ATOM      7  N   UNL     1      -2.309   4.659  24.893  0.00  0.00    -0.212 N 
ATOM      8  N   UNL     1      -2.027   5.926  24.558  0.00  0.00    -0.043 NA
ATOM      9  N   UNL     1      -0.209   4.920  25.363  0.00  0.00    -0.101 NA
ATOM     10  N   UNL     1      -0.742   6.080  24.849  0.00  0.00    -0.022 NA
ATOM     18  C   UNL     1      -1.196   4.055  25.383  0.00  0.00    +0.214 A 
BRANCH  18   1
ATOM      1  S   UNL     1      -1.150   2.422  25.924  0.00  0.00    -0.049 S 
BRANCH   1  20
ATOM     20  C   UNL     1       0.069   2.574  27.231  0.00  0.00    +0.016 A 
ATOM     22  C   UNL     1      -0.334   2.549  28.567  0.00  0.00    +0.015 A 
ATOM     23  C   UNL     1       1.419   2.716  26.913  0.00  0.00    +0.015 A 
ATOM     26  C   UNL     1       0.614   2.667  29.583  0.00  0.00    +0.001 A 
ATOM     27  C   UNL     1       2.367   2.834  27.930  0.00  0.00    +0.001 A 
ATOM     31  C   UNL     1       1.965   2.810  29.265  0.00  0.00    +0.000 A 
ENDBRANCH   1  20
ENDBRANCH  18   1
ENDBRANCH  14   7
BRANCH  15   4
ATOM      4  O   UNL     1      -5.148  -0.194  24.725  0.00  0.00    -0.442 OA
BRANCH   4  19
ATOM      5  O   UNL     1      -4.163  -1.905  23.571  0.00  0.00    -0.226 OA
ATOM     11  N   UNL     1      -2.897  -0.328  24.751  0.00  0.00    -0.251 N 
ATOM     19  C   UNL     1      -4.058  -0.910  24.278  0.00  0.00    +0.405 C 
ATOM     38  H   UNL     1      -3.013   0.501  25.329  0.00  0.00    +0.158 HD
BRANCH  11  21
ATOM     21  C   UNL     1      -1.564  -0.742  24.531  0.00  0.00    +0.037 A 
ATOM     24  C   UNL     1      -1.010  -1.754  25.315  0.00  0.00    +0.027 A 
ATOM     25  C   UNL     1      -0.803  -0.141  23.528  0.00  0.00    +0.027 A 
ATOM     28  C   UNL     1       0.306  -2.164  25.097  0.00  0.00    +0.048 A 
ATOM     29  C   UNL     1       0.513  -0.551  23.310  0.00  0.00    +0.048 A 
ATOM     30  C   UNL     1       1.068  -1.562  24.095  0.00  0.00    +0.129 A 
BRANCH  30   6
ATOM      6  O   UNL     1       2.350  -1.963  23.881  0.00  0.00    -0.456 OA
BRANCH   6  32
ATOM     32  C   UNL     1       3.295  -0.986  23.616  0.00  0.00    +0.128 A 
ATOM     33  C   UNL     1       4.617  -1.167  24.020  0.00  0.00    +0.046 A 
ATOM     34  C   UNL     1       2.923   0.179  22.946  0.00  0.00    +0.046 A 
ATOM     35  C   UNL     1       5.569  -0.182  23.755  0.00  0.00    +0.004 A 
ATOM     36  C   UNL     1       3.875   1.163  22.679  0.00  0.00    +0.004 A 
ATOM     37  C   UNL     1       5.198   0.983  23.085  0.00  0.00    +0.000 A 
ENDBRANCH   6  32
ENDBRANCH  30   6
ENDBRANCH  11  21
ENDBRANCH   4  19
ENDBRANCH  15   4
TORSDOF 8
ENDMDL
MODEL 3
REMARK VINA RESULT:       8.5      1.957      2.858
REMARK  Name = 11886002
REMARK  8 active torsions:
REMARK  status: ('A' for Active; 'I' for Inactive)
REMARK    1  A    between atoms: S_1  and  C_18
REMARK    2  A    between atoms: S_1  and  C_20
REMARK    3  A    between atoms: O_4  and  C_15
REMARK    4  A    between atoms: O_4  and  C_19
REMARK    5  A    between atoms: O_6  and  C_30
REMARK    6  A    between atoms: O_6  and  C_32
REMARK    7  A    between atoms: N_7  and  C_14
REMARK    8  A    between atoms: N_11  and  C_21
REMARK                            x       y       z     vdW  Elec       q    Type
REMARK                         _______ _______ _______ _____ _____    ______ ____
ROOT
ATOM      2  O   UNL     1      -4.679   1.604  23.977  0.00  0.00    -0.368 OA
ATOM      3  O   UNL     1      -6.161   2.607  26.498  0.00  0.00    -0.368 OA
ATOM     12  C   UNL     1      -4.922   3.012  25.875  0.00  0.00    +0.177 C 
ATOM     13  C   UNL     1      -4.266   1.752  25.345  0.00  0.00    +0.192 C 
ATOM     14  C   UNL     1      -5.219   3.836  24.638  0.00  0.00    +0.168 C 
ATOM     15  C   UNL     1      -4.854   0.675  26.225  0.00  0.00    +0.235 C 
ATOM     16  C   UNL     1      -5.402   2.772  23.561  0.00  0.00    +0.190 C 
ATOM     17  C   UNL     1      -6.262   1.178  26.443  0.00  0.00    +0.207 C 
ENDROOT
BRANCH  14   7
ATOM      7  N   UNL     1      -4.183   4.834  24.365  0.00  0.00    -0.212 N 
ATOM      8  N   UNL     1      -4.247   5.593  23.263  0.00  0.00    -0.043 NA
ATOM      9  N   UNL     1      -2.433   6.113  24.450  0.00  0.00    -0.101 NA
ATOM     10  N   UNL     1      -3.176   6.374  23.320  0.00  0.00    -0.022 NA
ATOM     18  C   UNL     1      -3.075   5.157  25.082  0.00  0.00    +0.214 A 
BRANCH  18   1
ATOM      1  S   UNL     1      -2.639   4.404  26.565  0.00  0.00    -0.049 S 
BRANCH   1  20
ATOM     20  C   UNL     1      -1.184   3.502  26.027  0.00  0.00    +0.016 A 
ATOM     22  C   UNL     1      -0.659   3.722  24.753  0.00  0.00    +0.015 A 
ATOM     23  C   UNL     1      -0.578   2.582  26.882  0.00  0.00    +0.015 A 
ATOM     26  C   UNL     1       0.472   3.021  24.335  0.00  0.00    +0.001 A 
ATOM     27  C   UNL     1       0.554   1.881  26.464  0.00  0.00    +0.001 A 
ATOM     31  C   UNL     1       1.078   2.100  25.190  0.00  0.00    +0.000 A 
ENDBRANCH   1  20
ENDBRANCH  18   1
ENDBRANCH  14   7
BRANCH  15   4
ATOM      4  O   UNL     1      -4.831  -0.606  25.639  0.00  0.00    -0.442 OA
BRANCH   4  19
ATOM      5  O   UNL     1      -4.207  -1.394  23.584  0.00  0.00    -0.226 OA
ATOM     11  N   UNL     1      -2.701  -0.269  24.980  0.00  0.00    -0.251 N 
ATOM     19  C   UNL     1      -3.921  -0.812  24.623  0.00  0.00    +0.405 C 
ATOM     38  H   UNL     1      -2.657   0.179  25.892  0.00  0.00    +0.158 HD
BRANCH  11  21
ATOM     21  C   UNL     1      -1.501  -0.259  24.232  0.00  0.00    +0.037 A 
ATOM     24  C   UNL     1      -1.394   0.546  23.098  0.00  0.00    +0.027 A 
ATOM     25  C   UNL     1      -0.425  -1.052  24.630  0.00  0.00    +0.027 A 
ATOM     28  C   UNL     1      -0.210   0.556  22.360  0.00  0.00    +0.048 A 
ATOM     29  C   UNL     1       0.759  -1.041  23.892  0.00  0.00    +0.048 A 
ATOM     30  C   UNL     1       0.867  -0.237  22.757  0.00  0.00    +0.129 A 
BRANCH  30   6
ATOM      6  O   UNL     1       2.022  -0.225  22.039  0.00  0.00    -0.456 OA
BRANCH   6  32
ATOM     32  C   UNL     1       3.217  -0.220  22.739  0.00  0.00    +0.128 A 
ATOM     33  C   UNL     1       3.983   0.942  22.803  0.00  0.00    +0.046 A 
ATOM     34  C   UNL     1       3.653  -1.380  23.380  0.00  0.00    +0.046 A 
ATOM     35  C   UNL     1       5.188   0.947  23.508  0.00  0.00    +0.004 A 
ATOM     36  C   UNL     1       4.857  -1.375  24.085  0.00  0.00    +0.004 A 
ATOM     37  C   UNL     1       5.624  -0.212  24.148  0.00  0.00    +0.000 A 
ENDBRANCH   6  32
ENDBRANCH  30   6
ENDBRANCH  11  21
ENDBRANCH   4  19
ENDBRANCH  15   4
TORSDOF 8
ENDMDL
