MODEL 1
REMARK VINA RESULT:      -4.1      0.000      0.000
REMARK  Name = 75367741
REMARK  9 active torsions:
REMARK  status: ('A' for Active; 'I' for Inactive)
REMARK    1  A    between atoms: O_2  and  C_9
REMARK    2  A    between atoms: O_2  and  C_17
REMARK    3  A    between atoms: O_4  and  C_22
REMARK    4  A    between atoms: O_4  and  C_23
REMARK    5  A    between atoms: C_6  and  C_7
REMARK    6  A    between atoms: C_6  and  C_13
REMARK    7  A    between atoms: C_6  and  C_14
REMARK    8  A    between atoms: C_6  and  C_15
REMARK    9  A    between atoms: C_7  and  C_10
REMARK                            x       y       z     vdW  Elec       q    Type
REMARK                         _______ _______ _______ _____ _____    ______ ____
ROOT
ATOM      1  O   UNL     1       2.319   1.299  23.202  0.00  0.00    -0.375 OA
ATOM      3  O   UNL     1      -0.580  -2.553  24.127  0.00  0.00    -0.276 OA
ATOM      5  N   UNL     1      -0.358  -0.256  23.801  0.00  0.00    -0.296 N 
ATOM      8  C   UNL     1      -0.773   1.105  24.162  0.00  0.00    +0.154 C 
ATOM      9  C   UNL     1       0.126   2.255  23.699  0.00  0.00    +0.216 C 
ATOM     10  C   UNL     1      -0.896  -1.396  24.414  0.00  0.00    +0.216 C 
ATOM     11  C   UNL     1       0.647  -0.427  22.749  0.00  0.00    +0.136 C 
ATOM     12  C   UNL     1       1.581   2.088  24.129  0.00  0.00    +0.206 C 
ATOM     16  C   UNL     1       2.043  -0.097  23.258  0.00  0.00    +0.179 C 
ENDROOT
BRANCH   9   2
ATOM      2  O   UNL     1      -0.368   3.458  24.289  0.00  0.00    -0.485 OA
BRANCH   2  17
ATOM     17  C   UNL     1      -1.694   3.474  24.622  0.00  0.00    +0.121 A 
ATOM     18  C   UNL     1      -2.648   3.022  23.710  0.00  0.00    +0.049 A 
ATOM     19  C   UNL     1      -2.093   3.945  25.873  0.00  0.00    +0.049 A 
ATOM     20  C   UNL     1      -4.001   3.040  24.050  0.00  0.00    +0.049 A 
ATOM     21  C   UNL     1      -3.446   3.962  26.213  0.00  0.00    +0.049 A 
ATOM     22  C   UNL     1      -4.400   3.509  25.301  0.00  0.00    +0.120 A 
BRANCH  22   4
ATOM      4  O   UNL     1      -5.720   3.527  25.632  0.00  0.00    -0.495 OA
ATOM     23  C   UNL     1      -6.296   2.296  26.068  0.00  0.00    +0.277 C 
ENDBRANCH  22   4
ENDBRANCH   2  17
ENDBRANCH   9   2
BRANCH  10   7
ATOM      7  C   UNL     1      -1.920  -1.157  25.497  0.00  0.00    +0.102 C 
BRANCH   7   6
ATOM      6  C   UNL     1      -3.363  -1.379  25.010  0.00  0.00    -0.029 C 
ATOM     13  C   UNL     1      -3.589  -0.744  23.627  0.00  0.00    +0.011 C 
ATOM     14  C   UNL     1      -3.705  -2.877  24.947  0.00  0.00    +0.011 C 
ATOM     15  C   UNL     1      -4.309  -0.702  26.020  0.00  0.00    +0.011 C 
ENDBRANCH   7   6
ENDBRANCH  10   7
TORSDOF 5
ENDMDL
MODEL 2
REMARK VINA RESULT:      -3.7      1.739      4.498
REMARK  Name = 75367741
REMARK  9 active torsions:
REMARK  status: ('A' for Active; 'I' for Inactive)
REMARK    1  A    between atoms: O_2  and  C_9
REMARK    2  A    between atoms: O_2  and  C_17
REMARK    3  A    between atoms: O_4  and  C_22
REMARK    4  A    between atoms: O_4  and  C_23
REMARK    5  A    between atoms: C_6  and  C_7
REMARK    6  A    between atoms: C_6  and  C_13
REMARK    7  A    between atoms: C_6  and  C_14
REMARK    8  A    between atoms: C_6  and  C_15
REMARK    9  A    between atoms: C_7  and  C_10
REMARK                            x       y       z     vdW  Elec       q    Type
REMARK                         _______ _______ _______ _____ _____    ______ ____
ROOT
ATOM      1  O   UNL     1      -4.717  -2.434  23.796  0.00  0.00    -0.375 OA
ATOM      3  O   UNL     1      -0.158  -1.919  25.542  0.00  0.00    -0.276 OA
ATOM      5  N   UNL     1      -2.348  -1.130  25.418  0.00  0.00    -0.296 N 
ATOM      8  C   UNL     1      -3.263   0.014  25.348  0.00  0.00    +0.154 C 
ATOM      9  C   UNL     1      -4.709  -0.272  24.933  0.00  0.00    +0.216 C 
ATOM     10  C   UNL     1      -0.955  -0.981  25.470  0.00  0.00    +0.216 C 
ATOM     11  C   UNL     1      -2.915  -2.481  25.448  0.00  0.00    +0.136 C 
ATOM     12  C   UNL     1      -4.814  -1.026  23.611  0.00  0.00    +0.206 C 
ATOM     16  C   UNL     1      -3.403  -2.908  24.070  0.00  0.00    +0.179 C 
ENDROOT
BRANCH   9   2
ATOM      2  O   UNL     1      -5.372   0.983  24.774  0.00  0.00    -0.485 OA
BRANCH   2  17
ATOM     17  C   UNL     1      -4.585   2.100  24.821  0.00  0.00    +0.121 A 
ATOM     18  C   UNL     1      -4.357   2.743  26.038  0.00  0.00    +0.049 A 
ATOM     19  C   UNL     1      -4.010   2.598  23.652  0.00  0.00    +0.049 A 
ATOM     20  C   UNL     1      -3.554   3.883  26.085  0.00  0.00    +0.049 A 
ATOM     21  C   UNL     1      -3.207   3.738  23.699  0.00  0.00    +0.049 A 
ATOM     22  C   UNL     1      -2.979   4.380  24.916  0.00  0.00    +0.120 A 
BRANCH  22   4
ATOM      4  O   UNL     1      -2.196   5.492  24.963  0.00  0.00    -0.495 OA
ATOM     23  C   UNL     1      -0.784   5.294  24.908  0.00  0.00    +0.277 C 
ENDBRANCH  22   4
ENDBRANCH   2  17
ENDBRANCH   9   2
BRANCH  10   7
ATOM      7  C   UNL     1      -0.429   0.434  25.427  0.00  0.00    +0.102 C 
BRANCH   7   6
ATOM      6  C   UNL     1      -0.021   0.874  24.010  0.00  0.00    -0.029 C 
ATOM     13  C   UNL     1       1.033  -0.074  23.413  0.00  0.00    +0.011 C 
ATOM     14  C   UNL     1      -1.241   0.937  23.074  0.00  0.00    +0.011 C 
ATOM     15  C   UNL     1       0.590   2.284  24.114  0.00  0.00    +0.011 C 
ENDBRANCH   7   6
ENDBRANCH  10   7
TORSDOF 5
ENDMDL
MODEL 3
REMARK VINA RESULT:      -3.6      1.798      5.138
REMARK  Name = 75367741
REMARK  9 active torsions:
REMARK  status: ('A' for Active; 'I' for Inactive)
REMARK    1  A    between atoms: O_2  and  C_9
REMARK    2  A    between atoms: O_2  and  C_17
REMARK    3  A    between atoms: O_4  and  C_22
REMARK    4  A    between atoms: O_4  and  C_23
REMARK    5  A    between atoms: C_6  and  C_7
REMARK    6  A    between atoms: C_6  and  C_13
REMARK    7  A    between atoms: C_6  and  C_14
REMARK    8  A    between atoms: C_6  and  C_15
REMARK    9  A    between atoms: C_7  and  C_10
REMARK                            x       y       z     vdW  Elec       q    Type
REMARK                         _______ _______ _______ _____ _____    ______ ____
ROOT
ATOM      1  O   UNL     1      -5.789   4.228  25.444  0.00  0.00    -0.375 OA
ATOM      3  O   UNL     1      -5.617  -0.542  24.298  0.00  0.00    -0.276 OA
ATOM      5  N   UNL     1      -4.611   1.307  25.299  0.00  0.00    -0.296 N 
ATOM      8  C   UNL     1      -3.385   2.057  25.594  0.00  0.00    +0.154 C 
ATOM      9  C   UNL     1      -3.549   3.498  26.088  0.00  0.00    +0.216 C 
ATOM     10  C   UNL     1      -4.608   0.120  24.554  0.00  0.00    +0.216 C 
ATOM     11  C   UNL     1      -5.885   1.813  25.816  0.00  0.00    +0.136 C 
ATOM     12  C   UNL     1      -4.401   4.356  25.158  0.00  0.00    +0.206 C 
ATOM     16  C   UNL     1      -6.376   3.006  25.008  0.00  0.00    +0.179 C 
ENDROOT
BRANCH   9   2
ATOM      2  O   UNL     1      -2.249   4.085  26.156  0.00  0.00    -0.485 OA
BRANCH   2  17
ATOM     17  C   UNL     1      -1.242   3.414  25.520  0.00  0.00    +0.121 A 
ATOM     18  C   UNL     1      -0.880   3.766  24.220  0.00  0.00    +0.049 A 
ATOM     19  C   UNL     1      -0.577   2.374  26.171  0.00  0.00    +0.049 A 
ATOM     20  C   UNL     1       0.147   3.081  23.571  0.00  0.00    +0.049 A 
ATOM     21  C   UNL     1       0.450   1.688  25.522  0.00  0.00    +0.049 A 
ATOM     22  C   UNL     1       0.812   2.042  24.222  0.00  0.00    +0.120 A 
BRANCH  22   4
ATOM      4  O   UNL     1       1.813   1.373  23.589  0.00  0.00    -0.495 OA
ATOM     23  C   UNL     1       1.457   0.179  22.893  0.00  0.00    +0.277 C 
ENDBRANCH  22   4
ENDBRANCH   2  17
ENDBRANCH   9   2
BRANCH  10   7
ATOM      7  C   UNL     1      -3.268  -0.348  24.040  0.00  0.00    +0.102 C 
BRANCH   7   6
ATOM      6  C   UNL     1      -2.723  -1.561  24.815  0.00  0.00    -0.029 C 
ATOM     13  C   UNL     1      -3.351  -2.872  24.311  0.00  0.00    +0.011 C 
ATOM     14  C   UNL     1      -1.191  -1.651  24.702  0.00  0.00    +0.011 C 
ATOM     15  C   UNL     1      -3.095  -1.377  26.298  0.00  0.00    +0.011 C 
ENDBRANCH   7   6
ENDBRANCH  10   7
TORSDOF 5
ENDMDL
MODEL 4
REMARK VINA RESULT:      -3.4      1.772      5.054
REMARK  Name = 75367741
REMARK  9 active torsions:
REMARK  status: ('A' for Active; 'I' for Inactive)
REMARK    1  A    between atoms: O_2  and  C_9
REMARK    2  A    between atoms: O_2  and  C_17
REMARK    3  A    between atoms: O_4  and  C_22
REMARK    4  A    between atoms: O_4  and  C_23
REMARK    5  A    between atoms: C_6  and  C_7
REMARK    6  A    between atoms: C_6  and  C_13
REMARK    7  A    between atoms: C_6  and  C_14
REMARK    8  A    between atoms: C_6  and  C_15
REMARK    9  A    between atoms: C_7  and  C_10
REMARK                            x       y       z     vdW  Elec       q    Type
REMARK                         _______ _______ _______ _____ _____    ______ ____
ROOT
ATOM      1  O   UNL     1      -0.300   5.528  24.879  0.00  0.00    -0.375 OA
ATOM      3  O   UNL     1      -5.099   4.508  25.057  0.00  0.00    -0.276 OA
ATOM      5  N   UNL     1      -2.894   3.768  25.221  0.00  0.00    -0.296 N 
ATOM      8  C   UNL     1      -1.907   2.713  24.971  0.00  0.00    +0.154 C 
ATOM      9  C   UNL     1      -0.429   3.097  25.083  0.00  0.00    +0.216 C 
ATOM     10  C   UNL     1      -4.240   3.647  24.850  0.00  0.00    +0.216 C 
ATOM     11  C   UNL     1      -2.456   4.992  25.899  0.00  0.00    +0.136 C 
ATOM     12  C   UNL     1      -0.053   4.294  24.214  0.00  0.00    +0.206 C 
ATOM     16  C   UNL     1      -1.673   5.896  24.958  0.00  0.00    +0.179 C 
ENDROOT
BRANCH   9   2
ATOM      2  O   UNL     1       0.346   1.980  24.646  0.00  0.00    -0.485 OA
BRANCH   2  17
ATOM     17  C   UNL     1      -0.272   0.760  24.676  0.00  0.00    +0.121 A 
ATOM     18  C   UNL     1      -0.176  -0.098  23.581  0.00  0.00    +0.049 A 
ATOM     19  C   UNL     1      -0.999   0.374  25.802  0.00  0.00    +0.049 A 
ATOM     20  C   UNL     1      -0.807  -1.342  23.611  0.00  0.00    +0.049 A 
ATOM     21  C   UNL     1      -1.630  -0.870  25.833  0.00  0.00    +0.049 A 
ATOM     22  C   UNL     1      -1.533  -1.728  24.737  0.00  0.00    +0.120 A 
BRANCH  22   4
ATOM      4  O   UNL     1      -2.149  -2.941  24.767  0.00  0.00    -0.495 OA
ATOM     23  C   UNL     1      -3.553  -2.962  24.518  0.00  0.00    +0.277 C 
ENDBRANCH  22   4
ENDBRANCH   2  17
ENDBRANCH   9   2
BRANCH  10   7
ATOM      7  C   UNL     1      -4.631   2.369  24.148  0.00  0.00    +0.102 C 
BRANCH   7   6
ATOM      6  C   UNL     1      -5.520   1.460  25.015  0.00  0.00    -0.029 C 
ATOM     13  C   UNL     1      -5.707   2.046  26.425  0.00  0.00    +0.011 C 
ATOM     14  C   UNL     1      -6.897   1.244  24.364  0.00  0.00    +0.011 C 
ATOM     15  C   UNL     1      -4.817   0.096  25.140  0.00  0.00    +0.011 C 
ENDBRANCH   7   6
ENDBRANCH  10   7
TORSDOF 5
ENDMDL
MODEL 5
REMARK VINA RESULT:      -3.2      1.397      2.165
REMARK  Name = 75367741
REMARK  9 active torsions:
REMARK  status: ('A' for Active; 'I' for Inactive)
REMARK    1  A    between atoms: O_2  and  C_9
REMARK    2  A    between atoms: O_2  and  C_17
REMARK    3  A    between atoms: O_4  and  C_22
REMARK    4  A    between atoms: O_4  and  C_23
REMARK    5  A    between atoms: C_6  and  C_7
REMARK    6  A    between atoms: C_6  and  C_13
REMARK    7  A    between atoms: C_6  and  C_14
REMARK    8  A    between atoms: C_6  and  C_15
REMARK    9  A    between atoms: C_7  and  C_10
REMARK                            x       y       z     vdW  Elec       q    Type
REMARK                         _______ _______ _______ _____ _____    ______ ____
ROOT
ATOM      1  O   UNL     1       0.480   2.894  23.856  0.00  0.00    -0.375 OA
ATOM      3  O   UNL     1      -0.040  -1.723  25.439  0.00  0.00    -0.276 OA
ATOM      5  N   UNL     1      -0.864   0.062  24.187  0.00  0.00    -0.296 N 
ATOM      8  C   UNL     1      -2.021   0.835  23.723  0.00  0.00    +0.154 C 
ATOM      9  C   UNL     1      -1.741   2.209  23.107  0.00  0.00    +0.216 C 
ATOM     10  C   UNL     1      -0.989  -1.043  25.041  0.00  0.00    +0.216 C 
ATOM     11  C   UNL     1       0.471   0.452  23.727  0.00  0.00    +0.136 C 
ATOM     12  C   UNL     1      -0.917   3.116  24.016  0.00  0.00    +0.206 C 
ATOM     16  C   UNL     1       0.965   1.696  24.453  0.00  0.00    +0.179 C 
ENDROOT
BRANCH   9   2
ATOM      2  O   UNL     1      -2.999   2.848  22.878  0.00  0.00    -0.485 OA
BRANCH   2  17
ATOM     17  C   UNL     1      -3.914   2.775  23.892  0.00  0.00    +0.121 A 
ATOM     18  C   UNL     1      -4.245   3.920  24.616  0.00  0.00    +0.049 A 
ATOM     19  C   UNL     1      -4.514   1.555  24.203  0.00  0.00    +0.049 A 
ATOM     20  C   UNL     1      -5.178   3.845  25.651  0.00  0.00    +0.049 A 
ATOM     21  C   UNL     1      -5.446   1.480  25.238  0.00  0.00    +0.049 A 
ATOM     22  C   UNL     1      -5.779   2.626  25.961  0.00  0.00    +0.120 A 
BRANCH  22   4
ATOM      4  O   UNL     1      -6.688   2.553  26.971  0.00  0.00    -0.495 OA
ATOM     23  C   UNL     1      -6.920   1.267  27.544  0.00  0.00    +0.277 C 
ENDBRANCH  22   4
ENDBRANCH   2  17
ENDBRANCH   9   2
BRANCH  10   7
ATOM      7  C   UNL     1      -2.387  -1.393  25.488  0.00  0.00    +0.102 C 
BRANCH   7   6
ATOM      6  C   UNL     1      -3.047  -2.461  24.598  0.00  0.00    -0.029 C 
ATOM     13  C   UNL     1      -4.249  -1.883  23.831  0.00  0.00    +0.011 C 
ATOM     14  C   UNL     1      -2.039  -3.053  23.598  0.00  0.00    +0.011 C 
ATOM     15  C   UNL     1      -3.550  -3.592  25.515  0.00  0.00    +0.011 C 
ENDBRANCH   7   6
ENDBRANCH  10   7
TORSDOF 5
ENDMDL
MODEL 6
REMARK VINA RESULT:      -2.9      2.037      6.237
REMARK  Name = 75367741
REMARK  9 active torsions:
REMARK  status: ('A' for Active; 'I' for Inactive)
REMARK    1  A    between atoms: O_2  and  C_9
REMARK    2  A    between atoms: O_2  and  C_17
REMARK    3  A    between atoms: O_4  and  C_22
REMARK    4  A    between atoms: O_4  and  C_23
REMARK    5  A    between atoms: C_6  and  C_7
REMARK    6  A    between atoms: C_6  and  C_13
REMARK    7  A    between atoms: C_6  and  C_14
REMARK    8  A    between atoms: C_6  and  C_15
REMARK    9  A    between atoms: C_7  and  C_10
REMARK                            x       y       z     vdW  Elec       q    Type
REMARK                         _______ _______ _______ _____ _____    ______ ____
ROOT
ATOM      1  O   UNL     1      -6.484   3.702  25.802  0.00  0.00    -0.375 OA
ATOM      3  O   UNL     1      -1.741   4.907  25.422  0.00  0.00    -0.276 OA
ATOM      5  N   UNL     1      -3.464   3.412  24.943  0.00  0.00    -0.296 N 
ATOM      8  C   UNL     1      -3.906   2.023  24.779  0.00  0.00    +0.154 C 
ATOM      9  C   UNL     1      -5.415   1.766  24.764  0.00  0.00    +0.216 C 
ATOM     10  C   UNL     1      -2.148   3.750  25.288  0.00  0.00    +0.216 C 
ATOM     11  C   UNL     1      -4.435   4.487  24.724  0.00  0.00    +0.136 C 
ATOM     12  C   UNL     1      -6.131   2.335  25.985  0.00  0.00    +0.206 C 
ATOM     16  C   UNL     1      -5.396   4.615  25.898  0.00  0.00    +0.179 C 
ENDROOT
BRANCH   9   2
ATOM      2  O   UNL     1      -5.616   0.352  24.759  0.00  0.00    -0.485 OA
BRANCH   2  17
ATOM     17  C   UNL     1      -4.491  -0.424  24.789  0.00  0.00    +0.121 A 
ATOM     18  C   UNL     1      -4.299  -1.413  23.824  0.00  0.00    +0.049 A 
ATOM     19  C   UNL     1      -3.535  -0.229  25.786  0.00  0.00    +0.049 A 
ATOM     20  C   UNL     1      -3.152  -2.205  23.855  0.00  0.00    +0.049 A 
ATOM     21  C   UNL     1      -2.387  -1.021  25.817  0.00  0.00    +0.049 A 
ATOM     22  C   UNL     1      -2.195  -2.009  24.851  0.00  0.00    +0.120 A 
BRANCH  22   4
ATOM      4  O   UNL     1      -1.076  -2.782  24.882  0.00  0.00    -0.495 OA
ATOM     23  C   UNL     1       0.119  -2.175  25.369  0.00  0.00    +0.277 C 
ENDBRANCH  22   4
ENDBRANCH   2  17
ENDBRANCH   9   2
BRANCH  10   7
ATOM      7  C   UNL     1      -1.195   2.601  25.510  0.00  0.00    +0.102 C 
BRANCH   7   6
ATOM      6  C   UNL     1      -0.404   2.230  24.243  0.00  0.00    -0.029 C 
ATOM     13  C   UNL     1       0.850   1.410  24.590  0.00  0.00    +0.011 C 
ATOM     14  C   UNL     1      -1.277   1.438  23.255  0.00  0.00    +0.011 C 
ATOM     15  C   UNL     1       0.039   3.540  23.566  0.00  0.00    +0.011 C 
ENDBRANCH   7   6
ENDBRANCH  10   7
TORSDOF 5
ENDMDL
MODEL 7
REMARK VINA RESULT:      -2.5      1.653      4.269
REMARK  Name = 75367741
REMARK  9 active torsions:
REMARK  status: ('A' for Active; 'I' for Inactive)
REMARK    1  A    between atoms: O_2  and  C_9
REMARK    2  A    between atoms: O_2  and  C_17
REMARK    3  A    between atoms: O_4  and  C_22
REMARK    4  A    between atoms: O_4  and  C_23
REMARK    5  A    between atoms: C_6  and  C_7
REMARK    6  A    between atoms: C_6  and  C_13
REMARK    7  A    between atoms: C_6  and  C_14
REMARK    8  A    between atoms: C_6  and  C_15
REMARK    9  A    between atoms: C_7  and  C_10
REMARK                            x       y       z     vdW  Elec       q    Type
REMARK                         _______ _______ _______ _____ _____    ______ ____
ROOT
ATOM      1  O   UNL     1      -2.212  -2.928  24.282  0.00  0.00    -0.375 OA
ATOM      3  O   UNL     1       1.019   0.762  24.061  0.00  0.00    -0.276 OA
ATOM      5  N   UNL     1      -1.033  -0.052  24.812  0.00  0.00    -0.296 N 
ATOM      8  C   UNL     1      -2.449   0.201  25.101  0.00  0.00    +0.154 C 
ATOM      9  C   UNL     1      -3.350  -1.021  25.299  0.00  0.00    +0.216 C 
ATOM     10  C   UNL     1      -0.178   0.936  24.303  0.00  0.00    +0.216 C 
ATOM     11  C   UNL     1      -0.490  -1.386  25.080  0.00  0.00    +0.136 C 
ATOM     12  C   UNL     1      -3.287  -2.007  24.136  0.00  0.00    +0.206 C 
ATOM     16  C   UNL     1      -0.923  -2.385  24.016  0.00  0.00    +0.179 C 
ENDROOT
BRANCH   9   2
ATOM      2  O   UNL     1      -4.697  -0.555  25.404  0.00  0.00    -0.485 OA
BRANCH   2  17
ATOM     17  C   UNL     1      -4.891   0.791  25.259  0.00  0.00    +0.121 A 
ATOM     18  C   UNL     1      -4.359   1.457  24.155  0.00  0.00    +0.049 A 
ATOM     19  C   UNL     1      -5.619   1.498  26.216  0.00  0.00    +0.049 A 
ATOM     20  C   UNL     1      -4.556   2.830  24.007  0.00  0.00    +0.049 A 
ATOM     21  C   UNL     1      -5.816   2.871  26.068  0.00  0.00    +0.049 A 
ATOM     22  C   UNL     1      -5.285   3.537  24.963  0.00  0.00    +0.120 A 
BRANCH  22   4
ATOM      4  O   UNL     1      -5.477   4.876  24.820  0.00  0.00    -0.495 OA
ATOM     23  C   UNL     1      -6.500   5.474  25.614  0.00  0.00    +0.277 C 
ENDBRANCH  22   4
ENDBRANCH   2  17
ENDBRANCH   9   2
BRANCH  10   7
ATOM      7  C   UNL     1      -0.796   2.288  24.039  0.00  0.00    +0.102 C 
BRANCH   7   6
ATOM      6  C   UNL     1      -0.646   3.253  25.228  0.00  0.00    -0.029 C 
ATOM     13  C   UNL     1      -1.989   3.461  25.949  0.00  0.00    +0.011 C 
ATOM     14  C   UNL     1       0.400   2.742  26.232  0.00  0.00    +0.011 C 
ATOM     15  C   UNL     1      -0.173   4.610  24.675  0.00  0.00    +0.011 C 
ENDBRANCH   7   6
ENDBRANCH  10   7
TORSDOF 5
ENDMDL
MODEL 8
REMARK VINA RESULT:      -2.3      1.917      4.495
REMARK  Name = 75367741
REMARK  9 active torsions:
REMARK  status: ('A' for Active; 'I' for Inactive)
REMARK    1  A    between atoms: O_2  and  C_9
REMARK    2  A    between atoms: O_2  and  C_17
REMARK    3  A    between atoms: O_4  and  C_22
REMARK    4  A    between atoms: O_4  and  C_23
REMARK    5  A    between atoms: C_6  and  C_7
REMARK    6  A    between atoms: C_6  and  C_13
REMARK    7  A    between atoms: C_6  and  C_14
REMARK    8  A    between atoms: C_6  and  C_15
REMARK    9  A    between atoms: C_7  and  C_10
REMARK                            x       y       z     vdW  Elec       q    Type
REMARK                         _______ _______ _______ _____ _____    ______ ____
ROOT
ATOM      1  O   UNL     1      -1.857  -3.190  24.485  0.00  0.00    -0.375 OA
ATOM      3  O   UNL     1      -5.925  -0.461  24.794  0.00  0.00    -0.276 OA
ATOM      5  N   UNL     1      -3.636  -0.590  24.373  0.00  0.00    -0.296 N 
ATOM      8  C   UNL     1      -2.307   0.021  24.487  0.00  0.00    +0.154 C 
ATOM      9  C   UNL     1      -1.099  -0.883  24.227  0.00  0.00    +0.216 C 
ATOM     10  C   UNL     1      -4.792   0.017  24.883  0.00  0.00    +0.216 C 
ATOM     11  C   UNL     1      -3.760  -1.879  23.687  0.00  0.00    +0.136 C 
ATOM     12  C   UNL     1      -1.100  -2.145  25.084  0.00  0.00    +0.206 C 
ATOM     16  C   UNL     1      -3.268  -3.022  24.563  0.00  0.00    +0.179 C 
ENDROOT
BRANCH   9   2
ATOM      2  O   UNL     1       0.078  -0.139  24.547  0.00  0.00    -0.485 OA
BRANCH   2  17
ATOM     17  C   UNL     1      -0.076   1.212  24.694  0.00  0.00    +0.121 A 
ATOM     18  C   UNL     1      -0.274   1.759  25.961  0.00  0.00    +0.049 A 
ATOM     19  C   UNL     1      -0.036   2.044  23.574  0.00  0.00    +0.049 A 
ATOM     20  C   UNL     1      -0.431   3.137  26.110  0.00  0.00    +0.049 A 
ATOM     21  C   UNL     1      -0.194   3.422  23.723  0.00  0.00    +0.049 A 
ATOM     22  C   UNL     1      -0.391   3.969  24.991  0.00  0.00    +0.120 A 
BRANCH  22   4
ATOM      4  O   UNL     1      -0.545   5.313  25.137  0.00  0.00    -0.495 OA
ATOM     23  C   UNL     1      -1.878   5.820  25.107  0.00  0.00    +0.277 C 
ENDBRANCH  22   4
ENDBRANCH   2  17
ENDBRANCH   9   2
BRANCH  10   7
ATOM      7  C   UNL     1      -4.602   1.339  25.587  0.00  0.00    +0.102 C 
BRANCH   7   6
ATOM      6  C   UNL     1      -5.196   2.522  24.803  0.00  0.00    -0.029 C 
ATOM     13  C   UNL     1      -4.385   2.809  23.528  0.00  0.00    +0.011 C 
ATOM     14  C   UNL     1      -6.664   2.260  24.427  0.00  0.00    +0.011 C 
ATOM     15  C   UNL     1      -5.137   3.765  25.711  0.00  0.00    +0.011 C 
ENDBRANCH   7   6
ENDBRANCH  10   7
TORSDOF 5
ENDMDL
MODEL 9
REMARK VINA RESULT:      -2.3      1.965      5.172
REMARK  Name = 75367741
REMARK  9 active torsions:
REMARK  status: ('A' for Active; 'I' for Inactive)
REMARK    1  A    between atoms: O_2  and  C_9
REMARK    2  A    between atoms: O_2  and  C_17
REMARK    3  A    between atoms: O_4  and  C_22
REMARK    4  A    between atoms: O_4  and  C_23
REMARK    5  A    between atoms: C_6  and  C_7
REMARK    6  A    between atoms: C_6  and  C_13
REMARK    7  A    between atoms: C_6  and  C_14
REMARK    8  A    between atoms: C_6  and  C_15
REMARK    9  A    between atoms: C_7  and  C_10
REMARK                            x       y       z     vdW  Elec       q    Type
REMARK                         _______ _______ _______ _____ _____    ______ ____
ROOT
ATOM      1  O   UNL     1       0.488   2.957  23.713  0.00  0.00    -0.375 OA
ATOM      3  O   UNL     1      -3.361   5.500  25.390  0.00  0.00    -0.276 OA
ATOM      5  N   UNL     1      -1.778   3.823  25.727  0.00  0.00    -0.296 N 
ATOM      8  C   UNL     1      -1.455   2.498  26.268  0.00  0.00    +0.154 C 
ATOM      9  C   UNL     1      -0.153   1.848  25.793  0.00  0.00    +0.216 C 
ATOM     10  C   UNL     1      -3.059   4.385  25.822  0.00  0.00    +0.216 C 
ATOM     11  C   UNL     1      -0.715   4.592  25.075  0.00  0.00    +0.136 C 
ATOM     12  C   UNL     1      -0.046   1.762  24.273  0.00  0.00    +0.206 C 
ATOM     16  C   UNL     1      -0.417   4.055  23.682  0.00  0.00    +0.179 C 
ENDROOT
BRANCH   9   2
ATOM      2  O   UNL     1      -0.118   0.516  26.308  0.00  0.00    -0.485 OA
BRANCH   2  17
ATOM     17  C   UNL     1      -1.020  -0.366  25.782  0.00  0.00    +0.121 A 
ATOM     18  C   UNL     1      -2.387  -0.162  25.969  0.00  0.00    +0.049 A 
ATOM     19  C   UNL     1      -0.573  -1.473  25.059  0.00  0.00    +0.049 A 
ATOM     20  C   UNL     1      -3.307  -1.062  25.432  0.00  0.00    +0.049 A 
ATOM     21  C   UNL     1      -1.494  -2.373  24.522  0.00  0.00    +0.049 A 
ATOM     22  C   UNL     1      -2.861  -2.168  24.708  0.00  0.00    +0.120 A 
BRANCH  22   4
ATOM      4  O   UNL     1      -3.758  -3.046  24.185  0.00  0.00    -0.495 OA
ATOM     23  C   UNL     1      -4.827  -2.500  23.414  0.00  0.00    +0.277 C 
ENDBRANCH  22   4
ENDBRANCH   2  17
ENDBRANCH   9   2
BRANCH  10   7
ATOM      7  C   UNL     1      -4.114   3.542  26.496  0.00  0.00    +0.102 C 
BRANCH   7   6
ATOM      6  C   UNL     1      -5.232   3.105  25.532  0.00  0.00    -0.029 C 
ATOM     13  C   UNL     1      -6.010   1.901  26.091  0.00  0.00    +0.011 C 
ATOM     14  C   UNL     1      -6.209   4.260  25.253  0.00  0.00    +0.011 C 
ATOM     15  C   UNL     1      -4.572   2.690  24.204  0.00  0.00    +0.011 C 
ENDBRANCH   7   6
ENDBRANCH  10   7
TORSDOF 5
ENDMDL
MODEL 10
REMARK VINA RESULT:      -1.9      1.962      6.529
REMARK  Name = 75367741
REMARK  9 active torsions:
REMARK  status: ('A' for Active; 'I' for Inactive)
REMARK    1  A    between atoms: O_2  and  C_9
REMARK    2  A    between atoms: O_2  and  C_17
REMARK    3  A    between atoms: O_4  and  C_22
REMARK    4  A    between atoms: O_4  and  C_23
REMARK    5  A    between atoms: C_6  and  C_7
REMARK    6  A    between atoms: C_6  and  C_13
REMARK    7  A    between atoms: C_6  and  C_14
REMARK    8  A    between atoms: C_6  and  C_15
REMARK    9  A    between atoms: C_7  and  C_10
REMARK                            x       y       z     vdW  Elec       q    Type
REMARK                         _______ _______ _______ _____ _____    ______ ____
ROOT
ATOM      1  O   UNL     1      -6.538   1.409  26.442  0.00  0.00    -0.375 OA
ATOM      3  O   UNL     1      -4.047   4.706  23.792  0.00  0.00    -0.276 OA
ATOM      5  N   UNL     1      -4.439   2.475  24.345  0.00  0.00    -0.296 N 
ATOM      8  C   UNL     1      -3.900   1.131  24.578  0.00  0.00    +0.154 C 
ATOM      9  C   UNL     1      -4.812   0.125  25.285  0.00  0.00    +0.216 C 
ATOM     10  C   UNL     1      -3.626   3.566  24.007  0.00  0.00    +0.216 C 
ATOM     11  C   UNL     1      -5.885   2.680  24.459  0.00  0.00    +0.136 C 
ATOM     12  C   UNL     1      -5.353   0.640  26.616  0.00  0.00    +0.206 C 
ATOM     16  C   UNL     1      -6.328   2.714  25.915  0.00  0.00    +0.179 C 
ENDROOT
BRANCH   9   2
ATOM      2  O   UNL     1      -4.042  -1.049  25.552  0.00  0.00    -0.485 OA
BRANCH   2  17
ATOM     17  C   UNL     1      -2.748  -1.043  25.110  0.00  0.00    +0.121 A 
ATOM     18  C   UNL     1      -2.296  -2.051  24.260  0.00  0.00    +0.049 A 
ATOM     19  C   UNL     1      -1.879  -0.028  25.513  0.00  0.00    +0.049 A 
ATOM     20  C   UNL     1      -0.975  -2.045  23.811  0.00  0.00    +0.049 A 
ATOM     21  C   UNL     1      -0.558  -0.022  25.064  0.00  0.00    +0.049 A 
ATOM     22  C   UNL     1      -0.106  -1.030  24.212  0.00  0.00    +0.120 A 
BRANCH  22   4
ATOM      4  O   UNL     1       1.182  -1.024  23.774  0.00  0.00    -0.495 OA
ATOM     23  C   UNL     1       1.532  -0.041  22.801  0.00  0.00    +0.277 C 
ENDBRANCH  22   4
ENDBRANCH   2  17
ENDBRANCH   9   2
BRANCH  10   7
ATOM      7  C   UNL     1      -2.144   3.296  23.914  0.00  0.00    +0.102 C 
BRANCH   7   6
ATOM      6  C   UNL     1      -1.359   3.864  25.110  0.00  0.00    -0.029 C 
ATOM     13  C   UNL     1      -0.042   3.097  25.327  0.00  0.00    +0.011 C 
ATOM     14  C   UNL     1      -1.054   5.359  24.917  0.00  0.00    +0.011 C 
ATOM     15  C   UNL     1      -2.234   3.700  26.367  0.00  0.00    +0.011 C 
ENDBRANCH   7   6
ENDBRANCH  10   7
TORSDOF 5
ENDMDL
