MODEL 1
REMARK VINA RESULT:       7.0      0.000      0.000
REMARK  Name = 11883107
REMARK  13 active torsions:
REMARK  status: ('A' for Active; 'I' for Inactive)
REMARK    1  A    between atoms: O_2  and  C_17
REMARK    2  A    between atoms: O_3  and  C_22
REMARK    3  A    between atoms: O_6  and  C_31
REMARK    4  A    between atoms: O_6  and  C_36
REMARK    5  A    between atoms: N_9  and  C_28
REMARK    6  A    between atoms: N_11  and  C_30
REMARK    7  A    between atoms: C_12  and  C_20
REMARK    8  A    between atoms: C_14  and  C_22
REMARK    9  A    between atoms: C_14  and  C_23
REMARK   10  A    between atoms: C_15  and  C_25
REMARK   11  A    between atoms: C_25  and  C_26
REMARK   12  A    between atoms: C_28  and  C_30
REMARK   13  A    between atoms: C_29  and  C_31
REMARK                            x       y       z     vdW  Elec       q    Type
REMARK                         _______ _______ _______ _____ _____    ______ ____
ROOT
ATOM      1  S   UNL     1       0.337   2.895  24.101  0.00  0.00    -0.057 S 
ATOM      5  O   UNL     1       2.897  -0.751  22.721  0.00  0.00    -0.273 OA
ATOM      8  N   UNL     1       0.263   0.380  23.501  0.00  0.00    -0.229 NA
ATOM     10  N   UNL     1       2.408   1.471  23.358  0.00  0.00    -0.263 N 
ATOM     12  C   UNL     1      -3.427   0.353  24.622  0.00  0.00    -0.019 C 
ATOM     13  C   UNL     1      -3.650   1.869  24.190  0.00  0.00    +0.011 C 
ATOM     14  C   UNL     1      -5.049   2.512  24.534  0.00  0.00    +0.021 C 
ATOM     15  C   UNL     1      -2.170  -0.211  23.811  0.00  0.00    +0.054 C 
ATOM     16  C   UNL     1      -4.673  -0.485  24.234  0.00  0.00    +0.010 C 
ATOM     17  C   UNL     1      -6.181   1.527  24.124  0.00  0.00    +0.123 C 
ATOM     18  C   UNL     1      -2.437   2.758  24.585  0.00  0.00    +0.049 C 
ATOM     19  C   UNL     1      -5.991   0.124  24.692  0.00  0.00    +0.032 C 
ATOM     20  C   UNL     1      -3.173   0.192  26.141  0.00  0.00    +0.012 C 
ATOM     21  C   UNL     1      -1.018   0.762  23.851  0.00  0.00    +0.058 A 
ATOM     23  C   UNL     1      -5.234   3.805  23.689  0.00  0.00    +0.016 C 
ATOM     24  C   UNL     1      -1.164   2.093  24.183  0.00  0.00    +0.015 A 
ATOM     27  C   UNL     1       1.061   1.420  23.603  0.00  0.00    +0.165 A 
ATOM     29  C   UNL     1       3.232   0.408  22.941  0.00  0.00    +0.244 C 
ATOM     40  H   UNL     1       2.837   2.382  23.499  0.00  0.00    +0.157 HD
ENDROOT
BRANCH  17   2
ATOM      2  O   UNL     1      -7.453   2.022  24.539  0.00  0.00    -0.391 OA
ATOM     37  H   UNL     1      -7.784   2.609  23.839  0.00  0.00    +0.210 HD
ENDBRANCH  17   2
BRANCH  14  22
ATOM     22  C   UNL     1      -5.207   2.951  26.005  0.00  0.00    +0.165 C 
BRANCH  22   3
ATOM      3  O   UNL     1      -6.199   3.952  26.053  0.00  0.00    -0.394 OA
ATOM     38  H   UNL     1      -6.275   4.242  26.978  0.00  0.00    +0.209 HD
ENDBRANCH  22   3
ENDBRANCH  14  22
BRANCH  15  25
ATOM     25  C   UNL     1      -1.727  -1.622  24.220  0.00  0.00    +0.106 C 
BRANCH  25  26
ATOM      4  O   UNL     1      -0.005  -2.498  25.677  0.00  0.00    -0.276 OA
ATOM      9  N   UNL     1      -0.981  -0.444  26.159  0.00  0.00    -0.314 N 
ATOM     26  C   UNL     1      -0.801  -1.601  25.414  0.00  0.00    +0.214 C 
ATOM     39  H   UNL     1      -1.662   0.244  25.853  0.00  0.00    +0.149 HD
BRANCH   9  28
ATOM     28  C   UNL     1      -0.231  -0.155  27.361  0.00  0.00    +0.119 C 
BRANCH  28  30
ATOM     30  C   UNL     1      -0.216   1.338  27.654  0.00  0.00    +0.103 C 
BRANCH  30  11
ATOM      7  O   UNL     1       2.644   3.547  29.789  0.00  0.00    -0.377 OA
ATOM     11  N   UNL     1       1.005   1.701  28.372  0.00  0.00    -0.297 NA
ATOM     32  C   UNL     1       0.698   2.098  29.754  0.00  0.00    +0.112 C 
ATOM     33  C   UNL     1       1.711   2.788  27.682  0.00  0.00    +0.112 C 
ATOM     34  C   UNL     1       1.984   2.484  30.479  0.00  0.00    +0.175 C 
ATOM     35  C   UNL     1       2.974   3.158  28.455  0.00  0.00    +0.175 C 
ENDBRANCH  30  11
ENDBRANCH  28  30
ENDBRANCH   9  28
ENDBRANCH  25  26
ENDBRANCH  15  25
BRANCH  29  31
ATOM     31  C   UNL     1       4.671   0.859  22.774  0.00  0.00    +0.255 C 
BRANCH  31   6
ATOM      6  O   UNL     1       5.378   0.748  23.990  0.00  0.00    -0.374 OA
ATOM     36  C   UNL     1       5.667  -0.609  24.315  0.00  0.00    +0.194 C 
ENDBRANCH  31   6
ENDBRANCH  29  31
TORSDOF 10
ENDMDL
MODEL 2
REMARK VINA RESULT:       7.2      2.590      3.764
REMARK  Name = 11883107
REMARK  13 active torsions:
REMARK  status: ('A' for Active; 'I' for Inactive)
REMARK    1  A    between atoms: O_2  and  C_17
REMARK    2  A    between atoms: O_3  and  C_22
REMARK    3  A    between atoms: O_6  and  C_31
REMARK    4  A    between atoms: O_6  and  C_36
REMARK    5  A    between atoms: N_9  and  C_28
REMARK    6  A    between atoms: N_11  and  C_30
REMARK    7  A    between atoms: C_12  and  C_20
REMARK    8  A    between atoms: C_14  and  C_22
REMARK    9  A    between atoms: C_14  and  C_23
REMARK   10  A    between atoms: C_15  and  C_25
REMARK   11  A    between atoms: C_25  and  C_26
REMARK   12  A    between atoms: C_28  and  C_30
REMARK   13  A    between atoms: C_29  and  C_31
REMARK                            x       y       z     vdW  Elec       q    Type
REMARK                         _______ _______ _______ _____ _____    ______ ____
ROOT
ATOM      1  S   UNL     1       0.788   2.359  25.297  0.00  0.00    -0.057 S 
ATOM      5  O   UNL     1       1.885  -0.089  21.481  0.00  0.00    -0.273 OA
ATOM      8  N   UNL     1      -0.162   1.268  23.153  0.00  0.00    -0.229 NA
ATOM     10  N   UNL     1       2.210   1.053  23.524  0.00  0.00    -0.263 N 
ATOM     12  C   UNL     1      -3.693   2.178  24.409  0.00  0.00    -0.019 C 
ATOM     13  C   UNL     1      -3.173   3.478  25.167  0.00  0.00    +0.011 C 
ATOM     14  C   UNL     1      -4.227   4.270  26.033  0.00  0.00    +0.021 C 
ATOM     15  C   UNL     1      -2.624   1.804  23.280  0.00  0.00    +0.054 C 
ATOM     16  C   UNL     1      -5.045   2.489  23.716  0.00  0.00    +0.010 C 
ATOM     17  C   UNL     1      -5.533   4.455  25.208  0.00  0.00    +0.123 C 
ATOM     18  C   UNL     1      -1.830   3.207  25.905  0.00  0.00    +0.049 C 
ATOM     19  C   UNL     1      -6.067   3.150  24.630  0.00  0.00    +0.032 C 
ATOM     20  C   UNL     1      -3.886   0.967  25.355  0.00  0.00    +0.012 C 
ATOM     21  C   UNL     1      -1.220   1.846  23.829  0.00  0.00    +0.058 A 
ATOM     23  C   UNL     1      -3.668   5.689  26.337  0.00  0.00    +0.016 C 
ATOM     24  C   UNL     1      -0.883   2.497  24.998  0.00  0.00    +0.015 A 
ATOM     27  C   UNL     1       0.943   1.469  23.837  0.00  0.00    +0.165 A 
ATOM     29  C   UNL     1       2.602   0.315  22.391  0.00  0.00    +0.244 C 
ATOM     40  H   UNL     1       2.928   1.317  24.194  0.00  0.00    +0.157 HD
ENDROOT
BRANCH  17   2
ATOM      2  O   UNL     1      -6.551   5.054  26.008  0.00  0.00    -0.391 OA
ATOM     37  H   UNL     1      -6.804   4.412  26.693  0.00  0.00    +0.210 HD
ENDBRANCH  17   2
BRANCH  14  22
ATOM     22  C   UNL     1      -4.529   3.639  27.409  0.00  0.00    +0.165 C 
BRANCH  22   3
ATOM      3  O   UNL     1      -5.666   2.817  27.267  0.00  0.00    -0.394 OA
ATOM     38  H   UNL     1      -6.446   3.365  27.459  0.00  0.00    +0.209 HD
ENDBRANCH  22   3
ENDBRANCH  14  22
BRANCH  15  25
ATOM     25  C   UNL     1      -2.902   0.483  22.550  0.00  0.00    +0.106 C 
BRANCH  25  26
ATOM      4  O   UNL     1      -4.891   0.071  23.863  0.00  0.00    -0.276 OA
ATOM      9  N   UNL     1      -3.539  -1.713  23.239  0.00  0.00    -0.314 N 
ATOM     26  C   UNL     1      -3.900  -0.374  23.291  0.00  0.00    +0.214 C 
ATOM     39  H   UNL     1      -2.701  -1.982  22.732  0.00  0.00    +0.149 HD
BRANCH   9  28
ATOM     28  C   UNL     1      -4.309  -2.764  23.866  0.00  0.00    +0.119 C 
BRANCH  28  30
ATOM     30  C   UNL     1      -3.410  -3.722  24.633  0.00  0.00    +0.103 C 
BRANCH  30  11
ATOM      7  O   UNL     1      -0.966  -0.604  26.017  0.00  0.00    -0.377 OA
ATOM     11  N   UNL     1      -2.400  -2.979  25.385  0.00  0.00    -0.297 NA
ATOM     32  C   UNL     1      -3.019  -1.889  26.152  0.00  0.00    +0.112 C 
ATOM     33  C   UNL     1      -1.372  -2.440  24.485  0.00  0.00    +0.112 C 
ATOM     34  C   UNL     1      -1.946  -1.121  26.918  0.00  0.00    +0.175 C 
ATOM     35  C   UNL     1      -0.337  -1.660  25.291  0.00  0.00    +0.175 C 
ENDBRANCH  30  11
ENDBRANCH  28  30
ENDBRANCH   9  28
ENDBRANCH  25  26
ENDBRANCH  15  25
BRANCH  29  31
ATOM     31  C   UNL     1       4.096   0.049  22.397  0.00  0.00    +0.255 C 
BRANCH  31   6
ATOM      6  O   UNL     1       4.717   0.681  23.494  0.00  0.00    -0.374 OA
ATOM     36  C   UNL     1       5.515  -0.226  24.250  0.00  0.00    +0.194 C 
ENDBRANCH  31   6
ENDBRANCH  29  31
TORSDOF 10
ENDMDL
MODEL 3
REMARK VINA RESULT:       9.1      3.056      4.759
REMARK  Name = 11883107
REMARK  13 active torsions:
REMARK  status: ('A' for Active; 'I' for Inactive)
REMARK    1  A    between atoms: O_2  and  C_17
REMARK    2  A    between atoms: O_3  and  C_22
REMARK    3  A    between atoms: O_6  and  C_31
REMARK    4  A    between atoms: O_6  and  C_36
REMARK    5  A    between atoms: N_9  and  C_28
REMARK    6  A    between atoms: N_11  and  C_30
REMARK    7  A    between atoms: C_12  and  C_20
REMARK    8  A    between atoms: C_14  and  C_22
REMARK    9  A    between atoms: C_14  and  C_23
REMARK   10  A    between atoms: C_15  and  C_25
REMARK   11  A    between atoms: C_25  and  C_26
REMARK   12  A    between atoms: C_28  and  C_30
REMARK   13  A    between atoms: C_29  and  C_31
REMARK                            x       y       z     vdW  Elec       q    Type
REMARK                         _______ _______ _______ _____ _____    ______ ____
ROOT
ATOM      1  S   UNL     1       1.418  -1.750  23.705  0.00  0.00    -0.057 S 
ATOM      5  O   UNL     1       4.432   1.690  22.793  0.00  0.00    -0.273 OA
ATOM      8  N   UNL     1       1.655   0.803  23.364  0.00  0.00    -0.229 NA
ATOM     10  N   UNL     1       3.668  -0.512  23.180  0.00  0.00    -0.263 N 
ATOM     12  C   UNL     1      -2.187   1.058  23.569  0.00  0.00    -0.019 C 
ATOM     13  C   UNL     1      -2.295  -0.185  24.558  0.00  0.00    +0.011 C 
ATOM     14  C   UNL     1      -3.746  -0.674  24.938  0.00  0.00    +0.021 C 
ATOM     15  C   UNL     1      -0.703   1.643  23.673  0.00  0.00    +0.054 C 
ATOM     16  C   UNL     1      -3.180   2.162  24.017  0.00  0.00    +0.010 C 
ATOM     17  C   UNL     1      -4.619   0.557  25.315  0.00  0.00    +0.123 C 
ATOM     18  C   UNL     1      -1.338  -1.336  24.132  0.00  0.00    +0.049 C 
ATOM     19  C   UNL     1      -4.595   1.657  24.259  0.00  0.00    +0.032 C 
ATOM     20  C   UNL     1      -2.491   0.683  22.097  0.00  0.00    +0.012 C 
ATOM     21  C   UNL     1       0.321   0.538  23.608  0.00  0.00    +0.058 A 
ATOM     23  C   UNL     1      -3.661  -1.584  26.196  0.00  0.00    +0.016 C 
ATOM     24  C   UNL     1       0.018  -0.789  23.836  0.00  0.00    +0.015 A 
ATOM     27  C   UNL     1       2.325  -0.329  23.384  0.00  0.00    +0.165 A 
ATOM     29  C   UNL     1       4.624   0.483  22.902  0.00  0.00    +0.244 C 
ATOM     40  H   UNL     1       3.984  -1.476  23.240  0.00  0.00    +0.157 HD
ENDROOT
BRANCH  17   2
ATOM      2  O   UNL     1      -5.972   0.164  25.539  0.00  0.00    -0.391 OA
ATOM     37  H   UNL     1      -5.958  -0.680  26.021  0.00  0.00    +0.210 HD
ENDBRANCH  17   2
BRANCH  14  22
ATOM     22  C   UNL     1      -4.439  -1.528  23.854  0.00  0.00    +0.165 C 
BRANCH  22   3
ATOM      3  O   UNL     1      -4.136  -2.881  24.111  0.00  0.00    -0.394 OA
ATOM     38  H   UNL     1      -4.946  -3.395  23.956  0.00  0.00    +0.209 HD
ENDBRANCH  22   3
ENDBRANCH  14  22
BRANCH  15  25
ATOM     25  C   UNL     1      -0.386   2.761  22.670  0.00  0.00    +0.106 C 
BRANCH  25  26
ATOM      4  O   UNL     1       0.167   5.112  22.821  0.00  0.00    -0.276 OA
ATOM      9  N   UNL     1      -0.965   4.084  24.572  0.00  0.00    -0.314 N 
ATOM     26  C   UNL     1      -0.349   4.119  23.330  0.00  0.00    +0.214 C 
ATOM     39  H   UNL     1      -1.370   3.212  24.902  0.00  0.00    +0.149 HD
BRANCH   9  28
ATOM     28  C   UNL     1      -1.075   5.241  25.432  0.00  0.00    +0.119 C 
BRANCH  28  30
ATOM     30  C   UNL     1      -2.356   6.013  25.155  0.00  0.00    +0.103 C 
BRANCH  30  11
ATOM      7  O   UNL     1      -5.284   3.271  26.392  0.00  0.00    -0.377 OA
ATOM     11  N   UNL     1      -3.478   5.409  25.872  0.00  0.00    -0.297 NA
ATOM     32  C   UNL     1      -3.050   4.197  26.585  0.00  0.00    +0.112 C 
ATOM     33  C   UNL     1      -4.575   5.088  24.949  0.00  0.00    +0.112 C 
ATOM     34  C   UNL     1      -4.238   3.578  27.315  0.00  0.00    +0.175 C 
ATOM     35  C   UNL     1      -5.728   4.449  25.718  0.00  0.00    +0.175 C 
ENDBRANCH  30  11
ENDBRANCH  28  30
ENDBRANCH   9  28
ENDBRANCH  25  26
ENDBRANCH  15  25
BRANCH  29  31
ATOM     31  C   UNL     1       6.009  -0.114  22.741  0.00  0.00    +0.255 C 
BRANCH  31   6
ATOM      6  O   UNL     1       6.408  -0.787  23.916  0.00  0.00    -0.374 OA
ATOM     36  C   UNL     1       5.686  -0.336  25.059  0.00  0.00    +0.194 C 
ENDBRANCH  31   6
ENDBRANCH  29  31
TORSDOF 10
ENDMDL
MODEL 4
REMARK VINA RESULT:       9.2      2.645      4.038
REMARK  Name = 11883107
REMARK  13 active torsions:
REMARK  status: ('A' for Active; 'I' for Inactive)
REMARK    1  A    between atoms: O_2  and  C_17
REMARK    2  A    between atoms: O_3  and  C_22
REMARK    3  A    between atoms: O_6  and  C_31
REMARK    4  A    between atoms: O_6  and  C_36
REMARK    5  A    between atoms: N_9  and  C_28
REMARK    6  A    between atoms: N_11  and  C_30
REMARK    7  A    between atoms: C_12  and  C_20
REMARK    8  A    between atoms: C_14  and  C_22
REMARK    9  A    between atoms: C_14  and  C_23
REMARK   10  A    between atoms: C_15  and  C_25
REMARK   11  A    between atoms: C_25  and  C_26
REMARK   12  A    between atoms: C_28  and  C_30
REMARK   13  A    between atoms: C_29  and  C_31
REMARK                            x       y       z     vdW  Elec       q    Type
REMARK                         _______ _______ _______ _____ _____    ______ ____
ROOT
ATOM      1  S   UNL     1       1.112   2.509  25.711  0.00  0.00    -0.057 S 
ATOM      5  O   UNL     1       2.821   0.543  21.842  0.00  0.00    -0.273 OA
ATOM      8  N   UNL     1       0.507   1.630  23.354  0.00  0.00    -0.229 NA
ATOM     10  N   UNL     1       2.818   1.460  24.019  0.00  0.00    -0.263 N 
ATOM     12  C   UNL     1      -3.199   2.269  24.207  0.00  0.00    -0.019 C 
ATOM     13  C   UNL     1      -2.849   3.494  25.162  0.00  0.00    +0.011 C 
ATOM     14  C   UNL     1      -4.046   4.147  25.955  0.00  0.00    +0.021 C 
ATOM     15  C   UNL     1      -1.974   2.062  23.201  0.00  0.00    +0.054 C 
ATOM     16  C   UNL     1      -4.462   2.607  23.373  0.00  0.00    +0.010 C 
ATOM     17  C   UNL     1      -5.240   4.376  24.985  0.00  0.00    +0.123 C 
ATOM     18  C   UNL     1      -1.603   3.191  26.043  0.00  0.00    +0.049 C 
ATOM     19  C   UNL     1      -5.628   3.125  24.204  0.00  0.00    +0.032 C 
ATOM     20  C   UNL     1      -3.454   0.954  24.985  0.00  0.00    +0.012 C 
ATOM     21  C   UNL     1      -0.658   2.092  23.937  0.00  0.00    +0.058 A 
ATOM     23  C   UNL     1      -3.603   5.542  26.482  0.00  0.00    +0.016 C 
ATOM     24  C   UNL     1      -0.511   2.620  25.203  0.00  0.00    +0.015 A 
ATOM     27  C   UNL     1       1.501   1.793  24.199  0.00  0.00    +0.165 A 
ATOM     29  C   UNL     1       3.392   0.868  22.878  0.00  0.00    +0.244 C 
ATOM     40  H   UNL     1       3.427   1.673  24.805  0.00  0.00    +0.157 HD
ENDROOT
BRANCH  17   2
ATOM      2  O   UNL     1      -6.383   4.846  25.698  0.00  0.00    -0.391 OA
ATOM     37  H   UNL     1      -6.518   5.778  25.457  0.00  0.00    +0.210 HD
ENDBRANCH  17   2
BRANCH  14  22
ATOM     22  C   UNL     1      -4.494   3.356  27.203  0.00  0.00    +0.165 C 
BRANCH  22   3
ATOM      3  O   UNL     1      -5.718   2.726  26.898  0.00  0.00    -0.394 OA
ATOM     38  H   UNL     1      -6.324   3.412  26.569  0.00  0.00    +0.209 HD
ENDBRANCH  22   3
ENDBRANCH  14  22
BRANCH  15  25
ATOM     25  C   UNL     1      -2.087   0.822  22.304  0.00  0.00    +0.106 C 
BRANCH  25  26
ATOM      4  O   UNL     1      -0.088  -0.302  21.531  0.00  0.00    -0.276 OA
ATOM      9  N   UNL     1      -0.821  -0.634  23.712  0.00  0.00    -0.314 N 
ATOM     26  C   UNL     1      -0.887  -0.086  22.439  0.00  0.00    +0.214 C 
ATOM     39  H   UNL     1      -1.528  -0.386  24.398  0.00  0.00    +0.149 HD
BRANCH   9  28
ATOM     28  C   UNL     1       0.224  -1.544  24.126  0.00  0.00    +0.119 C 
BRANCH  28  30
ATOM     30  C   UNL     1      -0.140  -2.243  25.427  0.00  0.00    +0.103 C 
BRANCH  30  11
ATOM      7  O   UNL     1      -4.267  -1.915  24.734  0.00  0.00    -0.377 OA
ATOM     11  N   UNL     1      -1.582  -2.480  25.491  0.00  0.00    -0.297 NA
ATOM     32  C   UNL     1      -2.106  -2.863  24.172  0.00  0.00    +0.112 C 
ATOM     33  C   UNL     1      -2.285  -1.287  25.983  0.00  0.00    +0.112 C 
ATOM     34  C   UNL     1      -3.612  -3.092  24.259  0.00  0.00    +0.175 C 
ATOM     35  C   UNL     1      -3.787  -1.554  26.030  0.00  0.00    +0.175 C 
ENDBRANCH  30  11
ENDBRANCH  28  30
ENDBRANCH   9  28
ENDBRANCH  25  26
ENDBRANCH  15  25
BRANCH  29  31
ATOM     31  C   UNL     1       4.883   0.655  23.059  0.00  0.00    +0.255 C 
BRANCH  31   6
ATOM      6  O   UNL     1       5.143  -0.175  24.170  0.00  0.00    -0.374 OA
ATOM     36  C   UNL     1       4.746  -1.523  23.933  0.00  0.00    +0.194 C 
ENDBRANCH  31   6
ENDBRANCH  29  31
TORSDOF 10
ENDMDL
MODEL 5
REMARK VINA RESULT:       9.6      1.979      3.262
REMARK  Name = 11883107
REMARK  13 active torsions:
REMARK  status: ('A' for Active; 'I' for Inactive)
REMARK    1  A    between atoms: O_2  and  C_17
REMARK    2  A    between atoms: O_3  and  C_22
REMARK    3  A    between atoms: O_6  and  C_31
REMARK    4  A    between atoms: O_6  and  C_36
REMARK    5  A    between atoms: N_9  and  C_28
REMARK    6  A    between atoms: N_11  and  C_30
REMARK    7  A    between atoms: C_12  and  C_20
REMARK    8  A    between atoms: C_14  and  C_22
REMARK    9  A    between atoms: C_14  and  C_23
REMARK   10  A    between atoms: C_15  and  C_25
REMARK   11  A    between atoms: C_25  and  C_26
REMARK   12  A    between atoms: C_28  and  C_30
REMARK   13  A    between atoms: C_29  and  C_31
REMARK                            x       y       z     vdW  Elec       q    Type
REMARK                         _______ _______ _______ _____ _____    ______ ____
ROOT
ATOM      1  S   UNL     1      -0.733  -0.974  23.332  0.00  0.00    -0.057 S 
ATOM      5  O   UNL     1       3.114   1.659  23.194  0.00  0.00    -0.273 OA
ATOM      8  N   UNL     1       0.221   1.383  23.810  0.00  0.00    -0.229 NA
ATOM     10  N   UNL     1       1.759  -0.259  22.942  0.00  0.00    -0.263 N 
ATOM     12  C   UNL     1      -3.372   2.538  24.597  0.00  0.00    -0.019 C 
ATOM     13  C   UNL     1      -3.800   1.101  25.133  0.00  0.00    +0.011 C 
ATOM     14  C   UNL     1      -5.316   0.906  25.523  0.00  0.00    +0.021 C 
ATOM     15  C   UNL     1      -1.780   2.644  24.686  0.00  0.00    +0.054 C 
ATOM     16  C   UNL     1      -3.986   3.633  25.507  0.00  0.00    +0.010 C 
ATOM     17  C   UNL     1      -5.781   2.109  26.393  0.00  0.00    +0.123 C 
ATOM     18  C   UNL     1      -3.233  -0.034  24.233  0.00  0.00    +0.049 C 
ATOM     19  C   UNL     1      -5.477   3.461  25.758  0.00  0.00    +0.032 C 
ATOM     20  C   UNL     1      -3.823   2.794  23.137  0.00  0.00    +0.012 C 
ATOM     21  C   UNL     1      -1.123   1.405  24.131  0.00  0.00    +0.058 A 
ATOM     23  C   UNL     1      -5.454  -0.375  26.395  0.00  0.00    +0.016 C 
ATOM     24  C   UNL     1      -1.789   0.210  23.953  0.00  0.00    +0.015 A 
ATOM     27  C   UNL     1       0.536   0.183  23.372  0.00  0.00    +0.165 A 
ATOM     29  C   UNL     1       2.952   0.485  22.878  0.00  0.00    +0.244 C 
ATOM     40  H   UNL     1       1.785  -1.231  22.643  0.00  0.00    +0.157 HD
ENDROOT
BRANCH  17   2
ATOM      2  O   UNL     1      -7.181   2.028  26.655  0.00  0.00    -0.391 OA
ATOM     37  H   UNL     1      -7.414   2.767  27.242  0.00  0.00    +0.210 HD
ENDBRANCH  17   2
BRANCH  14  22
ATOM     22  C   UNL     1      -6.265   0.695  24.323  0.00  0.00    +0.165 C 
BRANCH  22   3
ATOM      3  O   UNL     1      -7.301   1.647  24.419  0.00  0.00    -0.394 OA
ATOM     38  H   UNL     1      -7.648   1.607  25.326  0.00  0.00    +0.209 HD
ENDBRANCH  22   3
ENDBRANCH  14  22
BRANCH  15  25
ATOM     25  C   UNL     1      -1.188   3.918  24.068  0.00  0.00    +0.106 C 
BRANCH  25  26
ATOM      4  O   UNL     1       0.128   5.763  24.916  0.00  0.00    -0.276 OA
ATOM      9  N   UNL     1       0.337   3.662  25.888  0.00  0.00    -0.314 N 
ATOM     26  C   UNL     1      -0.182   4.576  24.983  0.00  0.00    +0.214 C 
ATOM     39  H   UNL     1       0.009   2.700  25.868  0.00  0.00    +0.149 HD
BRANCH   9  28
ATOM     28  C   UNL     1       1.324   4.011  26.885  0.00  0.00    +0.119 C 
BRANCH  28  30
ATOM     30  C   UNL     1       1.918   2.768  27.530  0.00  0.00    +0.103 C 
BRANCH  30  11
ATOM      7  O   UNL     1       0.937   1.897  31.518  0.00  0.00    -0.377 OA
ATOM     11  N   UNL     1       1.818   2.855  28.987  0.00  0.00    -0.297 NA
ATOM     32  C   UNL     1       2.437   1.684  29.623  0.00  0.00    +0.112 C 
ATOM     33  C   UNL     1       0.416   2.974  29.407  0.00  0.00    +0.112 C 
ATOM     34  C   UNL     1       2.310   1.791  31.140  0.00  0.00    +0.175 C 
ATOM     35  C   UNL     1       0.337   3.052  30.929  0.00  0.00    +0.175 C 
ENDBRANCH  30  11
ENDBRANCH  28  30
ENDBRANCH   9  28
ENDBRANCH  25  26
ENDBRANCH  15  25
BRANCH  29  31
ATOM     31  C   UNL     1       4.098  -0.356  22.349  0.00  0.00    +0.255 C 
BRANCH  31   6
ATOM      6  O   UNL     1       5.317   0.014  22.956  0.00  0.00    -0.374 OA
ATOM     36  C   UNL     1       5.488  -0.604  24.229  0.00  0.00    +0.194 C 
ENDBRANCH  31   6
ENDBRANCH  29  31
TORSDOF 10
ENDMDL
MODEL 6
REMARK VINA RESULT:       9.8      2.316      4.331
REMARK  Name = 11883107
REMARK  13 active torsions:
REMARK  status: ('A' for Active; 'I' for Inactive)
REMARK    1  A    between atoms: O_2  and  C_17
REMARK    2  A    between atoms: O_3  and  C_22
REMARK    3  A    between atoms: O_6  and  C_31
REMARK    4  A    between atoms: O_6  and  C_36
REMARK    5  A    between atoms: N_9  and  C_28
REMARK    6  A    between atoms: N_11  and  C_30
REMARK    7  A    between atoms: C_12  and  C_20
REMARK    8  A    between atoms: C_14  and  C_22
REMARK    9  A    between atoms: C_14  and  C_23
REMARK   10  A    between atoms: C_15  and  C_25
REMARK   11  A    between atoms: C_25  and  C_26
REMARK   12  A    between atoms: C_28  and  C_30
REMARK   13  A    between atoms: C_29  and  C_31
REMARK                            x       y       z     vdW  Elec       q    Type
REMARK                         _______ _______ _______ _____ _____    ______ ____
ROOT
ATOM      1  S   UNL     1       1.481   3.207  23.095  0.00  0.00    -0.057 S 
ATOM      5  O   UNL     1       3.132  -1.127  23.586  0.00  0.00    -0.273 OA
ATOM      8  N   UNL     1       0.996   0.873  24.099  0.00  0.00    -0.229 NA
ATOM     10  N   UNL     1       3.072   1.133  22.901  0.00  0.00    -0.263 N 
ATOM     12  C   UNL     1      -2.131   2.384  25.774  0.00  0.00    -0.019 C 
ATOM     13  C   UNL     1      -2.345   3.440  24.601  0.00  0.00    +0.011 C 
ATOM     14  C   UNL     1      -3.498   4.499  24.794  0.00  0.00    +0.021 C 
ATOM     15  C   UNL     1      -1.253   1.178  25.198  0.00  0.00    +0.054 C 
ATOM     16  C   UNL     1      -3.505   1.819  26.218  0.00  0.00    +0.010 C 
ATOM     17  C   UNL     1      -4.784   3.773  25.282  0.00  0.00    +0.123 C 
ATOM     18  C   UNL     1      -0.994   4.060  24.140  0.00  0.00    +0.049 C 
ATOM     19  C   UNL     1      -4.549   2.890  26.502  0.00  0.00    +0.032 C 
ATOM     20  C   UNL     1      -1.421   2.993  27.009  0.00  0.00    +0.012 C 
ATOM     21  C   UNL     1      -0.068   1.693  24.423  0.00  0.00    +0.058 A 
ATOM     23  C   UNL     1      -3.826   5.146  23.418  0.00  0.00    +0.016 C 
ATOM     24  C   UNL     1       0.020   2.984  23.942  0.00  0.00    +0.015 A 
ATOM     27  C   UNL     1       1.875   1.565  23.407  0.00  0.00    +0.165 A 
ATOM     29  C   UNL     1       3.621  -0.158  23.016  0.00  0.00    +0.244 C 
ATOM     40  H   UNL     1       3.603   1.835  22.392  0.00  0.00    +0.157 HD
ENDROOT
BRANCH  17   2
ATOM      2  O   UNL     1      -5.808   4.718  25.589  0.00  0.00    -0.391 OA
ATOM     37  H   UNL     1      -5.399   5.600  25.610  0.00  0.00    +0.210 HD
ENDBRANCH  17   2
BRANCH  14  22
ATOM     22  C   UNL     1      -3.139   5.673  25.730  0.00  0.00    +0.165 C 
BRANCH  22   3
ATOM      3  O   UNL     1      -1.869   6.155  25.351  0.00  0.00    -0.394 OA
ATOM     38  H   UNL     1      -1.479   6.588  26.128  0.00  0.00    +0.209 HD
ENDBRANCH  22   3
ENDBRANCH  14  22
BRANCH  15  25
ATOM     25  C   UNL     1      -0.831   0.139  26.246  0.00  0.00    +0.106 C 
BRANCH  25  26
ATOM      4  O   UNL     1      -0.404  -2.098  25.430  0.00  0.00    -0.276 OA
ATOM      9  N   UNL     1      -2.574  -1.471  25.978  0.00  0.00    -0.314 N 
ATOM     26  C   UNL     1      -1.209  -1.264  25.836  0.00  0.00    +0.214 C 
ATOM     39  H   UNL     1      -3.157  -0.718  26.332  0.00  0.00    +0.149 HD
BRANCH   9  28
ATOM     28  C   UNL     1      -3.220  -2.724  25.657  0.00  0.00    +0.119 C 
BRANCH  28  30
ATOM     30  C   UNL     1      -3.476  -2.844  24.162  0.00  0.00    +0.103 C 
BRANCH  30  11
ATOM      7  O   UNL     1      -4.263   1.248  23.655  0.00  0.00    -0.377 OA
ATOM     11  N   UNL     1      -4.005  -1.586  23.635  0.00  0.00    -0.297 NA
ATOM     32  C   UNL     1      -2.915  -0.712  23.181  0.00  0.00    +0.112 C 
ATOM     33  C   UNL     1      -4.814  -0.896  24.648  0.00  0.00    +0.112 C 
ATOM     34  C   UNL     1      -3.489   0.597  22.647  0.00  0.00    +0.175 C 
ATOM     35  C   UNL     1      -5.345   0.417  24.079  0.00  0.00    +0.175 C 
ENDBRANCH  30  11
ENDBRANCH  28  30
ENDBRANCH   9  28
ENDBRANCH  25  26
ENDBRANCH  15  25
BRANCH  29  31
ATOM     31  C   UNL     1       4.967  -0.248  22.319  0.00  0.00    +0.255 C 
BRANCH  31   6
ATOM      6  O   UNL     1       6.015   0.080  23.204  0.00  0.00    -0.374 OA
ATOM     36  C   UNL     1       5.784  -0.428  24.516  0.00  0.00    +0.194 C 
ENDBRANCH  31   6
ENDBRANCH  29  31
TORSDOF 10
ENDMDL
MODEL 7
REMARK VINA RESULT:      10.1      3.282      5.739
REMARK  Name = 11883107
REMARK  13 active torsions:
REMARK  status: ('A' for Active; 'I' for Inactive)
REMARK    1  A    between atoms: O_2  and  C_17
REMARK    2  A    between atoms: O_3  and  C_22
REMARK    3  A    between atoms: O_6  and  C_31
REMARK    4  A    between atoms: O_6  and  C_36
REMARK    5  A    between atoms: N_9  and  C_28
REMARK    6  A    between atoms: N_11  and  C_30
REMARK    7  A    between atoms: C_12  and  C_20
REMARK    8  A    between atoms: C_14  and  C_22
REMARK    9  A    between atoms: C_14  and  C_23
REMARK   10  A    between atoms: C_15  and  C_25
REMARK   11  A    between atoms: C_25  and  C_26
REMARK   12  A    between atoms: C_28  and  C_30
REMARK   13  A    between atoms: C_29  and  C_31
REMARK                            x       y       z     vdW  Elec       q    Type
REMARK                         _______ _______ _______ _____ _____    ______ ____
ROOT
ATOM      1  S   UNL     1      -0.207  -0.048  22.714  0.00  0.00    -0.057 S 
ATOM      5  O   UNL     1       3.991   1.728  23.698  0.00  0.00    -0.273 OA
ATOM      8  N   UNL     1       1.045   1.761  24.074  0.00  0.00    -0.229 NA
ATOM     10  N   UNL     1       2.390   0.307  22.700  0.00  0.00    -0.263 N 
ATOM     12  C   UNL     1      -2.390   3.163  25.127  0.00  0.00    -0.019 C 
ATOM     13  C   UNL     1      -3.080   1.730  25.068  0.00  0.00    +0.011 C 
ATOM     14  C   UNL     1      -4.638   1.675  25.309  0.00  0.00    +0.021 C 
ATOM     15  C   UNL     1      -0.815   2.945  25.299  0.00  0.00    +0.054 C 
ATOM     16  C   UNL     1      -2.913   3.939  26.363  0.00  0.00    +0.010 C 
ATOM     17  C   UNL     1      -4.995   2.538  26.553  0.00  0.00    +0.123 C 
ATOM     18  C   UNL     1      -2.610   0.922  23.824  0.00  0.00    +0.049 C 
ATOM     19  C   UNL     1      -4.430   3.953  26.485  0.00  0.00    +0.032 C 
ATOM     20  C   UNL     1      -2.656   4.011  23.859  0.00  0.00    +0.012 C 
ATOM     21  C   UNL     1      -0.305   1.902  24.338  0.00  0.00    +0.058 A 
ATOM     23  C   UNL     1      -5.051   0.210  25.629  0.00  0.00    +0.016 C 
ATOM     24  C   UNL     1      -1.125   0.992  23.702  0.00  0.00    +0.015 A 
ATOM     27  C   UNL     1       1.213   0.770  23.226  0.00  0.00    +0.165 A 
ATOM     29  C   UNL     1       3.683   0.800  22.958  0.00  0.00    +0.244 C 
ATOM     40  H   UNL     1       2.296  -0.475  22.057  0.00  0.00    +0.157 HD
ENDROOT
BRANCH  17   2
ATOM      2  O   UNL     1      -6.409   2.616  26.722  0.00  0.00    -0.391 OA
ATOM     37  H   UNL     1      -6.699   1.800  27.165  0.00  0.00    +0.210 HD
ENDBRANCH  17   2
BRANCH  14  22
ATOM     22  C   UNL     1      -5.489   2.090  24.089  0.00  0.00    +0.165 C 
BRANCH  22   3
ATOM      3  O   UNL     1      -6.833   1.766  24.370  0.00  0.00    -0.394 OA
ATOM     38  H   UNL     1      -7.391   2.340  23.818  0.00  0.00    +0.209 HD
ENDBRANCH  22   3
ENDBRANCH  14  22
BRANCH  15  25
ATOM     25  C   UNL     1       0.019   4.232  25.226  0.00  0.00    +0.106 C 
BRANCH  25  26
ATOM      4  O   UNL     1      -1.280   5.782  23.899  0.00  0.00    -0.276 OA
ATOM      9  N   UNL     1       0.646   4.839  23.003  0.00  0.00    -0.314 N 
ATOM     26  C   UNL     1      -0.302   5.045  23.994  0.00  0.00    +0.214 C 
ATOM     39  H   UNL     1       1.426   4.212  23.183  0.00  0.00    +0.149 HD
BRANCH   9  28
ATOM     28  C   UNL     1       0.592   5.486  21.712  0.00  0.00    +0.119 C 
BRANCH  28  30
ATOM     30  C   UNL     1       1.915   6.160  21.378  0.00  0.00    +0.103 C 
BRANCH  30  11
ATOM      7  O   UNL     1       4.178   5.366  17.933  0.00  0.00    -0.377 OA
ATOM     11  N   UNL     1       2.587   5.448  20.292  0.00  0.00    -0.297 NA
ATOM     32  C   UNL     1       4.037   5.682  20.334  0.00  0.00    +0.112 C 
ATOM     33  C   UNL     1       2.049   5.858  18.988  0.00  0.00    +0.112 C 
ATOM     34  C   UNL     1       4.716   4.941  19.186  0.00  0.00    +0.175 C 
ATOM     35  C   UNL     1       2.773   5.111  17.871  0.00  0.00    +0.175 C 
ENDBRANCH  30  11
ENDBRANCH  28  30
ENDBRANCH   9  28
ENDBRANCH  25  26
ENDBRANCH  15  25
BRANCH  29  31
ATOM     31  C   UNL     1       4.733   0.023  22.187  0.00  0.00    +0.255 C 
BRANCH  31   6
ATOM      6  O   UNL     1       5.849  -0.264  23.002  0.00  0.00    -0.374 OA
ATOM     36  C   UNL     1       5.478  -0.977  24.179  0.00  0.00    +0.194 C 
ENDBRANCH  31   6
ENDBRANCH  29  31
TORSDOF 10
ENDMDL
