MODEL 1
REMARK VINA RESULT:       2.1      0.000      0.000
REMARK  Name = 11884103
REMARK  9 active torsions:
REMARK  status: ('A' for Active; 'I' for Inactive)
REMARK    1  A    between atoms: O_3  and  C_12
REMARK    2  A    between atoms: O_3  and  C_16
REMARK    3  A    between atoms: N_6  and  C_11
REMARK    4  A    between atoms: N_7  and  C_17
REMARK    5  A    between atoms: N_8  and  C_18
REMARK    6  A    between atoms: C_17  and  C_19
REMARK    7  A    between atoms: C_22  and  C_23
REMARK    8  A    between atoms: C_23  and  C_28
REMARK    9  A    between atoms: C_23  and  C_29
REMARK                            x       y       z     vdW  Elec       q    Type
REMARK                         _______ _______ _______ _____ _____    ______ ____
ROOT
ATOM      1  O   UNL     1      -3.424   3.282  24.303  0.00  0.00    -0.368 OA
ATOM      2  O   UNL     1      -2.921   5.476  26.387  0.00  0.00    -0.368 OA
ATOM      9  C   UNL     1      -2.257   4.218  26.142  0.00  0.00    +0.173 C 
ATOM     10  C   UNL     1      -3.328   3.227  25.736  0.00  0.00    +0.192 C 
ATOM     11  C   UNL     1      -1.378   4.325  24.918  0.00  0.00    +0.131 C 
ATOM     12  C   UNL     1      -4.561   3.786  26.402  0.00  0.00    +0.235 C 
ATOM     13  C   UNL     1      -2.373   4.114  23.789  0.00  0.00    +0.185 C 
ATOM     14  C   UNL     1      -4.340   5.278  26.282  0.00  0.00    +0.207 C 
ENDROOT
BRANCH  11   6
ATOM      4  O   UNL     1      -0.965   2.281  22.924  0.00  0.00    -0.253 OA
ATOM      6  N   UNL     1      -0.357   3.306  24.916  0.00  0.00    -0.292 N 
ATOM      7  N   UNL     1       0.837   1.492  24.153  0.00  0.00    -0.295 N 
ATOM     15  C   UNL     1      -0.230   2.353  23.907  0.00  0.00    +0.300 C 
ATOM     33  H   UNL     1       0.342   3.320  25.652  0.00  0.00    +0.151 HD
ATOM     34  H   UNL     1       1.404   1.642  24.982  0.00  0.00    +0.151 HD
BRANCH   7  17
ATOM     17  C   UNL     1       1.191   0.411  23.265  0.00  0.00    +0.141 C 
BRANCH  17  19
ATOM     19  C   UNL     1       2.661   0.108  23.308  0.00  0.00    -0.030 A 
ATOM     26  C   UNL     1       3.101  -1.160  23.685  0.00  0.00    +0.005 A 
ATOM     27  C   UNL     1       3.587   1.096  22.969  0.00  0.00    +0.005 A 
ATOM     30  C   UNL     1       4.467  -1.441  23.726  0.00  0.00    +0.000 A 
ATOM     31  C   UNL     1       4.952   0.814  23.010  0.00  0.00    +0.000 A 
ATOM     32  C   UNL     1       5.393  -0.454  23.387  0.00  0.00    +0.000 A 
ENDBRANCH  17  19
ENDBRANCH   7  17
ENDBRANCH  11   6
BRANCH  12   3
ATOM      3  O   UNL     1      -5.765   3.378  25.792  0.00  0.00    -0.442 OA
BRANCH   3  16
ATOM      5  O   UNL     1      -6.745   1.683  24.612  0.00  0.00    -0.226 OA
ATOM      8  N   UNL     1      -4.600   1.467  25.525  0.00  0.00    -0.251 N 
ATOM     16  C   UNL     1      -5.788   2.113  25.244  0.00  0.00    +0.405 C 
ATOM     35  H   UNL     1      -3.920   1.992  26.069  0.00  0.00    +0.158 HD
BRANCH   8  18
ATOM     18  C   UNL     1      -4.211   0.159  25.153  0.00  0.00    +0.036 A 
ATOM     20  C   UNL     1      -4.398  -0.276  23.841  0.00  0.00    +0.024 A 
ATOM     21  C   UNL     1      -3.640  -0.693  26.096  0.00  0.00    +0.024 A 
ATOM     22  C   UNL     1      -3.443  -2.419  24.417  0.00  0.00    -0.045 A 
ATOM     24  C   UNL     1      -4.013  -1.566  23.473  0.00  0.00    +0.006 A 
ATOM     25  C   UNL     1      -3.255  -1.983  25.729  0.00  0.00    +0.006 A 
BRANCH  22  23
ATOM     23  C   UNL     1      -3.030  -3.797  24.024  0.00  0.00    +0.013 C 
ATOM     28  C   UNL     1      -1.604  -3.843  23.444  0.00  0.00    +0.012 C 
ATOM     29  C   UNL     1      -4.017  -4.448  23.035  0.00  0.00    +0.012 C 
ENDBRANCH  22  23
ENDBRANCH   8  18
ENDBRANCH   3  16
ENDBRANCH  12   3
TORSDOF 7
ENDMDL
MODEL 2
REMARK VINA RESULT:       2.4      1.736      5.177
REMARK  Name = 11884103
REMARK  9 active torsions:
REMARK  status: ('A' for Active; 'I' for Inactive)
REMARK    1  A    between atoms: O_3  and  C_12
REMARK    2  A    between atoms: O_3  and  C_16
REMARK    3  A    between atoms: N_6  and  C_11
REMARK    4  A    between atoms: N_7  and  C_17
REMARK    5  A    between atoms: N_8  and  C_18
REMARK    6  A    between atoms: C_17  and  C_19
REMARK    7  A    between atoms: C_22  and  C_23
REMARK    8  A    between atoms: C_23  and  C_28
REMARK    9  A    between atoms: C_23  and  C_29
REMARK                            x       y       z     vdW  Elec       q    Type
REMARK                         _______ _______ _______ _____ _____    ______ ____
ROOT
ATOM      1  O   UNL     1      -4.082   3.062  26.571  0.00  0.00    -0.368 OA
ATOM      2  O   UNL     1      -6.470   4.496  25.287  0.00  0.00    -0.368 OA
ATOM      9  C   UNL     1      -5.877   3.205  25.030  0.00  0.00    +0.173 C 
ATOM     10  C   UNL     1      -4.380   3.367  25.199  0.00  0.00    +0.192 C 
ATOM     11  C   UNL     1      -6.263   2.232  26.118  0.00  0.00    +0.131 C 
ATOM     12  C   UNL     1      -4.173   4.830  24.891  0.00  0.00    +0.235 C 
ATOM     13  C   UNL     1      -5.264   2.564  27.215  0.00  0.00    +0.185 C 
ATOM     14  C   UNL     1      -5.420   5.458  25.472  0.00  0.00    +0.207 C 
ENDROOT
BRANCH  11   6
ATOM      4  O   UNL     1      -4.152   1.148  24.475  0.00  0.00    -0.253 OA
ATOM      6  N   UNL     1      -6.120   0.867  25.674  0.00  0.00    -0.292 N 
ATOM      7  N   UNL     1      -5.171  -0.932  24.597  0.00  0.00    -0.295 N 
ATOM     15  C   UNL     1      -5.064   0.428  24.878  0.00  0.00    +0.300 C 
ATOM     33  H   UNL     1      -6.787   0.177  26.008  0.00  0.00    +0.151 HD
ATOM     34  H   UNL     1      -5.948  -1.452  24.992  0.00  0.00    +0.151 HD
BRANCH   7  17
ATOM     17  C   UNL     1      -4.208  -1.643  23.790  0.00  0.00    +0.141 C 
BRANCH  17  19
ATOM     19  C   UNL     1      -2.856  -1.689  24.442  0.00  0.00    -0.030 A 
ATOM     26  C   UNL     1      -2.584  -0.880  25.544  0.00  0.00    +0.005 A 
ATOM     27  C   UNL     1      -1.870  -2.544  23.944  0.00  0.00    +0.005 A 
ATOM     30  C   UNL     1      -1.328  -0.923  26.149  0.00  0.00    +0.000 A 
ATOM     31  C   UNL     1      -0.615  -2.586  24.549  0.00  0.00    +0.000 A 
ATOM     32  C   UNL     1      -0.343  -1.777  25.652  0.00  0.00    +0.000 A 
ENDBRANCH  17  19
ENDBRANCH   7  17
ENDBRANCH  11   6
BRANCH  12   3
ATOM      3  O   UNL     1      -2.997   5.363  25.458  0.00  0.00    -0.442 OA
BRANCH   3  16
ATOM      5  O   UNL     1      -0.758   5.458  25.002  0.00  0.00    -0.226 OA
ATOM      8  N   UNL     1      -1.993   3.492  24.701  0.00  0.00    -0.251 N 
ATOM     16  C   UNL     1      -1.801   4.817  25.042  0.00  0.00    +0.405 C 
ATOM     35  H   UNL     1      -2.939   3.134  24.801  0.00  0.00    +0.158 HD
BRANCH   8  18
ATOM     18  C   UNL     1      -1.033   2.568  24.227  0.00  0.00    +0.036 A 
ATOM     20  C   UNL     1      -1.400   1.604  23.288  0.00  0.00    +0.024 A 
ATOM     21  C   UNL     1       0.278   2.621  24.697  0.00  0.00    +0.024 A 
ATOM     22  C   UNL     1       0.858   0.745  23.289  0.00  0.00    -0.045 A 
ATOM     24  C   UNL     1      -0.454   0.692  22.818  0.00  0.00    +0.006 A 
ATOM     25  C   UNL     1       1.224   1.709  24.228  0.00  0.00    +0.006 A 
BRANCH  22  23
ATOM     23  C   UNL     1       1.870  -0.228  22.787  0.00  0.00    +0.013 C 
ATOM     28  C   UNL     1       3.304   0.333  22.837  0.00  0.00    +0.012 C 
ATOM     29  C   UNL     1       1.553  -0.726  21.363  0.00  0.00    +0.012 C 
ENDBRANCH  22  23
ENDBRANCH   8  18
ENDBRANCH   3  16
ENDBRANCH  12   3
TORSDOF 7
ENDMDL
MODEL 3
REMARK VINA RESULT:       3.4      1.635      5.785
REMARK  Name = 11884103
REMARK  9 active torsions:
REMARK  status: ('A' for Active; 'I' for Inactive)
REMARK    1  A    between atoms: O_3  and  C_12
REMARK    2  A    between atoms: O_3  and  C_16
REMARK    3  A    between atoms: N_6  and  C_11
REMARK    4  A    between atoms: N_7  and  C_17
REMARK    5  A    between atoms: N_8  and  C_18
REMARK    6  A    between atoms: C_17  and  C_19
REMARK    7  A    between atoms: C_22  and  C_23
REMARK    8  A    between atoms: C_23  and  C_28
REMARK    9  A    between atoms: C_23  and  C_29
REMARK                            x       y       z     vdW  Elec       q    Type
REMARK                         _______ _______ _______ _____ _____    ______ ____
ROOT
ATOM      1  O   UNL     1      -3.613   2.809  26.022  0.00  0.00    -0.368 OA
ATOM      2  O   UNL     1      -4.688   4.302  23.568  0.00  0.00    -0.368 OA
ATOM      9  C   UNL     1      -4.527   2.893  23.836  0.00  0.00    +0.173 C 
ATOM     10  C   UNL     1      -3.248   2.741  24.634  0.00  0.00    +0.192 C 
ATOM     11  C   UNL     1      -5.604   2.419  24.783  0.00  0.00    +0.131 C 
ATOM     12  C   UNL     1      -2.449   3.947  24.204  0.00  0.00    +0.235 C 
ATOM     13  C   UNL     1      -5.044   2.825  26.136  0.00  0.00    +0.185 C 
ATOM     14  C   UNL     1      -3.524   4.999  24.038  0.00  0.00    +0.207 C 
ENDROOT
BRANCH  11   6
ATOM      4  O   UNL     1      -3.624   0.457  24.038  0.00  0.00    -0.253 OA
ATOM      6  N   UNL     1      -5.785   0.990  24.697  0.00  0.00    -0.292 N 
ATOM      7  N   UNL     1      -5.214  -1.208  24.325  0.00  0.00    -0.295 N 
ATOM     15  C   UNL     1      -4.769   0.112  24.326  0.00  0.00    +0.300 C 
ATOM     33  H   UNL     1      -6.678   0.597  24.979  0.00  0.00    +0.151 HD
ATOM     34  H   UNL     1      -6.173  -1.400  24.599  0.00  0.00    +0.151 HD
BRANCH   7  17
ATOM     17  C   UNL     1      -4.362  -2.321  23.978  0.00  0.00    +0.141 C 
BRANCH  17  19
ATOM     19  C   UNL     1      -2.995  -2.191  24.585  0.00  0.00    -0.030 A 
ATOM     26  C   UNL     1      -1.911  -2.856  24.011  0.00  0.00    +0.005 A 
ATOM     27  C   UNL     1      -2.808  -1.406  25.723  0.00  0.00    +0.005 A 
ATOM     30  C   UNL     1      -0.642  -2.736  24.574  0.00  0.00    +0.000 A 
ATOM     31  C   UNL     1      -1.538  -1.287  26.287  0.00  0.00    +0.000 A 
ATOM     32  C   UNL     1      -0.454  -1.951  25.713  0.00  0.00    +0.000 A 
ENDBRANCH  17  19
ENDBRANCH   7  17
ENDBRANCH  11   6
BRANCH  12   3
ATOM      3  O   UNL     1      -1.468   4.335  25.140  0.00  0.00    -0.442 OA
BRANCH   3  16
ATOM      5  O   UNL     1       0.226   3.369  26.334  0.00  0.00    -0.226 OA
ATOM      8  N   UNL     1      -0.104   2.897  24.065  0.00  0.00    -0.251 N 
ATOM     16  C   UNL     1      -0.374   3.506  25.275  0.00  0.00    +0.405 C 
ATOM     35  H   UNL     1      -0.719   3.139  23.292  0.00  0.00    +0.158 HD
BRANCH   8  18
ATOM     18  C   UNL     1       0.927   1.977  23.764  0.00  0.00    +0.036 A 
ATOM     20  C   UNL     1       2.205   2.441  23.452  0.00  0.00    +0.024 A 
ATOM     21  C   UNL     1       0.666   0.608  23.780  0.00  0.00    +0.024 A 
ATOM     22  C   UNL     1       2.961   0.164  23.171  0.00  0.00    -0.045 A 
ATOM     24  C   UNL     1       3.223   1.533  23.156  0.00  0.00    +0.006 A 
ATOM     25  C   UNL     1       1.683  -0.300  23.483  0.00  0.00    +0.006 A 
BRANCH  22  23
ATOM     23  C   UNL     1       4.049  -0.807  22.856  0.00  0.00    +0.013 C 
ATOM     28  C   UNL     1       4.083  -1.994  23.837  0.00  0.00    +0.012 C 
ATOM     29  C   UNL     1       5.436  -0.138  22.797  0.00  0.00    +0.012 C 
ENDBRANCH  22  23
ENDBRANCH   8  18
ENDBRANCH   3  16
ENDBRANCH  12   3
TORSDOF 7
ENDMDL
MODEL 4
REMARK VINA RESULT:       3.6      2.111      5.463
REMARK  Name = 11884103
REMARK  9 active torsions:
REMARK  status: ('A' for Active; 'I' for Inactive)
REMARK    1  A    between atoms: O_3  and  C_12
REMARK    2  A    between atoms: O_3  and  C_16
REMARK    3  A    between atoms: N_6  and  C_11
REMARK    4  A    between atoms: N_7  and  C_17
REMARK    5  A    between atoms: N_8  and  C_18
REMARK    6  A    between atoms: C_17  and  C_19
REMARK    7  A    between atoms: C_22  and  C_23
REMARK    8  A    between atoms: C_23  and  C_28
REMARK    9  A    between atoms: C_23  and  C_29
REMARK                            x       y       z     vdW  Elec       q    Type
REMARK                         _______ _______ _______ _____ _____    ______ ____
ROOT
ATOM      1  O   UNL     1      -3.473  -0.844  25.780  0.00  0.00    -0.368 OA
ATOM      2  O   UNL     1      -3.525  -3.460  24.181  0.00  0.00    -0.368 OA
ATOM      9  C   UNL     1      -2.573  -2.375  24.210  0.00  0.00    +0.173 C 
ATOM     10  C   UNL     1      -3.370  -1.096  24.370  0.00  0.00    +0.192 C 
ATOM     11  C   UNL     1      -1.744  -2.446  25.470  0.00  0.00    +0.131 C 
ATOM     12  C   UNL     1      -4.704  -1.465  23.768  0.00  0.00    +0.235 C 
ATOM     13  C   UNL     1      -2.654  -1.785  26.492  0.00  0.00    +0.185 C 
ATOM     14  C   UNL     1      -4.852  -2.913  24.181  0.00  0.00    +0.207 C 
ENDROOT
BRANCH  11   6
ATOM      4  O   UNL     1      -0.613  -1.413  23.025  0.00  0.00    -0.253 OA
ATOM      6  N   UNL     1      -0.506  -1.721  25.323  0.00  0.00    -0.292 N 
ATOM      7  N   UNL     1       1.183  -0.591  24.242  0.00  0.00    -0.295 N 
ATOM     15  C   UNL     1      -0.032  -1.257  24.097  0.00  0.00    +0.300 C 
ATOM     33  H   UNL     1       0.018  -1.482  26.160  0.00  0.00    +0.151 HD
ATOM     34  H   UNL     1       1.577  -0.491  25.172  0.00  0.00    +0.151 HD
BRANCH   7  17
ATOM     17  C   UNL     1       1.894  -0.010  23.128  0.00  0.00    +0.141 C 
BRANCH  17  19
ATOM     19  C   UNL     1       3.382  -0.113  23.298  0.00  0.00    -0.030 A 
ATOM     26  C   UNL     1       3.953  -1.303  23.748  0.00  0.00    +0.005 A 
ATOM     27  C   UNL     1       4.195   0.983  23.005  0.00  0.00    +0.005 A 
ATOM     30  C   UNL     1       5.335  -1.398  23.906  0.00  0.00    +0.000 A 
ATOM     31  C   UNL     1       5.577   0.888  23.164  0.00  0.00    +0.000 A 
ATOM     32  C   UNL     1       6.148  -0.302  23.613  0.00  0.00    +0.000 A 
ENDBRANCH  17  19
ENDBRANCH   7  17
ENDBRANCH  11   6
BRANCH  12   3
ATOM      3  O   UNL     1      -5.771  -0.669  24.233  0.00  0.00    -0.442 OA
BRANCH   3  16
ATOM      5  O   UNL     1      -6.248   1.319  25.258  0.00  0.00    -0.226 OA
ATOM      8  N   UNL     1      -4.173   0.922  24.249  0.00  0.00    -0.251 N 
ATOM     16  C   UNL     1      -5.461   0.612  24.642  0.00  0.00    +0.405 C 
ATOM     35  H   UNL     1      -3.671   0.198  23.741  0.00  0.00    +0.158 HD
BRANCH   8  18
ATOM     18  C   UNL     1      -3.464   2.126  24.464  0.00  0.00    +0.036 A 
ATOM     20  C   UNL     1      -2.177   2.091  24.999  0.00  0.00    +0.024 A 
ATOM     21  C   UNL     1      -4.052   3.348  24.140  0.00  0.00    +0.024 A 
ATOM     22  C   UNL     1      -2.065   4.501  24.887  0.00  0.00    -0.045 A 
ATOM     24  C   UNL     1      -1.476   3.279  25.210  0.00  0.00    +0.006 A 
ATOM     25  C   UNL     1      -3.352   4.537  24.351  0.00  0.00    +0.006 A 
BRANCH  22  23
ATOM     23  C   UNL     1      -1.317   5.772  25.111  0.00  0.00    +0.013 C 
ATOM     28  C   UNL     1      -2.093   7.008  24.620  0.00  0.00    +0.012 C 
ATOM     29  C   UNL     1       0.087   5.750  24.474  0.00  0.00    +0.012 C 
ENDBRANCH  22  23
ENDBRANCH   8  18
ENDBRANCH   3  16
ENDBRANCH  12   3
TORSDOF 7
ENDMDL
MODEL 5
REMARK VINA RESULT:       3.8      1.982      7.150
REMARK  Name = 11884103
REMARK  9 active torsions:
REMARK  status: ('A' for Active; 'I' for Inactive)
REMARK    1  A    between atoms: O_3  and  C_12
REMARK    2  A    between atoms: O_3  and  C_16
REMARK    3  A    between atoms: N_6  and  C_11
REMARK    4  A    between atoms: N_7  and  C_17
REMARK    5  A    between atoms: N_8  and  C_18
REMARK    6  A    between atoms: C_17  and  C_19
REMARK    7  A    between atoms: C_22  and  C_23
REMARK    8  A    between atoms: C_23  and  C_28
REMARK    9  A    between atoms: C_23  and  C_29
REMARK                            x       y       z     vdW  Elec       q    Type
REMARK                         _______ _______ _______ _____ _____    ______ ____
ROOT
ATOM      1  O   UNL     1      -2.961   0.068  23.624  0.00  0.00    -0.368 OA
ATOM      2  O   UNL     1      -4.790  -2.176  24.639  0.00  0.00    -0.368 OA
ATOM      9  C   UNL     1      -4.354  -0.945  25.254  0.00  0.00    +0.173 C 
ATOM     10  C   UNL     1      -2.918  -0.723  24.823  0.00  0.00    +0.192 C 
ATOM     11  C   UNL     1      -5.097   0.226  24.655  0.00  0.00    +0.131 C 
ATOM     12  C   UNL     1      -2.437  -2.128  24.551  0.00  0.00    +0.235 C 
ATOM     13  C   UNL     1      -4.312   0.487  23.381  0.00  0.00    +0.185 C 
ATOM     14  C   UNL     1      -3.672  -2.781  23.970  0.00  0.00    +0.207 C 
ENDROOT
BRANCH  11   6
ATOM      4  O   UNL     1      -3.561   2.644  24.312  0.00  0.00    -0.253 OA
ATOM      6  N   UNL     1      -5.068   1.369  25.534  0.00  0.00    -0.292 N 
ATOM      7  N   UNL     1      -4.452   3.452  26.296  0.00  0.00    -0.295 N 
ATOM     15  C   UNL     1      -4.292   2.501  25.291  0.00  0.00    +0.300 C 
ATOM     33  H   UNL     1      -5.689   1.378  26.338  0.00  0.00    +0.151 HD
ATOM     34  H   UNL     1      -5.096   3.255  27.056  0.00  0.00    +0.151 HD
BRANCH   7  17
ATOM     17  C   UNL     1      -3.763   4.720  26.291  0.00  0.00    +0.141 C 
BRANCH  17  19
ATOM     19  C   UNL     1      -2.364   4.595  25.760  0.00  0.00    -0.030 A 
ATOM     26  C   UNL     1      -1.811   5.627  25.002  0.00  0.00    +0.005 A 
ATOM     27  C   UNL     1      -1.616   3.447  26.024  0.00  0.00    +0.005 A 
ATOM     30  C   UNL     1      -0.512   5.512  24.508  0.00  0.00    +0.000 A 
ATOM     31  C   UNL     1      -0.317   3.332  25.530  0.00  0.00    +0.000 A 
ATOM     32  C   UNL     1       0.236   4.364  24.773  0.00  0.00    +0.000 A 
ENDBRANCH  17  19
ENDBRANCH   7  17
ENDBRANCH  11   6
BRANCH  12   3
ATOM      3  O   UNL     1      -1.341  -2.187  23.667  0.00  0.00    -0.442 OA
BRANCH   3  16
ATOM      5  O   UNL     1       0.157  -1.796  25.350  0.00  0.00    -0.226 OA
ATOM      8  N   UNL     1       0.676  -1.346  23.112  0.00  0.00    -0.251 N 
ATOM     16  C   UNL     1      -0.121  -1.769  24.158  0.00  0.00    +0.405 C 
ATOM     35  H   UNL     1       0.267  -1.399  22.184  0.00  0.00    +0.158 HD
BRANCH   8  18
ATOM     18  C   UNL     1       1.996  -0.841  23.173  0.00  0.00    +0.036 A 
ATOM     20  C   UNL     1       2.280   0.430  22.675  0.00  0.00    +0.024 A 
ATOM     21  C   UNL     1       3.013  -1.615  23.732  0.00  0.00    +0.024 A 
ATOM     22  C   UNL     1       4.599   0.153  23.294  0.00  0.00    -0.045 A 
ATOM     24  C   UNL     1       3.582   0.928  22.736  0.00  0.00    +0.006 A 
ATOM     25  C   UNL     1       4.315  -1.118  23.792  0.00  0.00    +0.006 A 
BRANCH  22  23
ATOM     23  C   UNL     1       5.991   0.685  23.360  0.00  0.00    +0.013 C 
ATOM     28  C   UNL     1       7.051  -0.402  23.102  0.00  0.00    +0.012 C 
ATOM     29  C   UNL     1       6.287   1.396  24.695  0.00  0.00    +0.012 C 
ENDBRANCH  22  23
ENDBRANCH   8  18
ENDBRANCH   3  16
ENDBRANCH  12   3
TORSDOF 7
ENDMDL
MODEL 6
REMARK VINA RESULT:       5.0      2.028      8.023
REMARK  Name = 11884103
REMARK  9 active torsions:
REMARK  status: ('A' for Active; 'I' for Inactive)
REMARK    1  A    between atoms: O_3  and  C_12
REMARK    2  A    between atoms: O_3  and  C_16
REMARK    3  A    between atoms: N_6  and  C_11
REMARK    4  A    between atoms: N_7  and  C_17
REMARK    5  A    between atoms: N_8  and  C_18
REMARK    6  A    between atoms: C_17  and  C_19
REMARK    7  A    between atoms: C_22  and  C_23
REMARK    8  A    between atoms: C_23  and  C_28
REMARK    9  A    between atoms: C_23  and  C_29
REMARK                            x       y       z     vdW  Elec       q    Type
REMARK                         _______ _______ _______ _____ _____    ______ ____
ROOT
ATOM      1  O   UNL     1      -3.056  -0.548  23.103  0.00  0.00    -0.368 OA
ATOM      2  O   UNL     1      -1.637  -2.126  25.317  0.00  0.00    -0.368 OA
ATOM      9  C   UNL     1      -2.417  -0.912  25.357  0.00  0.00    +0.173 C 
ATOM     10  C   UNL     1      -2.096  -0.142  24.092  0.00  0.00    +0.192 C 
ATOM     11  C   UNL     1      -3.886  -1.235  25.222  0.00  0.00    +0.131 C 
ATOM     12  C   UNL     1      -0.706  -0.628  23.757  0.00  0.00    +0.235 C 
ATOM     13  C   UNL     1      -4.046  -1.386  23.719  0.00  0.00    +0.185 C 
ATOM     14  C   UNL     1      -0.767  -2.081  24.176  0.00  0.00    +0.207 C 
ENDROOT
BRANCH  11   6
ATOM      4  O   UNL     1      -3.849   1.529  24.393  0.00  0.00    -0.253 OA
ATOM      6  N   UNL     1      -4.706  -0.163  25.732  0.00  0.00    -0.292 N 
ATOM      7  N   UNL     1      -5.524   1.979  25.933  0.00  0.00    -0.295 N 
ATOM     15  C   UNL     1      -4.622   1.150  25.272  0.00  0.00    +0.300 C 
ATOM     33  H   UNL     1      -5.424  -0.385  26.415  0.00  0.00    +0.151 HD
ATOM     34  H   UNL     1      -6.140   1.572  26.631  0.00  0.00    +0.151 HD
BRANCH   7  17
ATOM     17  C   UNL     1      -5.644   3.389  25.650  0.00  0.00    +0.141 C 
BRANCH  17  19
ATOM     19  C   UNL     1      -4.308   4.028  25.405  0.00  0.00    -0.030 A 
ATOM     26  C   UNL     1      -4.040   4.637  24.180  0.00  0.00    +0.005 A 
ATOM     27  C   UNL     1      -3.334   4.013  26.404  0.00  0.00    +0.005 A 
ATOM     30  C   UNL     1      -2.799   5.230  23.952  0.00  0.00    +0.000 A 
ATOM     31  C   UNL     1      -2.093   4.606  26.176  0.00  0.00    +0.000 A 
ATOM     32  C   UNL     1      -1.824   5.215  24.951  0.00  0.00    +0.000 A 
ENDBRANCH  17  19
ENDBRANCH   7  17
ENDBRANCH  11   6
BRANCH  12   3
ATOM      3  O   UNL     1      -0.372  -0.483  22.395  0.00  0.00    -0.442 OA
BRANCH   3  16
ATOM      5  O   UNL     1       1.376  -0.639  20.929  0.00  0.00    -0.226 OA
ATOM      8  N   UNL     1       1.719  -0.351  23.227  0.00  0.00    -0.251 N 
ATOM     16  C   UNL     1       0.970  -0.504  22.076  0.00  0.00    +0.405 C 
ATOM     35  H   UNL     1       1.197  -0.253  24.094  0.00  0.00    +0.158 HD
BRANCH   8  18
ATOM     18  C   UNL     1       3.127  -0.317  23.350  0.00  0.00    +0.036 A 
ATOM     20  C   UNL     1       3.813  -1.437  23.821  0.00  0.00    +0.024 A 
ATOM     21  C   UNL     1       3.830   0.835  23.000  0.00  0.00    +0.024 A 
ATOM     22  C   UNL     1       5.905  -0.251  23.592  0.00  0.00    -0.045 A 
ATOM     24  C   UNL     1       5.203  -1.404  23.942  0.00  0.00    +0.006 A 
ATOM     25  C   UNL     1       5.219   0.869  23.121  0.00  0.00    +0.006 A 
BRANCH  22  23
ATOM     23  C   UNL     1       7.390  -0.215  23.721  0.00  0.00    +0.013 C 
ATOM     28  C   UNL     1       7.938   1.220  23.839  0.00  0.00    +0.012 C 
ATOM     29  C   UNL     1       8.099  -0.951  22.567  0.00  0.00    +0.012 C 
ENDBRANCH  22  23
ENDBRANCH   8  18
ENDBRANCH   3  16
ENDBRANCH  12   3
TORSDOF 7
ENDMDL
MODEL 7
REMARK VINA RESULT:       6.0      1.640      2.324
REMARK  Name = 11884103
REMARK  9 active torsions:
REMARK  status: ('A' for Active; 'I' for Inactive)
REMARK    1  A    between atoms: O_3  and  C_12
REMARK    2  A    between atoms: O_3  and  C_16
REMARK    3  A    between atoms: N_6  and  C_11
REMARK    4  A    between atoms: N_7  and  C_17
REMARK    5  A    between atoms: N_8  and  C_18
REMARK    6  A    between atoms: C_17  and  C_19
REMARK    7  A    between atoms: C_22  and  C_23
REMARK    8  A    between atoms: C_23  and  C_28
REMARK    9  A    between atoms: C_23  and  C_29
REMARK                            x       y       z     vdW  Elec       q    Type
REMARK                         _______ _______ _______ _____ _____    ______ ____
ROOT
ATOM      1  O   UNL     1      -3.515   4.112  24.131  0.00  0.00    -0.368 OA
ATOM      2  O   UNL     1      -3.096   5.721  26.708  0.00  0.00    -0.368 OA
ATOM      9  C   UNL     1      -2.328   4.656  26.109  0.00  0.00    +0.173 C 
ATOM     10  C   UNL     1      -3.320   3.693  25.491  0.00  0.00    +0.192 C 
ATOM     11  C   UNL     1      -1.546   5.180  24.927  0.00  0.00    +0.131 C 
ATOM     12  C   UNL     1      -4.556   3.914  26.329  0.00  0.00    +0.235 C 
ATOM     13  C   UNL     1      -2.588   5.163  23.821  0.00  0.00    +0.185 C 
ATOM     14  C   UNL     1      -4.491   5.400  26.607  0.00  0.00    +0.207 C 
ENDROOT
BRANCH  11   6
ATOM      4  O   UNL     1      -1.664   2.507  23.849  0.00  0.00    -0.253 OA
ATOM      6  N   UNL     1      -0.432   4.320  24.613  0.00  0.00    -0.292 N 
ATOM      7  N   UNL     1       0.654   2.427  23.883  0.00  0.00    -0.295 N 
ATOM     15  C   UNL     1      -0.581   3.035  24.093  0.00  0.00    +0.300 C 
ATOM     33  H   UNL     1       0.509   4.689  24.716  0.00  0.00    +0.151 HD
ATOM     34  H   UNL     1       1.498   2.950  24.093  0.00  0.00    +0.151 HD
BRANCH   7  17
ATOM     17  C   UNL     1       0.788   1.092  23.351  0.00  0.00    +0.141 C 
BRANCH  17  19
ATOM     19  C   UNL     1       0.261   0.054  24.299  0.00  0.00    -0.030 A 
ATOM     26  C   UNL     1      -0.520   0.438  25.389  0.00  0.00    +0.005 A 
ATOM     27  C   UNL     1       0.552  -1.295  24.090  0.00  0.00    +0.005 A 
ATOM     30  C   UNL     1      -1.009  -0.526  26.271  0.00  0.00    +0.000 A 
ATOM     31  C   UNL     1       0.062  -2.258  24.972  0.00  0.00    +0.000 A 
ATOM     32  C   UNL     1      -0.718  -1.874  26.062  0.00  0.00    +0.000 A 
ENDBRANCH  17  19
ENDBRANCH   7  17
ENDBRANCH  11   6
BRANCH  12   3
ATOM      3  O   UNL     1      -5.751   3.548  25.676  0.00  0.00    -0.442 OA
BRANCH   3  16
ATOM      5  O   UNL     1      -6.907   1.748  24.867  0.00  0.00    -0.226 OA
ATOM      8  N   UNL     1      -4.611   1.637  25.315  0.00  0.00    -0.251 N 
ATOM     16  C   UNL     1      -5.851   2.242  25.245  0.00  0.00    +0.405 C 
ATOM     35  H   UNL     1      -3.848   2.214  25.658  0.00  0.00    +0.158 HD
BRANCH   8  18
ATOM     18  C   UNL     1      -4.270   0.309  24.969  0.00  0.00    +0.036 A 
ATOM     20  C   UNL     1      -3.958  -0.009  23.648  0.00  0.00    +0.024 A 
ATOM     21  C   UNL     1      -4.245  -0.682  25.950  0.00  0.00    +0.024 A 
ATOM     22  C   UNL     1      -3.596  -2.310  24.288  0.00  0.00    -0.045 A 
ATOM     24  C   UNL     1      -3.620  -1.320  23.307  0.00  0.00    +0.006 A 
ATOM     25  C   UNL     1      -3.908  -1.992  25.610  0.00  0.00    +0.006 A 
BRANCH  22  23
ATOM     23  C   UNL     1      -3.234  -3.711  23.925  0.00  0.00    +0.013 C 
ATOM     28  C   UNL     1      -1.909  -3.794  23.144  0.00  0.00    +0.012 C 
ATOM     29  C   UNL     1      -4.351  -4.422  23.135  0.00  0.00    +0.012 C 
ENDBRANCH  22  23
ENDBRANCH   8  18
ENDBRANCH   3  16
ENDBRANCH  12   3
TORSDOF 7
ENDMDL
