MODEL 1
REMARK VINA RESULT:       3.1      0.000      0.000
REMARK  Name = 25338514
REMARK  8 active torsions:
REMARK  status: ('A' for Active; 'I' for Inactive)
REMARK    1  A    between atoms: O_3  and  C_28
REMARK    2  A    between atoms: O_3  and  C_33
REMARK    3  A    between atoms: N_4  and  C_13
REMARK    4  A    between atoms: N_5  and  C_8
REMARK    5  A    between atoms: C_9  and  C_12
REMARK    6  A    between atoms: C_14  and  C_15
REMARK    7  A    between atoms: C_15  and  C_18
REMARK    8  A    between atoms: C_16  and  C_17
REMARK                            x       y       z     vdW  Elec       q    Type
REMARK                         _______ _______ _______ _____ _____    ______ ____
ROOT
ATOM      4  N   UNL     1      -2.891  -0.996  25.775  0.00  0.00    -0.293 NA
ATOM      8  C   UNL     1      -4.920  -0.286  24.874  0.00  0.00    +0.089 C 
ATOM      9  C   UNL     1      -2.683  -1.094  24.318  0.00  0.00    +0.147 C 
ATOM     10  C   UNL     1      -3.959  -0.485  23.703  0.00  0.00    +0.052 C 
ATOM     11  C   UNL     1      -4.334  -1.144  25.984  0.00  0.00    +0.107 C 
ATOM     13  C   UNL     1      -2.127  -1.982  26.530  0.00  0.00    +0.105 C 
ENDROOT
BRANCH   9  12
ATOM      1  O   UNL     1      -1.589   0.744  23.136  0.00  0.00    -0.336 OA
ATOM      6  N   UNL     1      -0.172  -0.757  24.005  0.00  0.00    -0.190 NA
ATOM      7  N   UNL     1      -0.302   1.189  22.807  0.00  0.00    -0.056 NA
ATOM     12  C   UNL     1      -1.422  -0.406  23.841  0.00  0.00    +0.245 A 
ATOM     16  C   UNL     1       0.478   0.252  23.354  0.00  0.00    +0.202 A 
BRANCH  16  17
ATOM     17  C   UNL     1       1.909   0.294  23.269  0.00  0.00    +0.023 A 
ATOM     19  C   UNL     1       2.663  -0.820  23.641  0.00  0.00    +0.020 A 
ATOM     20  C   UNL     1       2.545   1.446  22.815  0.00  0.00    +0.012 A 
ATOM     23  C   UNL     1       4.065  -0.795  23.562  0.00  0.00    -0.017 A 
ATOM     24  C   UNL     1       4.712   0.377  23.101  0.00  0.00    -0.018 A 
ATOM     25  C   UNL     1       3.937   1.488  22.731  0.00  0.00    +0.009 A 
ATOM     29  C   UNL     1       4.839  -1.906  23.933  0.00  0.00    +0.008 A 
ATOM     30  C   UNL     1       6.114   0.402  23.024  0.00  0.00    +0.008 A 
ATOM     31  C   UNL     1       6.231  -1.864  23.849  0.00  0.00    +0.001 A 
ATOM     32  C   UNL     1       6.867  -0.712  23.396  0.00  0.00    +0.001 A 
ENDBRANCH  16  17
ENDBRANCH   9  12
BRANCH   8   5
ATOM      2  O   UNL     1      -7.201   1.451  24.622  0.00  0.00    -0.275 OA
ATOM      5  N   UNL     1      -4.999   1.101  25.267  0.00  0.00    -0.311 N 
ATOM     14  C   UNL     1      -6.149   1.861  25.105  0.00  0.00    +0.218 C 
ATOM     34  H   UNL     1      -4.153   1.540  25.617  0.00  0.00    +0.149 HD
BRANCH  14  15
ATOM     15  C   UNL     1      -5.955   3.278  25.607  0.00  0.00    +0.130 C 
BRANCH  15  18
ATOM     18  C   UNL     1      -4.545   3.781  25.449  0.00  0.00    -0.038 A 
ATOM     21  C   UNL     1      -3.796   4.127  26.573  0.00  0.00    +0.007 A 
ATOM     22  C   UNL     1      -3.987   3.898  24.175  0.00  0.00    +0.007 A 
ATOM     26  C   UNL     1      -2.489   4.593  26.425  0.00  0.00    +0.046 A 
ATOM     27  C   UNL     1      -2.679   4.363  24.027  0.00  0.00    +0.046 A 
ATOM     28  C   UNL     1      -1.931   4.711  25.152  0.00  0.00    +0.120 A 
BRANCH  28   3
ATOM      3  O   UNL     1      -0.656   5.163  25.008  0.00  0.00    -0.495 OA
ATOM     33  C   UNL     1       0.136   4.559  23.987  0.00  0.00    +0.277 C 
ENDBRANCH  28   3
ENDBRANCH  15  18
ENDBRANCH  14  15
ENDBRANCH   8   5
TORSDOF 6
ENDMDL
MODEL 2
REMARK VINA RESULT:       3.1      1.833      4.753
REMARK  Name = 25338514
REMARK  8 active torsions:
REMARK  status: ('A' for Active; 'I' for Inactive)
REMARK    1  A    between atoms: O_3  and  C_28
REMARK    2  A    between atoms: O_3  and  C_33
REMARK    3  A    between atoms: N_4  and  C_13
REMARK    4  A    between atoms: N_5  and  C_8
REMARK    5  A    between atoms: C_9  and  C_12
REMARK    6  A    between atoms: C_14  and  C_15
REMARK    7  A    between atoms: C_15  and  C_18
REMARK    8  A    between atoms: C_16  and  C_17
REMARK                            x       y       z     vdW  Elec       q    Type
REMARK                         _______ _______ _______ _____ _____    ______ ____
ROOT
ATOM      4  N   UNL     1      -4.626   4.473  24.586  0.00  0.00    -0.293 NA
ATOM      8  C   UNL     1      -5.549   3.404  26.441  0.00  0.00    +0.089 C 
ATOM      9  C   UNL     1      -3.566   4.562  25.607  0.00  0.00    +0.147 C 
ATOM     10  C   UNL     1      -4.097   3.728  26.790  0.00  0.00    +0.052 C 
ATOM     11  C   UNL     1      -5.889   4.381  25.326  0.00  0.00    +0.107 C 
ATOM     13  C   UNL     1      -4.622   5.595  23.655  0.00  0.00    +0.105 C 
ENDROOT
BRANCH   9  12
ATOM      1  O   UNL     1      -1.235   5.019  25.034  0.00  0.00    -0.336 OA
ATOM      6  N   UNL     1      -1.843   2.881  24.756  0.00  0.00    -0.190 NA
ATOM      7  N   UNL     1      -0.097   4.349  24.565  0.00  0.00    -0.056 NA
ATOM     12  C   UNL     1      -2.216   4.082  25.118  0.00  0.00    +0.245 A 
ATOM     16  C   UNL     1      -0.536   3.094  24.425  0.00  0.00    +0.202 A 
BRANCH  16  17
ATOM     17  C   UNL     1       0.306   2.031  23.959  0.00  0.00    +0.023 A 
ATOM     19  C   UNL     1       1.682   2.233  23.840  0.00  0.00    +0.020 A 
ATOM     20  C   UNL     1      -0.248   0.799  23.625  0.00  0.00    +0.012 A 
ATOM     23  C   UNL     1       2.521   1.202  23.385  0.00  0.00    -0.017 A 
ATOM     24  C   UNL     1       1.957  -0.051  23.046  0.00  0.00    -0.018 A 
ATOM     25  C   UNL     1       0.571  -0.236  23.171  0.00  0.00    +0.009 A 
ATOM     29  C   UNL     1       3.908   1.389  23.259  0.00  0.00    +0.008 A 
ATOM     30  C   UNL     1       2.796  -1.080  22.590  0.00  0.00    +0.008 A 
ATOM     31  C   UNL     1       4.726   0.354  22.805  0.00  0.00    +0.001 A 
ATOM     32  C   UNL     1       4.171  -0.878  22.471  0.00  0.00    +0.001 A 
ENDBRANCH  16  17
ENDBRANCH   9  12
BRANCH   8   5
ATOM      2  O   UNL     1      -4.858   2.333  23.861  0.00  0.00    -0.275 OA
ATOM      5  N   UNL     1      -5.698   2.036  26.004  0.00  0.00    -0.311 N 
ATOM     14  C   UNL     1      -5.334   1.612  24.734  0.00  0.00    +0.218 C 
ATOM     34  H   UNL     1      -6.144   1.384  26.642  0.00  0.00    +0.149 HD
BRANCH  14  15
ATOM     15  C   UNL     1      -5.592   0.130  24.546  0.00  0.00    +0.130 C 
BRANCH  15  18
ATOM     18  C   UNL     1      -4.348  -0.711  24.658  0.00  0.00    -0.038 A 
ATOM     21  C   UNL     1      -3.320  -0.326  25.518  0.00  0.00    +0.007 A 
ATOM     22  C   UNL     1      -4.225  -1.877  23.901  0.00  0.00    +0.007 A 
ATOM     26  C   UNL     1      -2.168  -1.107  25.622  0.00  0.00    +0.046 A 
ATOM     27  C   UNL     1      -3.074  -2.658  24.006  0.00  0.00    +0.046 A 
ATOM     28  C   UNL     1      -2.045  -2.272  24.865  0.00  0.00    +0.120 A 
BRANCH  28   3
ATOM      3  O   UNL     1      -0.922  -3.034  24.968  0.00  0.00    -0.495 OA
ATOM     33  C   UNL     1       0.184  -2.469  25.669  0.00  0.00    +0.277 C 
ENDBRANCH  28   3
ENDBRANCH  15  18
ENDBRANCH  14  15
ENDBRANCH   8   5
TORSDOF 6
ENDMDL
MODEL 3
REMARK VINA RESULT:       3.9      1.584      2.064
REMARK  Name = 25338514
REMARK  8 active torsions:
REMARK  status: ('A' for Active; 'I' for Inactive)
REMARK    1  A    between atoms: O_3  and  C_28
REMARK    2  A    between atoms: O_3  and  C_33
REMARK    3  A    between atoms: N_4  and  C_13
REMARK    4  A    between atoms: N_5  and  C_8
REMARK    5  A    between atoms: C_9  and  C_12
REMARK    6  A    between atoms: C_14  and  C_15
REMARK    7  A    between atoms: C_15  and  C_18
REMARK    8  A    between atoms: C_16  and  C_17
REMARK                            x       y       z     vdW  Elec       q    Type
REMARK                         _______ _______ _______ _____ _____    ______ ____
ROOT
ATOM      4  N   UNL     1      -4.018  -0.399  25.872  0.00  0.00    -0.293 NA
ATOM      8  C   UNL     1      -5.185   1.037  24.454  0.00  0.00    +0.089 C 
ATOM      9  C   UNL     1      -3.760  -0.946  24.527  0.00  0.00    +0.147 C 
ATOM     10  C   UNL     1      -4.397   0.076  23.564  0.00  0.00    +0.052 C 
ATOM     11  C   UNL     1      -5.302   0.302  25.780  0.00  0.00    +0.107 C 
ATOM     13  C   UNL     1      -4.027  -1.419  26.914  0.00  0.00    +0.105 C 
ENDROOT
BRANCH   9  12
ATOM      1  O   UNL     1      -1.896  -2.472  24.117  0.00  0.00    -0.336 OA
ATOM      6  N   UNL     1      -1.328  -0.305  24.092  0.00  0.00    -0.190 NA
ATOM      7  N   UNL     1      -0.519  -2.433  23.859  0.00  0.00    -0.056 NA
ATOM     12  C   UNL     1      -2.292  -1.178  24.240  0.00  0.00    +0.245 A 
ATOM     16  C   UNL     1      -0.260  -1.122  23.859  0.00  0.00    +0.202 A 
BRANCH  16  17
ATOM     17  C   UNL     1       1.055  -0.597  23.630  0.00  0.00    +0.023 A 
ATOM     19  C   UNL     1       2.176  -1.389  23.886  0.00  0.00    +0.020 A 
ATOM     20  C   UNL     1       1.213   0.700  23.154  0.00  0.00    +0.012 A 
ATOM     23  C   UNL     1       3.471  -0.891  23.666  0.00  0.00    -0.017 A 
ATOM     24  C   UNL     1       3.631   0.429  23.182  0.00  0.00    -0.018 A 
ATOM     25  C   UNL     1       2.493   1.212  22.931  0.00  0.00    +0.009 A 
ATOM     29  C   UNL     1       4.609  -1.674  23.919  0.00  0.00    +0.008 A 
ATOM     30  C   UNL     1       4.926   0.928  22.964  0.00  0.00    +0.008 A 
ATOM     31  C   UNL     1       5.888  -1.162  23.696  0.00  0.00    +0.001 A 
ATOM     32  C   UNL     1       6.046   0.136  23.219  0.00  0.00    +0.001 A 
ENDBRANCH  16  17
ENDBRANCH   9  12
BRANCH   8   5
ATOM      2  O   UNL     1      -6.305   3.494  25.449  0.00  0.00    -0.275 OA
ATOM      5  N   UNL     1      -4.500   2.299  24.611  0.00  0.00    -0.311 N 
ATOM     14  C   UNL     1      -5.128   3.434  25.102  0.00  0.00    +0.218 C 
ATOM     34  H   UNL     1      -3.540   2.357  24.287  0.00  0.00    +0.149 HD
BRANCH  14  15
ATOM     15  C   UNL     1      -4.176   4.613  25.167  0.00  0.00    +0.130 C 
BRANCH  15  18
ATOM     18  C   UNL     1      -2.753   4.216  25.455  0.00  0.00    -0.038 A 
ATOM     21  C   UNL     1      -1.700   4.977  24.950  0.00  0.00    +0.007 A 
ATOM     22  C   UNL     1      -2.488   3.085  26.229  0.00  0.00    +0.007 A 
ATOM     26  C   UNL     1      -0.381   4.608  25.217  0.00  0.00    +0.046 A 
ATOM     27  C   UNL     1      -1.170   2.717  26.497  0.00  0.00    +0.046 A 
ATOM     28  C   UNL     1      -0.116   3.478  25.991  0.00  0.00    +0.120 A 
BRANCH  28   3
ATOM      3  O   UNL     1       1.170   3.119  26.253  0.00  0.00    -0.495 OA
ATOM     33  C   UNL     1       1.484   2.763  27.598  0.00  0.00    +0.277 C 
ENDBRANCH  28   3
ENDBRANCH  15  18
ENDBRANCH  14  15
ENDBRANCH   8   5
TORSDOF 6
ENDMDL
