MODEL 1
REMARK VINA RESULT:      -4.8      0.000      0.000
REMARK  Name = 75536051
REMARK  6 active torsions:
REMARK  status: ('A' for Active; 'I' for Inactive)
REMARK    1  A    between atoms: S_1  and  N_6
REMARK    2  A    between atoms: S_1  and  C_14
REMARK    3  A    between atoms: N_7  and  N_8
REMARK    4  A    between atoms: C_9  and  C_13
REMARK    5  A    between atoms: C_15  and  C_16
REMARK    6  A    between atoms: C_16  and  C_17
REMARK                            x       y       z     vdW  Elec       q    Type
REMARK                         _______ _______ _______ _____ _____    ______ ____
ROOT
ATOM      4  O   UNL     1      -0.087   3.884  23.791  0.00  0.00    -0.274 OA
ATOM      7  N   UNL     1       0.096   1.786  24.771  0.00  0.00    -0.234 N 
ATOM     13  C   UNL     1      -0.394   3.071  24.660  0.00  0.00    +0.233 C 
ATOM     23  H   UNL     1      -0.194   1.123  25.483  0.00  0.00    +0.173 HD
ENDROOT
BRANCH  13   9
ATOM      6  N   UNL     1      -3.476   2.692  24.956  0.00  0.00    -0.181 NA
ATOM      9  C   UNL     1      -1.353   3.418  25.760  0.00  0.00    +0.093 C 
ATOM     10  C   UNL     1      -2.173   4.652  25.427  0.00  0.00    +0.031 C 
ATOM     11  C   UNL     1      -2.408   2.333  25.931  0.00  0.00    +0.122 C 
ATOM     12  C   UNL     1      -3.325   4.125  24.578  0.00  0.00    +0.110 C 
BRANCH   6   1
ATOM      1  S   UNL     1      -5.041   2.097  25.238  0.00  0.00    +0.029 S 
ATOM      2  O   UNL     1      -5.834   2.246  24.032  0.00  0.00    -0.158 OA
ATOM      3  O   UNL     1      -5.519   2.592  26.515  0.00  0.00    -0.158 OA
ATOM     14  C   UNL     1      -4.672   0.370  25.431  0.00  0.00    +0.215 C 
ENDBRANCH   6   1
ENDBRANCH  13   9
BRANCH   7   8
ATOM      5  O   UNL     1      -0.127  -0.649  23.483  0.00  0.00    -0.274 OA
ATOM      8  N   UNL     1       1.009   1.340  23.849  0.00  0.00    -0.234 N 
ATOM     15  C   UNL     1       0.814   0.109  23.256  0.00  0.00    +0.233 C 
ATOM     24  H   UNL     1       1.789   1.956  23.645  0.00  0.00    +0.173 HD
BRANCH  15  16
ATOM     16  C   UNL     1       1.891  -0.235  22.249  0.00  0.00    +0.132 C 
BRANCH  16  17
ATOM     17  C   UNL     1       3.258  -0.245  22.881  0.00  0.00    -0.039 A 
ATOM     18  C   UNL     1       4.062   0.894  22.823  0.00  0.00    +0.004 A 
ATOM     19  C   UNL     1       3.719  -1.394  23.524  0.00  0.00    +0.004 A 
ATOM     20  C   UNL     1       5.328   0.883  23.409  0.00  0.00    +0.000 A 
ATOM     21  C   UNL     1       4.985  -1.403  24.110  0.00  0.00    +0.000 A 
ATOM     22  C   UNL     1       5.789  -0.265  24.052  0.00  0.00    +0.000 A 
ENDBRANCH  16  17
ENDBRANCH  15  16
ENDBRANCH   7   8
TORSDOF 5
ENDMDL
MODEL 2
REMARK VINA RESULT:      -3.7      2.096      2.280
REMARK  Name = 75536051
REMARK  6 active torsions:
REMARK  status: ('A' for Active; 'I' for Inactive)
REMARK    1  A    between atoms: S_1  and  N_6
REMARK    2  A    between atoms: S_1  and  C_14
REMARK    3  A    between atoms: N_7  and  N_8
REMARK    4  A    between atoms: C_9  and  C_13
REMARK    5  A    between atoms: C_15  and  C_16
REMARK    6  A    between atoms: C_16  and  C_17
REMARK                            x       y       z     vdW  Elec       q    Type
REMARK                         _______ _______ _______ _____ _____    ______ ____
ROOT
ATOM      4  O   UNL     1      -0.573   3.752  24.122  0.00  0.00    -0.274 OA
ATOM      7  N   UNL     1      -0.025   1.525  24.484  0.00  0.00    -0.234 N 
ATOM     13  C   UNL     1      -0.853   2.627  24.528  0.00  0.00    +0.233 C 
ATOM     23  H   UNL     1      -0.289   0.598  24.801  0.00  0.00    +0.173 HD
ENDROOT
BRANCH  13   9
ATOM      6  N   UNL     1      -2.675   0.095  24.509  0.00  0.00    -0.181 NA
ATOM      9  C   UNL     1      -2.174   2.328  25.174  0.00  0.00    +0.093 C 
ATOM     10  C   UNL     1      -3.317   2.383  24.176  0.00  0.00    +0.031 C 
ATOM     11  C   UNL     1      -2.223   0.893  25.683  0.00  0.00    +0.122 C 
ATOM     12  C   UNL     1      -3.316   1.006  23.521  0.00  0.00    +0.110 C 
BRANCH   6   1
ATOM      1  S   UNL     1      -3.404  -1.410  24.805  0.00  0.00    +0.029 S 
ATOM      2  O   UNL     1      -4.433  -1.647  23.810  0.00  0.00    -0.158 OA
ATOM      3  O   UNL     1      -3.689  -1.533  26.222  0.00  0.00    -0.158 OA
ATOM     14  C   UNL     1      -2.037  -2.482  24.433  0.00  0.00    +0.215 C 
ENDBRANCH   6   1
ENDBRANCH  13   9
BRANCH   7   8
ATOM      5  O   UNL     1       0.925  -0.088  22.451  0.00  0.00    -0.274 OA
ATOM      8  N   UNL     1       1.231   1.658  23.947  0.00  0.00    -0.234 N 
ATOM     15  C   UNL     1       1.618   0.805  22.933  0.00  0.00    +0.233 C 
ATOM     24  H   UNL     1       1.814   2.395  24.329  0.00  0.00    +0.173 HD
BRANCH  15  16
ATOM     16  C   UNL     1       3.019   1.088  22.431  0.00  0.00    +0.132 C 
BRANCH  16  17
ATOM     17  C   UNL     1       4.041   0.232  23.130  0.00  0.00    -0.039 A 
ATOM     18  C   UNL     1       5.264   0.781  23.517  0.00  0.00    +0.004 A 
ATOM     19  C   UNL     1       3.764  -1.110  23.391  0.00  0.00    +0.004 A 
ATOM     20  C   UNL     1       6.210  -0.013  24.164  0.00  0.00    +0.000 A 
ATOM     21  C   UNL     1       4.711  -1.903  24.039  0.00  0.00    +0.000 A 
ATOM     22  C   UNL     1       5.934  -1.355  24.426  0.00  0.00    +0.000 A 
ENDBRANCH  16  17
ENDBRANCH  15  16
ENDBRANCH   7   8
TORSDOF 5
ENDMDL
MODEL 3
REMARK VINA RESULT:      -3.7      1.730      3.176
REMARK  Name = 75536051
REMARK  6 active torsions:
REMARK  status: ('A' for Active; 'I' for Inactive)
REMARK    1  A    between atoms: S_1  and  N_6
REMARK    2  A    between atoms: S_1  and  C_14
REMARK    3  A    between atoms: N_7  and  N_8
REMARK    4  A    between atoms: C_9  and  C_13
REMARK    5  A    between atoms: C_15  and  C_16
REMARK    6  A    between atoms: C_16  and  C_17
REMARK                            x       y       z     vdW  Elec       q    Type
REMARK                         _______ _______ _______ _____ _____    ______ ____
ROOT
ATOM      4  O   UNL     1      -1.754  -2.881  23.877  0.00  0.00    -0.274 OA
ATOM      7  N   UNL     1      -1.144  -0.640  23.925  0.00  0.00    -0.234 N 
ATOM     13  C   UNL     1      -1.932  -1.724  24.252  0.00  0.00    +0.233 C 
ATOM     23  H   UNL     1      -1.296   0.302  24.271  0.00  0.00    +0.173 HD
ENDROOT
BRANCH  13   9
ATOM      6  N   UNL     1      -3.507   0.944  24.610  0.00  0.00    -0.181 NA
ATOM      9  C   UNL     1      -3.098  -1.348  25.118  0.00  0.00    +0.093 C 
ATOM     10  C   UNL     1      -2.668  -0.520  26.316  0.00  0.00    +0.031 C 
ATOM     11  C   UNL     1      -4.055  -0.422  24.378  0.00  0.00    +0.122 C 
ATOM     12  C   UNL     1      -2.592   0.907  25.785  0.00  0.00    +0.110 C 
BRANCH   6   1
ATOM      1  S   UNL     1      -4.568   2.261  24.460  0.00  0.00    +0.029 S 
ATOM      2  O   UNL     1      -5.917   1.826  24.770  0.00  0.00    -0.158 OA
ATOM      3  O   UNL     1      -4.275   2.976  23.233  0.00  0.00    -0.158 OA
ATOM     14  C   UNL     1      -3.999   3.258  25.816  0.00  0.00    +0.215 C 
ENDBRANCH   6   1
ENDBRANCH  13   9
BRANCH   7   8
ATOM      5  O   UNL     1       0.836   1.258  23.585  0.00  0.00    -0.274 OA
ATOM      8  N   UNL     1      -0.056  -0.831  23.111  0.00  0.00    -0.234 N 
ATOM     15  C   UNL     1       0.883   0.175  23.003  0.00  0.00    +0.233 C 
ATOM     24  H   UNL     1       0.001  -1.721  22.628  0.00  0.00    +0.173 HD
BRANCH  15  16
ATOM     16  C   UNL     1       2.031  -0.190  22.086  0.00  0.00    +0.132 C 
BRANCH  16  17
ATOM     17  C   UNL     1       3.342  -0.220  22.826  0.00  0.00    -0.039 A 
ATOM     18  C   UNL     1       3.748  -1.385  23.478  0.00  0.00    +0.004 A 
ATOM     19  C   UNL     1       4.150   0.916  22.859  0.00  0.00    +0.004 A 
ATOM     20  C   UNL     1       4.962  -1.412  24.163  0.00  0.00    +0.000 A 
ATOM     21  C   UNL     1       5.364   0.888  23.544  0.00  0.00    +0.000 A 
ATOM     22  C   UNL     1       5.770  -0.276  24.196  0.00  0.00    +0.000 A 
ENDBRANCH  16  17
ENDBRANCH  15  16
ENDBRANCH   7   8
TORSDOF 5
ENDMDL
MODEL 4
REMARK VINA RESULT:      -3.2     17.284     18.167
REMARK  Name = 75536051
REMARK  6 active torsions:
REMARK  status: ('A' for Active; 'I' for Inactive)
REMARK    1  A    between atoms: S_1  and  N_6
REMARK    2  A    between atoms: S_1  and  C_14
REMARK    3  A    between atoms: N_7  and  N_8
REMARK    4  A    between atoms: C_9  and  C_13
REMARK    5  A    between atoms: C_15  and  C_16
REMARK    6  A    between atoms: C_16  and  C_17
REMARK                            x       y       z     vdW  Elec       q    Type
REMARK                         _______ _______ _______ _____ _____    ______ ____
ROOT
ATOM      4  O   UNL     1      14.494  -6.761  26.797  0.00  0.00    -0.274 OA
ATOM      7  N   UNL     1      16.676  -5.997  27.014  0.00  0.00    -0.234 N 
ATOM     13  C   UNL     1      15.547  -6.676  27.423  0.00  0.00    +0.233 C 
ATOM     23  H   UNL     1      17.545  -5.964  27.537  0.00  0.00    +0.173 HD
ENDROOT
BRANCH  13   9
ATOM      6  N   UNL     1      14.516  -5.866  30.253  0.00  0.00    -0.181 NA
ATOM      9  C   UNL     1      15.713  -7.303  28.776  0.00  0.00    +0.093 C 
ATOM     10  C   UNL     1      16.726  -6.557  29.625  0.00  0.00    +0.031 C 
ATOM     11  C   UNL     1      14.429  -7.198  29.590  0.00  0.00    +0.122 C 
ATOM     12  C   UNL     1      15.934  -5.411  30.244  0.00  0.00    +0.110 C 
BRANCH   6   1
ATOM      1  S   UNL     1      13.602  -5.622  31.663  0.00  0.00    +0.029 S 
ATOM      2  O   UNL     1      12.236  -6.050  31.429  0.00  0.00    -0.158 OA
ATOM      3  O   UNL     1      13.893  -4.306  32.200  0.00  0.00    -0.158 OA
ATOM     14  C   UNL     1      14.369  -6.821  32.726  0.00  0.00    +0.215 C 
ENDBRANCH   6   1
ENDBRANCH  13   9
BRANCH   7   8
ATOM      5  O   UNL     1      17.405  -7.206  24.638  0.00  0.00    -0.274 OA
ATOM      8  N   UNL     1      16.659  -5.346  25.805  0.00  0.00    -0.234 N 
ATOM     15  C   UNL     1      17.040  -6.032  24.670  0.00  0.00    +0.233 C 
ATOM     24  H   UNL     1      16.354  -4.378  25.814  0.00  0.00    +0.173 HD
BRANCH  15  16
ATOM     16  C   UNL     1      16.950  -5.189  23.416  0.00  0.00    +0.132 C 
BRANCH  16  17
ATOM     17  C   UNL     1      16.987  -3.718  23.734  0.00  0.00    -0.039 A 
ATOM     18  C   UNL     1      16.640  -2.784  22.757  0.00  0.00    +0.004 A 
ATOM     19  C   UNL     1      17.371  -3.289  25.005  0.00  0.00    +0.004 A 
ATOM     20  C   UNL     1      16.676  -1.421  23.053  0.00  0.00    +0.000 A 
ATOM     21  C   UNL     1      17.405  -1.926  25.299  0.00  0.00    +0.000 A 
ATOM     22  C   UNL     1      17.058  -0.993  24.324  0.00  0.00    +0.000 A 
ENDBRANCH  16  17
ENDBRANCH  15  16
ENDBRANCH   7   8
TORSDOF 5
ENDMDL
MODEL 5
REMARK VINA RESULT:      -2.2     17.493     18.734
REMARK  Name = 75536051
REMARK  6 active torsions:
REMARK  status: ('A' for Active; 'I' for Inactive)
REMARK    1  A    between atoms: S_1  and  N_6
REMARK    2  A    between atoms: S_1  and  C_14
REMARK    3  A    between atoms: N_7  and  N_8
REMARK    4  A    between atoms: C_9  and  C_13
REMARK    5  A    between atoms: C_15  and  C_16
REMARK    6  A    between atoms: C_16  and  C_17
REMARK                            x       y       z     vdW  Elec       q    Type
REMARK                         _______ _______ _______ _____ _____    ______ ____
ROOT
ATOM      4  O   UNL     1      15.227  -6.407  27.071  0.00  0.00    -0.274 OA
ATOM      7  N   UNL     1      17.405  -5.891  27.690  0.00  0.00    -0.234 N 
ATOM     13  C   UNL     1      16.271  -6.677  27.660  0.00  0.00    +0.233 C 
ATOM     23  H   UNL     1      18.266  -6.148  28.161  0.00  0.00    +0.173 HD
ENDROOT
BRANCH  13   9
ATOM      6  N   UNL     1      14.711  -7.776  30.126  0.00  0.00    -0.181 NA
ATOM      9  C   UNL     1      16.418  -7.930  28.471  0.00  0.00    +0.093 C 
ATOM     10  C   UNL     1      17.087  -7.664  29.807  0.00  0.00    +0.031 C 
ATOM     11  C   UNL     1      15.058  -8.490  28.866  0.00  0.00    +0.122 C 
ATOM     12  C   UNL     1      15.952  -7.200  30.714  0.00  0.00    +0.110 C 
BRANCH   6   1
ATOM      1  S   UNL     1      13.592  -8.510  31.172  0.00  0.00    +0.029 S 
ATOM      2  O   UNL     1      14.050  -8.364  32.541  0.00  0.00    -0.158 OA
ATOM      3  O   UNL     1      13.219  -9.807  30.641  0.00  0.00    -0.158 OA
ATOM     14  C   UNL     1      12.211  -7.416  30.946  0.00  0.00    +0.215 C 
ENDBRANCH   6   1
ENDBRANCH  13   9
BRANCH   7   8
ATOM      5  O   UNL     1      17.366  -3.439  28.966  0.00  0.00    -0.274 OA
ATOM      8  N   UNL     1      17.404  -4.696  27.016  0.00  0.00    -0.234 N 
ATOM     15  C   UNL     1      17.384  -3.520  27.739  0.00  0.00    +0.233 C 
ATOM     24  H   UNL     1      17.425  -4.745  26.002  0.00  0.00    +0.173 HD
BRANCH  15  16
ATOM     16  C   UNL     1      17.405  -2.289  26.858  0.00  0.00    +0.132 C 
BRANCH  16  17
ATOM     17  C   UNL     1      17.075  -2.625  25.428  0.00  0.00    -0.039 A 
ATOM     18  C   UNL     1      17.260  -3.925  24.956  0.00  0.00    +0.004 A 
ATOM     19  C   UNL     1      16.583  -1.637  24.575  0.00  0.00    +0.004 A 
ATOM     20  C   UNL     1      16.954  -4.236  23.631  0.00  0.00    +0.000 A 
ATOM     21  C   UNL     1      16.277  -1.949  23.251  0.00  0.00    +0.000 A 
ATOM     22  C   UNL     1      16.462  -3.248  22.779  0.00  0.00    +0.000 A 
ENDBRANCH  16  17
ENDBRANCH  15  16
ENDBRANCH   7   8
TORSDOF 5
ENDMDL
MODEL 6
REMARK VINA RESULT:      -2.0     17.790     19.099
REMARK  Name = 75536051
REMARK  6 active torsions:
REMARK  status: ('A' for Active; 'I' for Inactive)
REMARK    1  A    between atoms: S_1  and  N_6
REMARK    2  A    between atoms: S_1  and  C_14
REMARK    3  A    between atoms: N_7  and  N_8
REMARK    4  A    between atoms: C_9  and  C_13
REMARK    5  A    between atoms: C_15  and  C_16
REMARK    6  A    between atoms: C_16  and  C_17
REMARK                            x       y       z     vdW  Elec       q    Type
REMARK                         _______ _______ _______ _____ _____    ______ ____
ROOT
ATOM      4  O   UNL     1      16.901  -9.358  28.041  0.00  0.00    -0.274 OA
ATOM      7  N   UNL     1      16.533  -7.648  29.569  0.00  0.00    -0.234 N 
ATOM     13  C   UNL     1      16.439  -8.942  29.101  0.00  0.00    +0.233 C 
ATOM     23  H   UNL     1      16.167  -7.334  30.462  0.00  0.00    +0.173 HD
ENDROOT
BRANCH  13   9
ATOM      6  N   UNL     1      13.985  -8.413  30.952  0.00  0.00    -0.181 NA
ATOM      9  C   UNL     1      15.661  -9.832  30.025  0.00  0.00    +0.093 C 
ATOM     10  C   UNL     1      16.013  -9.583  31.480  0.00  0.00    +0.031 C 
ATOM     11  C   UNL     1      14.172  -9.515  29.966  0.00  0.00    +0.122 C 
ATOM     12  C   UNL     1      15.147  -8.394  31.883  0.00  0.00    +0.110 C 
BRANCH   6   1
ATOM      1  S   UNL     1      12.432  -8.184  31.600  0.00  0.00    +0.029 S 
ATOM      2  O   UNL     1      12.002  -9.406  32.255  0.00  0.00    -0.158 OA
ATOM      3  O   UNL     1      11.594  -7.526  30.616  0.00  0.00    -0.158 OA
ATOM     14  C   UNL     1      12.811  -6.998  32.868  0.00  0.00    +0.215 C 
ENDBRANCH   6   1
ENDBRANCH  13   9
BRANCH   7   8
ATOM      5  O   UNL     1      15.427  -6.469  27.327  0.00  0.00    -0.274 OA
ATOM      8  N   UNL     1      17.193  -6.713  28.811  0.00  0.00    -0.234 N 
ATOM     15  C   UNL     1      16.560  -6.179  27.707  0.00  0.00    +0.233 C 
ATOM     24  H   UNL     1      18.127  -6.458  29.114  0.00  0.00    +0.173 HD
BRANCH  15  16
ATOM     16  C   UNL     1      17.405  -5.150  26.986  0.00  0.00    +0.132 C 
BRANCH  16  17
ATOM     17  C   UNL     1      17.382  -5.360  25.495  0.00  0.00    -0.039 A 
ATOM     18  C   UNL     1      17.342  -4.262  24.636  0.00  0.00    +0.004 A 
ATOM     19  C   UNL     1      17.399  -6.654  24.973  0.00  0.00    +0.004 A 
ATOM     20  C   UNL     1      17.319  -4.458  23.255  0.00  0.00    +0.000 A 
ATOM     21  C   UNL     1      17.378  -6.849  23.593  0.00  0.00    +0.000 A 
ATOM     22  C   UNL     1      17.338  -5.751  22.734  0.00  0.00    +0.000 A 
ENDBRANCH  16  17
ENDBRANCH  15  16
ENDBRANCH   7   8
TORSDOF 5
ENDMDL
MODEL 7
REMARK VINA RESULT:      -2.0      3.207      8.134
REMARK  Name = 75536051
REMARK  6 active torsions:
REMARK  status: ('A' for Active; 'I' for Inactive)
REMARK    1  A    between atoms: S_1  and  N_6
REMARK    2  A    between atoms: S_1  and  C_14
REMARK    3  A    between atoms: N_7  and  N_8
REMARK    4  A    between atoms: C_9  and  C_13
REMARK    5  A    between atoms: C_15  and  C_16
REMARK    6  A    between atoms: C_16  and  C_17
REMARK                            x       y       z     vdW  Elec       q    Type
REMARK                         _______ _______ _______ _____ _____    ______ ____
ROOT
ATOM      4  O   UNL     1      -0.507  -0.775  23.983  0.00  0.00    -0.274 OA
ATOM      7  N   UNL     1       0.902   1.071  24.016  0.00  0.00    -0.234 N 
ATOM     13  C   UNL     1       0.525  -0.202  23.641  0.00  0.00    +0.233 C 
ATOM     23  H   UNL     1       1.747   1.534  23.699  0.00  0.00    +0.173 HD
ENDROOT
BRANCH  13   9
ATOM      6  N   UNL     1       3.623   0.087  23.435  0.00  0.00    -0.181 NA
ATOM      9  C   UNL     1       1.545  -0.870  22.768  0.00  0.00    +0.093 C 
ATOM     10  C   UNL     1       2.018   0.043  21.651  0.00  0.00    +0.031 C 
ATOM     11  C   UNL     1       2.823  -1.165  23.544  0.00  0.00    +0.122 C 
ATOM     12  C   UNL     1       3.111   0.893  22.292  0.00  0.00    +0.110 C 
BRANCH   6   1
ATOM      1  S   UNL     1       5.304  -0.025  23.648  0.00  0.00    +0.029 S 
ATOM      2  O   UNL     1       5.713   0.873  24.712  0.00  0.00    -0.158 OA
ATOM      3  O   UNL     1       5.955   0.004  22.352  0.00  0.00    -0.158 OA
ATOM     14  C   UNL     1       5.415  -1.685  24.272  0.00  0.00    +0.215 C 
ENDBRANCH   6   1
ENDBRANCH  13   9
BRANCH   7   8
ATOM      5  O   UNL     1      -1.199   2.608  23.086  0.00  0.00    -0.274 OA
ATOM      8  N   UNL     1       0.077   1.792  24.843  0.00  0.00    -0.234 N 
ATOM     15  C   UNL     1      -0.947   2.532  24.287  0.00  0.00    +0.233 C 
ATOM     24  H   UNL     1       0.267   1.735  25.838  0.00  0.00    +0.173 HD
BRANCH  15  16
ATOM     16  C   UNL     1      -1.780   3.254  25.325  0.00  0.00    +0.132 C 
BRANCH  16  17
ATOM     17  C   UNL     1      -3.217   2.805  25.293  0.00  0.00    -0.039 A 
ATOM     18  C   UNL     1      -3.532   1.503  24.902  0.00  0.00    +0.004 A 
ATOM     19  C   UNL     1      -4.232   3.691  25.652  0.00  0.00    +0.004 A 
ATOM     20  C   UNL     1      -4.863   1.087  24.872  0.00  0.00    +0.000 A 
ATOM     21  C   UNL     1      -5.563   3.274  25.622  0.00  0.00    +0.000 A 
ATOM     22  C   UNL     1      -5.878   1.973  25.233  0.00  0.00    +0.000 A 
ENDBRANCH  16  17
ENDBRANCH  15  16
ENDBRANCH   7   8
TORSDOF 5
ENDMDL
MODEL 8
REMARK VINA RESULT:      -1.5      3.494      8.036
REMARK  Name = 75536051
REMARK  6 active torsions:
REMARK  status: ('A' for Active; 'I' for Inactive)
REMARK    1  A    between atoms: S_1  and  N_6
REMARK    2  A    between atoms: S_1  and  C_14
REMARK    3  A    between atoms: N_7  and  N_8
REMARK    4  A    between atoms: C_9  and  C_13
REMARK    5  A    between atoms: C_15  and  C_16
REMARK    6  A    between atoms: C_16  and  C_17
REMARK                            x       y       z     vdW  Elec       q    Type
REMARK                         _______ _______ _______ _____ _____    ______ ____
ROOT
ATOM      4  O   UNL     1       0.300   0.899  23.222  0.00  0.00    -0.274 OA
ATOM      7  N   UNL     1       0.017  -1.168  24.242  0.00  0.00    -0.234 N 
ATOM     13  C   UNL     1       0.618  -0.278  23.376  0.00  0.00    +0.233 C 
ATOM     23  H   UNL     1       0.316  -2.129  24.372  0.00  0.00    +0.173 HD
ENDROOT
BRANCH  13   9
ATOM      6  N   UNL     1       3.716   0.082  23.429  0.00  0.00    -0.181 NA
ATOM      9  C   UNL     1       1.721  -0.907  22.578  0.00  0.00    +0.093 C 
ATOM     10  C   UNL     1       2.263   0.037  21.519  0.00  0.00    +0.031 C 
ATOM     11  C   UNL     1       2.938  -1.188  23.451  0.00  0.00    +0.122 C 
ATOM     12  C   UNL     1       3.279   0.898  22.261  0.00  0.00    +0.110 C 
BRANCH   6   1
ATOM      1  S   UNL     1       5.376   0.003  23.777  0.00  0.00    +0.029 S 
ATOM      2  O   UNL     1       5.679   0.906  24.872  0.00  0.00    -0.158 OA
ATOM      3  O   UNL     1       6.128   0.049  22.537  0.00  0.00    -0.158 OA
ATOM     14  C   UNL     1       5.470  -1.656  24.405  0.00  0.00    +0.215 C 
ENDBRANCH   6   1
ENDBRANCH  13   9
BRANCH   7   8
ATOM      5  O   UNL     1      -2.513  -2.273  24.104  0.00  0.00    -0.274 OA
ATOM      8  N   UNL     1      -1.031  -0.738  25.016  0.00  0.00    -0.234 N 
ATOM     15  C   UNL     1      -2.260  -1.351  24.878  0.00  0.00    +0.233 C 
ATOM     24  H   UNL     1      -0.838   0.018  25.665  0.00  0.00    +0.173 HD
BRANCH  15  16
ATOM     16  C   UNL     1      -3.308  -0.782  25.810  0.00  0.00    +0.132 C 
BRANCH  16  17
ATOM     17  C   UNL     1      -3.823   0.545  25.321  0.00  0.00    -0.039 A 
ATOM     18  C   UNL     1      -5.188   0.829  25.381  0.00  0.00    +0.004 A 
ATOM     19  C   UNL     1      -2.936   1.491  24.806  0.00  0.00    +0.004 A 
ATOM     20  C   UNL     1      -5.665   2.059  24.927  0.00  0.00    +0.000 A 
ATOM     21  C   UNL     1      -3.413   2.720  24.353  0.00  0.00    +0.000 A 
ATOM     22  C   UNL     1      -4.777   3.004  24.413  0.00  0.00    +0.000 A 
ENDBRANCH  16  17
ENDBRANCH  15  16
ENDBRANCH   7   8
TORSDOF 5
ENDMDL
