MODEL 1
REMARK VINA RESULT:       0.8      0.000      0.000
REMARK  Name = 45783401
REMARK  11 active torsions:
REMARK  status: ('A' for Active; 'I' for Inactive)
REMARK    1  A    between atoms: O_2  and  C_17
REMARK    2  A    between atoms: O_3  and  C_23
REMARK    3  A    between atoms: O_3  and  C_30
REMARK    4  A    between atoms: O_4  and  C_29
REMARK    5  A    between atoms: O_4  and  C_31
REMARK    6  A    between atoms: N_5  and  C_14
REMARK    7  A    between atoms: N_8  and  C_27
REMARK    8  A    between atoms: C_10  and  C_15
REMARK    9  A    between atoms: C_14  and  C_16
REMARK   10  A    between atoms: C_19  and  C_22
REMARK   11  A    between atoms: C_27  and  C_29
REMARK                            x       y       z     vdW  Elec       q    Type
REMARK                         _______ _______ _______ _____ _____    ______ ____
ROOT
ATOM      1  O   UNL     1      -0.442   3.254  25.821  0.00  0.00    -0.336 OA
ATOM      6  N   UNL     1      -0.380   2.835  23.622  0.00  0.00    -0.190 NA
ATOM      7  N   UNL     1       0.614   2.354  25.626  0.00  0.00    -0.056 NA
ATOM     15  C   UNL     1      -0.973   3.483  24.592  0.00  0.00    +0.245 A 
ATOM     19  C   UNL     1       0.587   2.156  24.305  0.00  0.00    +0.205 A 
ENDROOT
BRANCH  19  22
ATOM      8  N   UNL     1      -0.011  -0.578  23.816  0.00  0.00    -0.326 N 
ATOM      9  N   UNL     1       2.083  -0.895  22.762  0.00  0.00    -0.240 NA
ATOM     22  C   UNL     1       1.510   1.284  23.636  0.00  0.00    +0.062 A 
ATOM     24  C   UNL     1       1.234  -0.050  23.389  0.00  0.00    +0.130 A 
ATOM     25  C   UNL     1       2.736   1.786  23.211  0.00  0.00    +0.016 A 
ATOM     26  C   UNL     1       3.635   0.948  22.561  0.00  0.00    +0.020 A 
ATOM     28  C   UNL     1       3.265  -0.372  22.363  0.00  0.00    +0.113 A 
ATOM     33  H   UNL     1      -0.760   0.094  23.944  0.00  0.00    +0.148 HD
BRANCH   8  27
ATOM     27  C   UNL     1      -0.382  -1.938  23.607  0.00  0.00    +0.131 C 
BRANCH  27  29
ATOM     29  C   UNL     1      -0.825  -2.563  24.920  0.00  0.00    +0.178 C 
BRANCH  29   4
ATOM      4  O   UNL     1      -0.414  -1.737  26.000  0.00  0.00    -0.381 OA
ATOM     31  C   UNL     1      -1.380  -0.734  26.287  0.00  0.00    +0.194 C 
ENDBRANCH  29   4
ENDBRANCH  27  29
ENDBRANCH   8  27
ENDBRANCH  19  22
BRANCH  15  10
ATOM      5  N   UNL     1      -3.420   3.799  24.921  0.00  0.00    -0.287 NA
ATOM     10  C   UNL     1      -2.147   4.438  24.531  0.00  0.00    +0.146 C 
ATOM     11  C   UNL     1      -1.995   5.629  25.498  0.00  0.00    +0.030 C 
ATOM     12  C   UNL     1      -3.257   5.613  26.349  0.00  0.00    +0.017 C 
ATOM     13  C   UNL     1      -4.254   4.855  25.496  0.00  0.00    +0.085 C 
BRANCH   5  14
ATOM     14  C   UNL     1      -4.082   3.117  23.817  0.00  0.00    +0.124 C 
BRANCH  14  16
ATOM     16  C   UNL     1      -4.131   1.627  24.026  0.00  0.00    +0.008 A 
ATOM     17  C   UNL     1      -4.874   1.078  25.072  0.00  0.00    +0.125 A 
ATOM     18  C   UNL     1      -3.424   0.792  23.161  0.00  0.00    +0.012 A 
ATOM     20  C   UNL     1      -4.909  -0.304  25.252  0.00  0.00    +0.091 A 
ATOM     21  C   UNL     1      -3.460  -0.590  23.340  0.00  0.00    +0.046 A 
ATOM     23  C   UNL     1      -4.202  -1.139  24.387  0.00  0.00    +0.124 A 
BRANCH  17   2
ATOM      2  O   UNL     1      -5.570   1.880  25.927  0.00  0.00    -0.506 OA
ATOM     32  H   UNL     1      -6.505   1.890  25.661  0.00  0.00    +0.292 HD
ENDBRANCH  17   2
BRANCH  23   3
ATOM      3  O   UNL     1      -4.237  -2.488  24.562  0.00  0.00    -0.495 OA
ATOM     30  C   UNL     1      -3.929  -3.298  23.429  0.00  0.00    +0.277 C 
ENDBRANCH  23   3
ENDBRANCH  14  16
ENDBRANCH   5  14
ENDBRANCH  15  10
TORSDOF 9
ENDMDL
MODEL 2
REMARK VINA RESULT:       0.8      1.945      5.008
REMARK  Name = 45783401
REMARK  11 active torsions:
REMARK  status: ('A' for Active; 'I' for Inactive)
REMARK    1  A    between atoms: O_2  and  C_17
REMARK    2  A    between atoms: O_3  and  C_23
REMARK    3  A    between atoms: O_3  and  C_30
REMARK    4  A    between atoms: O_4  and  C_29
REMARK    5  A    between atoms: O_4  and  C_31
REMARK    6  A    between atoms: N_5  and  C_14
REMARK    7  A    between atoms: N_8  and  C_27
REMARK    8  A    between atoms: C_10  and  C_15
REMARK    9  A    between atoms: C_14  and  C_16
REMARK   10  A    between atoms: C_19  and  C_22
REMARK   11  A    between atoms: C_27  and  C_29
REMARK                            x       y       z     vdW  Elec       q    Type
REMARK                         _______ _______ _______ _____ _____    ______ ____
ROOT
ATOM      1  O   UNL     1      -1.153  -2.592  25.390  0.00  0.00    -0.336 OA
ATOM      6  N   UNL     1      -1.464  -0.875  23.986  0.00  0.00    -0.190 NA
ATOM      7  N   UNL     1       0.117  -2.055  25.145  0.00  0.00    -0.056 NA
ATOM     15  C   UNL     1      -2.025  -1.840  24.669  0.00  0.00    +0.245 A 
ATOM     19  C   UNL     1      -0.149  -1.047  24.310  0.00  0.00    +0.205 A 
ENDROOT
BRANCH  19  22
ATOM      8  N   UNL     1       0.312   1.565  25.328  0.00  0.00    -0.326 N 
ATOM      9  N   UNL     1       2.070   1.907  23.784  0.00  0.00    -0.240 NA
ATOM     22  C   UNL     1       0.875  -0.194  23.778  0.00  0.00    +0.062 A 
ATOM     24  C   UNL     1       1.113   1.082  24.264  0.00  0.00    +0.130 A 
ATOM     25  C   UNL     1       1.670  -0.653  22.733  0.00  0.00    +0.016 A 
ATOM     26  C   UNL     1       2.665   0.167  22.213  0.00  0.00    +0.020 A 
ATOM     28  C   UNL     1       2.823   1.427  22.768  0.00  0.00    +0.113 A 
ATOM     33  H   UNL     1      -0.131   0.861  25.910  0.00  0.00    +0.148 HD
BRANCH   8  27
ATOM     27  C   UNL     1       0.483   2.863  25.892  0.00  0.00    +0.131 C 
BRANCH  27  29
ATOM     29  C   UNL     1       0.485   2.774  27.409  0.00  0.00    +0.178 C 
BRANCH  29   4
ATOM      4  O   UNL     1       1.823   2.835  27.885  0.00  0.00    -0.381 OA
ATOM     31  C   UNL     1       1.898   2.527  29.271  0.00  0.00    +0.194 C 
ENDBRANCH  29   4
ENDBRANCH  27  29
ENDBRANCH   8  27
ENDBRANCH  19  22
BRANCH  15  10
ATOM      5  N   UNL     1      -4.390  -1.132  24.348  0.00  0.00    -0.287 NA
ATOM     10  C   UNL     1      -3.487  -2.224  24.766  0.00  0.00    +0.146 C 
ATOM     11  C   UNL     1      -3.853  -3.406  23.849  0.00  0.00    +0.030 C 
ATOM     12  C   UNL     1      -5.009  -2.904  22.995  0.00  0.00    +0.017 C 
ATOM     13  C   UNL     1      -5.593  -1.771  23.815  0.00  0.00    +0.085 C 
BRANCH   5  14
ATOM     14  C   UNL     1      -4.696  -0.197  25.423  0.00  0.00    +0.124 C 
BRANCH  14  16
ATOM     16  C   UNL     1      -4.210   1.193  25.112  0.00  0.00    +0.008 A 
ATOM     17  C   UNL     1      -4.907   2.312  25.570  0.00  0.00    +0.125 A 
ATOM     18  C   UNL     1      -3.047   1.358  24.358  0.00  0.00    +0.012 A 
ATOM     20  C   UNL     1      -4.443   3.594  25.273  0.00  0.00    +0.091 A 
ATOM     21  C   UNL     1      -2.583   2.639  24.062  0.00  0.00    +0.046 A 
ATOM     23  C   UNL     1      -3.281   3.757  24.518  0.00  0.00    +0.124 A 
BRANCH  17   2
ATOM      2  O   UNL     1      -6.044   2.169  26.307  0.00  0.00    -0.506 OA
ATOM     32  H   UNL     1      -5.876   2.479  27.213  0.00  0.00    +0.292 HD
ENDBRANCH  17   2
BRANCH  23   3
ATOM      3  O   UNL     1      -2.829   5.007  24.229  0.00  0.00    -0.495 OA
ATOM     30  C   UNL     1      -1.725   5.490  24.993  0.00  0.00    +0.277 C 
ENDBRANCH  23   3
ENDBRANCH  14  16
ENDBRANCH   5  14
ENDBRANCH  15  10
TORSDOF 9
ENDMDL
MODEL 3
REMARK VINA RESULT:       1.1      1.751      5.186
REMARK  Name = 45783401
REMARK  11 active torsions:
REMARK  status: ('A' for Active; 'I' for Inactive)
REMARK    1  A    between atoms: O_2  and  C_17
REMARK    2  A    between atoms: O_3  and  C_23
REMARK    3  A    between atoms: O_3  and  C_30
REMARK    4  A    between atoms: O_4  and  C_29
REMARK    5  A    between atoms: O_4  and  C_31
REMARK    6  A    between atoms: N_5  and  C_14
REMARK    7  A    between atoms: N_8  and  C_27
REMARK    8  A    between atoms: C_10  and  C_15
REMARK    9  A    between atoms: C_14  and  C_16
REMARK   10  A    between atoms: C_19  and  C_22
REMARK   11  A    between atoms: C_27  and  C_29
REMARK                            x       y       z     vdW  Elec       q    Type
REMARK                         _______ _______ _______ _____ _____    ______ ____
ROOT
ATOM      1  O   UNL     1      -0.575  -2.794  25.377  0.00  0.00    -0.336 OA
ATOM      6  N   UNL     1      -0.928  -1.114  23.938  0.00  0.00    -0.190 NA
ATOM      7  N   UNL     1       0.678  -2.216  25.137  0.00  0.00    -0.056 NA
ATOM     15  C   UNL     1      -1.464  -2.086  24.632  0.00  0.00    +0.245 A 
ATOM     19  C   UNL     1       0.387  -1.234  24.281  0.00  0.00    +0.205 A 
ENDROOT
BRANCH  19  22
ATOM      8  N   UNL     1       0.152   1.593  24.451  0.00  0.00    -0.326 N 
ATOM      9  N   UNL     1       2.214   1.878  23.328  0.00  0.00    -0.240 NA
ATOM     22  C   UNL     1       1.387  -0.354  23.746  0.00  0.00    +0.062 A 
ATOM     24  C   UNL     1       1.289   1.026  23.822  0.00  0.00    +0.130 A 
ATOM     25  C   UNL     1       2.508  -0.894  23.125  0.00  0.00    +0.016 A 
ATOM     26  C   UNL     1       3.483  -0.050  22.606  0.00  0.00    +0.020 A 
ATOM     28  C   UNL     1       3.290   1.317  22.731  0.00  0.00    +0.113 A 
ATOM     33  H   UNL     1      -0.333   0.999  25.116  0.00  0.00    +0.148 HD
BRANCH   8  27
ATOM     27  C   UNL     1      -0.036   3.000  24.576  0.00  0.00    +0.131 C 
BRANCH  27  29
ATOM     29  C   UNL     1      -0.731   3.317  25.890  0.00  0.00    +0.178 C 
BRANCH  29   4
ATOM      4  O   UNL     1      -1.660   4.375  25.691  0.00  0.00    -0.381 OA
ATOM     31  C   UNL     1      -1.139   5.369  24.819  0.00  0.00    +0.194 C 
ENDBRANCH  29   4
ENDBRANCH  27  29
ENDBRANCH   8  27
ENDBRANCH  19  22
BRANCH  15  10
ATOM      5  N   UNL     1      -3.854  -1.403  24.494  0.00  0.00    -0.287 NA
ATOM     10  C   UNL     1      -2.913  -2.519  24.718  0.00  0.00    +0.146 C 
ATOM     11  C   UNL     1      -3.285  -3.565  23.649  0.00  0.00    +0.030 C 
ATOM     12  C   UNL     1      -4.481  -2.975  22.915  0.00  0.00    +0.017 C 
ATOM     13  C   UNL     1      -5.060  -1.990  23.911  0.00  0.00    +0.085 C 
BRANCH   5  14
ATOM     14  C   UNL     1      -4.142  -0.645  25.704  0.00  0.00    +0.124 C 
BRANCH  14  16
ATOM     16  C   UNL     1      -4.424   0.803  25.404  0.00  0.00    +0.008 A 
ATOM     17  C   UNL     1      -3.712   1.478  24.411  0.00  0.00    +0.125 A 
ATOM     18  C   UNL     1      -5.410   1.473  26.130  0.00  0.00    +0.012 A 
ATOM     20  C   UNL     1      -3.985   2.820  24.145  0.00  0.00    +0.091 A 
ATOM     21  C   UNL     1      -5.683   2.814  25.863  0.00  0.00    +0.046 A 
ATOM     23  C   UNL     1      -4.971   3.488  24.872  0.00  0.00    +0.124 A 
BRANCH  17   2
ATOM      2  O   UNL     1      -2.745   0.839  23.692  0.00  0.00    -0.506 OA
ATOM     32  H   UNL     1      -3.075  -0.034  23.423  0.00  0.00    +0.292 HD
ENDBRANCH  17   2
BRANCH  23   3
ATOM      3  O   UNL     1      -5.238   4.796  24.612  0.00  0.00    -0.495 OA
ATOM     30  C   UNL     1      -6.253   5.420  25.396  0.00  0.00    +0.277 C 
ENDBRANCH  23   3
ENDBRANCH  14  16
ENDBRANCH   5  14
ENDBRANCH  15  10
TORSDOF 9
ENDMDL
MODEL 4
REMARK VINA RESULT:       1.5      2.073      5.398
REMARK  Name = 45783401
REMARK  11 active torsions:
REMARK  status: ('A' for Active; 'I' for Inactive)
REMARK    1  A    between atoms: O_2  and  C_17
REMARK    2  A    between atoms: O_3  and  C_23
REMARK    3  A    between atoms: O_3  and  C_30
REMARK    4  A    between atoms: O_4  and  C_29
REMARK    5  A    between atoms: O_4  and  C_31
REMARK    6  A    between atoms: N_5  and  C_14
REMARK    7  A    between atoms: N_8  and  C_27
REMARK    8  A    between atoms: C_10  and  C_15
REMARK    9  A    between atoms: C_14  and  C_16
REMARK   10  A    between atoms: C_19  and  C_22
REMARK   11  A    between atoms: C_27  and  C_29
REMARK                            x       y       z     vdW  Elec       q    Type
REMARK                         _______ _______ _______ _____ _____    ______ ____
ROOT
ATOM      1  O   UNL     1      -1.270  -0.581  26.659  0.00  0.00    -0.336 OA
ATOM      6  N   UNL     1      -1.986   0.483  24.823  0.00  0.00    -0.190 NA
ATOM      7  N   UNL     1      -0.643   0.671  26.666  0.00  0.00    -0.056 NA
ATOM     15  C   UNL     1      -2.041  -0.610  25.541  0.00  0.00    +0.245 A 
ATOM     19  C   UNL     1      -1.116   1.239  25.553  0.00  0.00    +0.205 A 
ENDROOT
BRANCH  19  22
ATOM      8  N   UNL     1       1.148   1.709  23.902  0.00  0.00    -0.326 N 
ATOM      9  N   UNL     1       0.742   4.039  23.930  0.00  0.00    -0.240 NA
ATOM     22  C   UNL     1      -0.738   2.561  25.140  0.00  0.00    +0.062 A 
ATOM     24  C   UNL     1       0.362   2.807  24.335  0.00  0.00    +0.130 A 
ATOM     25  C   UNL     1      -1.498   3.648  25.556  0.00  0.00    +0.016 A 
ATOM     26  C   UNL     1      -1.139   4.932  25.159  0.00  0.00    +0.020 A 
ATOM     28  C   UNL     1      -0.020   5.073  24.354  0.00  0.00    +0.113 A 
ATOM     33  H   UNL     1       0.685   0.806  23.890  0.00  0.00    +0.148 HD
BRANCH   8  27
ATOM     27  C   UNL     1       2.297   1.865  23.073  0.00  0.00    +0.131 C 
BRANCH  27  29
ATOM     29  C   UNL     1       2.884   0.503  22.738  0.00  0.00    +0.178 C 
BRANCH  29   4
ATOM      4  O   UNL     1       4.254   0.651  22.392  0.00  0.00    -0.381 OA
ATOM     31  C   UNL     1       5.106   0.313  23.478  0.00  0.00    +0.194 C 
ENDBRANCH  29   4
ENDBRANCH  27  29
ENDBRANCH   8  27
ENDBRANCH  19  22
BRANCH  15  10
ATOM      5  N   UNL     1      -3.782  -1.751  24.176  0.00  0.00    -0.287 NA
ATOM     10  C   UNL     1      -2.835  -1.878  25.301  0.00  0.00    +0.146 C 
ATOM     11  C   UNL     1      -1.942  -3.076  24.927  0.00  0.00    +0.030 C 
ATOM     12  C   UNL     1      -2.501  -3.592  23.609  0.00  0.00    +0.017 C 
ATOM     13  C   UNL     1      -3.931  -3.090  23.607  0.00  0.00    +0.085 C 
BRANCH   5  14
ATOM     14  C   UNL     1      -5.063  -1.175  24.566  0.00  0.00    +0.124 C 
BRANCH  14  16
ATOM     16  C   UNL     1      -4.990   0.323  24.689  0.00  0.00    +0.008 A 
ATOM     17  C   UNL     1      -4.314   1.085  23.735  0.00  0.00    +0.125 A 
ATOM     18  C   UNL     1      -5.607   0.951  25.772  0.00  0.00    +0.012 A 
ATOM     20  C   UNL     1      -4.256   2.473  23.864  0.00  0.00    +0.091 A 
ATOM     21  C   UNL     1      -5.549   2.338  25.900  0.00  0.00    +0.046 A 
ATOM     23  C   UNL     1      -4.873   3.100  24.947  0.00  0.00    +0.124 A 
BRANCH  17   2
ATOM      2  O   UNL     1      -3.706   0.489  22.671  0.00  0.00    -0.506 OA
ATOM     32  H   UNL     1      -4.134  -0.367  22.500  0.00  0.00    +0.292 HD
ENDBRANCH  17   2
BRANCH  23   3
ATOM      3  O   UNL     1      -4.817   4.453  25.072  0.00  0.00    -0.495 OA
ATOM     30  C   UNL     1      -6.004   5.115  25.504  0.00  0.00    +0.277 C 
ENDBRANCH  23   3
ENDBRANCH  14  16
ENDBRANCH   5  14
ENDBRANCH  15  10
TORSDOF 9
ENDMDL
MODEL 5
REMARK VINA RESULT:       1.7      1.536      2.869
REMARK  Name = 45783401
REMARK  11 active torsions:
REMARK  status: ('A' for Active; 'I' for Inactive)
REMARK    1  A    between atoms: O_2  and  C_17
REMARK    2  A    between atoms: O_3  and  C_23
REMARK    3  A    between atoms: O_3  and  C_30
REMARK    4  A    between atoms: O_4  and  C_29
REMARK    5  A    between atoms: O_4  and  C_31
REMARK    6  A    between atoms: N_5  and  C_14
REMARK    7  A    between atoms: N_8  and  C_27
REMARK    8  A    between atoms: C_10  and  C_15
REMARK    9  A    between atoms: C_14  and  C_16
REMARK   10  A    between atoms: C_19  and  C_22
REMARK   11  A    between atoms: C_27  and  C_29
REMARK                            x       y       z     vdW  Elec       q    Type
REMARK                         _______ _______ _______ _____ _____    ______ ____
ROOT
ATOM      1  O   UNL     1      -0.293   3.579  24.232  0.00  0.00    -0.336 OA
ATOM      6  N   UNL     1      -1.675   1.907  24.788  0.00  0.00    -0.190 NA
ATOM      7  N   UNL     1       0.489   2.418  24.249  0.00  0.00    -0.056 NA
ATOM     15  C   UNL     1      -1.552   3.190  24.561  0.00  0.00    +0.245 A 
ATOM     19  C   UNL     1      -0.396   1.475  24.583  0.00  0.00    +0.205 A 
ENDROOT
BRANCH  19  22
ATOM      8  N   UNL     1       1.776   0.332  23.153  0.00  0.00    -0.326 N 
ATOM      9  N   UNL     1       1.383  -1.777  24.149  0.00  0.00    -0.240 NA
ATOM     22  C   UNL     1      -0.037   0.093  24.725  0.00  0.00    +0.062 A 
ATOM     24  C   UNL     1       1.020  -0.479  24.036  0.00  0.00    +0.130 A 
ATOM     25  C   UNL     1      -0.768  -0.717  25.587  0.00  0.00    +0.016 A 
ATOM     26  C   UNL     1      -0.425  -2.056  25.731  0.00  0.00    +0.020 A 
ATOM     28  C   UNL     1       0.648  -2.534  24.996  0.00  0.00    +0.113 A 
ATOM     33  H   UNL     1       1.752   1.331  23.333  0.00  0.00    +0.148 HD
BRANCH   8  27
ATOM     27  C   UNL     1       2.879  -0.169  22.402  0.00  0.00    +0.131 C 
BRANCH  27  29
ATOM     29  C   UNL     1       4.015   0.841  22.410  0.00  0.00    +0.178 C 
BRANCH  29   4
ATOM      4  O   UNL     1       4.658   0.820  23.677  0.00  0.00    -0.381 OA
ATOM     31  C   UNL     1       5.427  -0.363  23.852  0.00  0.00    +0.194 C 
ENDBRANCH  29   4
ENDBRANCH  27  29
ENDBRANCH   8  27
ENDBRANCH  19  22
BRANCH  15  10
ATOM      5  N   UNL     1      -3.873   3.815  25.209  0.00  0.00    -0.287 NA
ATOM     10  C   UNL     1      -2.604   4.279  24.613  0.00  0.00    +0.146 C 
ATOM     11  C   UNL     1      -2.177   5.476  25.484  0.00  0.00    +0.030 C 
ATOM     12  C   UNL     1      -3.296   5.647  26.502  0.00  0.00    +0.017 C 
ATOM     13  C   UNL     1      -4.487   4.986  25.836  0.00  0.00    +0.085 C 
BRANCH   5  14
ATOM     14  C   UNL     1      -4.761   3.181  24.245  0.00  0.00    +0.124 C 
BRANCH  14  16
ATOM     16  C   UNL     1      -4.510   1.700  24.141  0.00  0.00    +0.008 A 
ATOM     17  C   UNL     1      -4.999   0.824  25.111  0.00  0.00    +0.125 A 
ATOM     18  C   UNL     1      -3.779   1.205  23.061  0.00  0.00    +0.012 A 
ATOM     20  C   UNL     1      -4.758  -0.545  25.000  0.00  0.00    +0.091 A 
ATOM     21  C   UNL     1      -3.539  -0.164  22.950  0.00  0.00    +0.046 A 
ATOM     23  C   UNL     1      -4.027  -1.040  23.920  0.00  0.00    +0.124 A 
BRANCH  17   2
ATOM      2  O   UNL     1      -5.715   1.291  26.173  0.00  0.00    -0.506 OA
ATOM     32  H   UNL     1      -5.100   1.626  26.847  0.00  0.00    +0.292 HD
ENDBRANCH  17   2
BRANCH  23   3
ATOM      3  O   UNL     1      -3.792  -2.375  23.812  0.00  0.00    -0.495 OA
ATOM     30  C   UNL     1      -3.557  -3.092  25.022  0.00  0.00    +0.277 C 
ENDBRANCH  23   3
ENDBRANCH  14  16
ENDBRANCH   5  14
ENDBRANCH  15  10
TORSDOF 9
ENDMDL
MODEL 6
REMARK VINA RESULT:       1.8      2.193      7.447
REMARK  Name = 45783401
REMARK  11 active torsions:
REMARK  status: ('A' for Active; 'I' for Inactive)
REMARK    1  A    between atoms: O_2  and  C_17
REMARK    2  A    between atoms: O_3  and  C_23
REMARK    3  A    between atoms: O_3  and  C_30
REMARK    4  A    between atoms: O_4  and  C_29
REMARK    5  A    between atoms: O_4  and  C_31
REMARK    6  A    between atoms: N_5  and  C_14
REMARK    7  A    between atoms: N_8  and  C_27
REMARK    8  A    between atoms: C_10  and  C_15
REMARK    9  A    between atoms: C_14  and  C_16
REMARK   10  A    between atoms: C_19  and  C_22
REMARK   11  A    between atoms: C_27  and  C_29
REMARK                            x       y       z     vdW  Elec       q    Type
REMARK                         _______ _______ _______ _____ _____    ______ ____
ROOT
ATOM      1  O   UNL     1      -3.932  -1.398  23.994  0.00  0.00    -0.336 OA
ATOM      6  N   UNL     1      -2.846   0.425  24.708  0.00  0.00    -0.190 NA
ATOM      7  N   UNL     1      -4.915  -0.431  24.239  0.00  0.00    -0.056 NA
ATOM     15  C   UNL     1      -2.745  -0.813  24.297  0.00  0.00    +0.245 A 
ATOM     19  C   UNL     1      -4.197   0.615  24.656  0.00  0.00    +0.205 A 
ENDROOT
BRANCH  19  22
ATOM      8  N   UNL     1      -2.786   3.075  24.481  0.00  0.00    -0.326 N 
ATOM      9  N   UNL     1      -4.662   4.262  25.295  0.00  0.00    -0.240 NA
ATOM     22  C   UNL     1      -4.797   1.863  25.031  0.00  0.00    +0.062 A 
ATOM     24  C   UNL     1      -4.124   3.072  24.950  0.00  0.00    +0.130 A 
ATOM     25  C   UNL     1      -6.108   1.878  25.494  0.00  0.00    +0.016 A 
ATOM     26  C   UNL     1      -6.698   3.083  25.858  0.00  0.00    +0.020 A 
ATOM     28  C   UNL     1      -5.939   4.237  25.742  0.00  0.00    +0.113 A 
ATOM     33  H   UNL     1      -2.514   2.288  23.900  0.00  0.00    +0.148 HD
BRANCH   8  27
ATOM     27  C   UNL     1      -2.014   4.267  24.365  0.00  0.00    +0.131 C 
BRANCH  27  29
ATOM     29  C   UNL     1      -0.811   4.200  25.290  0.00  0.00    +0.178 C 
BRANCH  29   4
ATOM      4  O   UNL     1      -0.265   2.888  25.262  0.00  0.00    -0.381 OA
ATOM     31  C   UNL     1       0.051   2.426  26.568  0.00  0.00    +0.194 C 
ENDBRANCH  29   4
ENDBRANCH  27  29
ENDBRANCH   8  27
ENDBRANCH  19  22
BRANCH  15  10
ATOM      5  N   UNL     1      -0.257  -0.909  24.341  0.00  0.00    -0.287 NA
ATOM     10  C   UNL     1      -1.506  -1.665  24.112  0.00  0.00    +0.146 C 
ATOM     11  C   UNL     1      -1.439  -2.839  25.107  0.00  0.00    +0.030 C 
ATOM     12  C   UNL     1      -0.094  -2.695  25.804  0.00  0.00    +0.017 C 
ATOM     13  C   UNL     1       0.727  -1.875  24.829  0.00  0.00    +0.085 C 
BRANCH   5  14
ATOM     14  C   UNL     1       0.209  -0.200  23.157  0.00  0.00    +0.124 C 
BRANCH  14  16
ATOM     16  C   UNL     1       1.706  -0.036  23.156  0.00  0.00    +0.008 A 
ATOM     17  C   UNL     1       2.284   1.232  23.237  0.00  0.00    +0.125 A 
ATOM     18  C   UNL     1       2.518  -1.168  23.074  0.00  0.00    +0.012 A 
ATOM     20  C   UNL     1       3.673   1.367  23.235  0.00  0.00    +0.091 A 
ATOM     21  C   UNL     1       3.906  -1.033  23.073  0.00  0.00    +0.046 A 
ATOM     23  C   UNL     1       4.483   0.234  23.153  0.00  0.00    +0.124 A 
BRANCH  17   2
ATOM      2  O   UNL     1       1.506   2.348  23.317  0.00  0.00    -0.506 OA
ATOM     32  H   UNL     1       0.789   2.190  23.954  0.00  0.00    +0.292 HD
ENDBRANCH  17   2
BRANCH  23   3
ATOM      3  O   UNL     1       5.838   0.366  23.152  0.00  0.00    -0.495 OA
ATOM     30  C   UNL     1       6.589  -0.648  23.817  0.00  0.00    +0.277 C 
ENDBRANCH  23   3
ENDBRANCH  14  16
ENDBRANCH   5  14
ENDBRANCH  15  10
TORSDOF 9
ENDMDL
MODEL 7
REMARK VINA RESULT:       1.9      2.233      6.447
REMARK  Name = 45783401
REMARK  11 active torsions:
REMARK  status: ('A' for Active; 'I' for Inactive)
REMARK    1  A    between atoms: O_2  and  C_17
REMARK    2  A    between atoms: O_3  and  C_23
REMARK    3  A    between atoms: O_3  and  C_30
REMARK    4  A    between atoms: O_4  and  C_29
REMARK    5  A    between atoms: O_4  and  C_31
REMARK    6  A    between atoms: N_5  and  C_14
REMARK    7  A    between atoms: N_8  and  C_27
REMARK    8  A    between atoms: C_10  and  C_15
REMARK    9  A    between atoms: C_14  and  C_16
REMARK   10  A    between atoms: C_19  and  C_22
REMARK   11  A    between atoms: C_27  and  C_29
REMARK                            x       y       z     vdW  Elec       q    Type
REMARK                         _______ _______ _______ _____ _____    ______ ____
ROOT
ATOM      1  O   UNL     1      -4.677   0.450  24.619  0.00  0.00    -0.336 OA
ATOM      6  N   UNL     1      -2.568   1.122  24.283  0.00  0.00    -0.190 NA
ATOM      7  N   UNL     1      -4.677   1.838  24.803  0.00  0.00    -0.056 NA
ATOM     15  C   UNL     1      -3.397   0.111  24.317  0.00  0.00    +0.245 A 
ATOM     19  C   UNL     1      -3.399   2.161  24.587  0.00  0.00    +0.205 A 
ENDROOT
BRANCH  19  22
ATOM      8  N   UNL     1      -0.849   2.786  25.673  0.00  0.00    -0.326 N 
ATOM      9  N   UNL     1      -1.199   5.093  25.287  0.00  0.00    -0.240 NA
ATOM     22  C   UNL     1      -2.919   3.510  24.670  0.00  0.00    +0.062 A 
ATOM     24  C   UNL     1      -1.678   3.832  25.196  0.00  0.00    +0.130 A 
ATOM     25  C   UNL     1      -3.719   4.549  24.207  0.00  0.00    +0.016 A 
ATOM     26  C   UNL     1      -3.261   5.859  24.283  0.00  0.00    +0.020 A 
ATOM     28  C   UNL     1      -2.005   6.076  24.827  0.00  0.00    +0.113 A 
ATOM     33  H   UNL     1      -1.029   1.863  25.290  0.00  0.00    +0.148 HD
BRANCH   8  27
ATOM     27  C   UNL     1       0.442   3.020  26.230  0.00  0.00    +0.131 C 
BRANCH  27  29
ATOM     29  C   UNL     1       0.474   2.559  27.678  0.00  0.00    +0.178 C 
BRANCH  29   4
ATOM      4  O   UNL     1       1.792   2.699  28.191  0.00  0.00    -0.381 OA
ATOM     31  C   UNL     1       1.851   2.373  29.573  0.00  0.00    +0.194 C 
ENDBRANCH  29   4
ENDBRANCH  27  29
ENDBRANCH   8  27
ENDBRANCH  19  22
BRANCH  15  10
ATOM      5  N   UNL     1      -1.687  -1.676  24.031  0.00  0.00    -0.287 NA
ATOM     10  C   UNL     1      -3.129  -1.360  24.068  0.00  0.00    +0.146 C 
ATOM     11  C   UNL     1      -3.700  -2.264  25.177  0.00  0.00    +0.030 C 
ATOM     12  C   UNL     1      -2.519  -3.093  25.660  0.00  0.00    +0.017 C 
ATOM     13  C   UNL     1      -1.556  -3.058  24.490  0.00  0.00    +0.085 C 
BRANCH   5  14
ATOM     14  C   UNL     1      -1.090  -1.476  22.717  0.00  0.00    +0.124 C 
BRANCH  14  16
ATOM     16  C   UNL     1       0.230  -0.757  22.806  0.00  0.00    +0.008 A 
ATOM     17  C   UNL     1       0.604  -0.093  23.975  0.00  0.00    +0.125 A 
ATOM     18  C   UNL     1       1.084  -0.758  21.702  0.00  0.00    +0.012 A 
ATOM     20  C   UNL     1       1.830   0.568  24.040  0.00  0.00    +0.091 A 
ATOM     21  C   UNL     1       2.310  -0.097  21.768  0.00  0.00    +0.046 A 
ATOM     23  C   UNL     1       2.684   0.567  22.937  0.00  0.00    +0.124 A 
BRANCH  17   2
ATOM      2  O   UNL     1      -0.218  -0.082  25.062  0.00  0.00    -0.506 OA
ATOM     32  H   UNL     1      -1.059  -0.511  24.828  0.00  0.00    +0.292 HD
ENDBRANCH  17   2
BRANCH  23   3
ATOM      3  O   UNL     1       3.880   1.211  23.001  0.00  0.00    -0.495 OA
ATOM     30  C   UNL     1       5.019   0.430  23.358  0.00  0.00    +0.277 C 
ENDBRANCH  23   3
ENDBRANCH  14  16
ENDBRANCH   5  14
ENDBRANCH  15  10
TORSDOF 9
ENDMDL
MODEL 8
REMARK VINA RESULT:       2.0      2.093      3.623
REMARK  Name = 45783401
REMARK  11 active torsions:
REMARK  status: ('A' for Active; 'I' for Inactive)
REMARK    1  A    between atoms: O_2  and  C_17
REMARK    2  A    between atoms: O_3  and  C_23
REMARK    3  A    between atoms: O_3  and  C_30
REMARK    4  A    between atoms: O_4  and  C_29
REMARK    5  A    between atoms: O_4  and  C_31
REMARK    6  A    between atoms: N_5  and  C_14
REMARK    7  A    between atoms: N_8  and  C_27
REMARK    8  A    between atoms: C_10  and  C_15
REMARK    9  A    between atoms: C_14  and  C_16
REMARK   10  A    between atoms: C_19  and  C_22
REMARK   11  A    between atoms: C_27  and  C_29
REMARK                            x       y       z     vdW  Elec       q    Type
REMARK                         _______ _______ _______ _____ _____    ______ ____
ROOT
ATOM      1  O   UNL     1      -3.371   2.363  22.205  0.00  0.00    -0.336 OA
ATOM      6  N   UNL     1      -2.377   1.509  24.022  0.00  0.00    -0.190 NA
ATOM      7  N   UNL     1      -2.051   2.083  21.831  0.00  0.00    -0.056 NA
ATOM     15  C   UNL     1      -3.478   1.996  23.509  0.00  0.00    +0.245 A 
ATOM     19  C   UNL     1      -1.530   1.582  22.954  0.00  0.00    +0.205 A 
ENDROOT
BRANCH  19  22
ATOM      8  N   UNL     1       0.219   2.533  24.982  0.00  0.00    -0.326 N 
ATOM      9  N   UNL     1       1.990   1.210  24.140  0.00  0.00    -0.240 NA
ATOM     22  C   UNL     1      -0.165   1.148  23.046  0.00  0.00    +0.062 A 
ATOM     24  C   UNL     1       0.701   1.601  24.028  0.00  0.00    +0.130 A 
ATOM     25  C   UNL     1       0.323   0.234  22.118  0.00  0.00    +0.016 A 
ATOM     26  C   UNL     1       1.644  -0.193  22.201  0.00  0.00    +0.020 A 
ATOM     28  C   UNL     1       2.429   0.321  23.220  0.00  0.00    +0.113 A 
ATOM     33  H   UNL     1      -0.785   2.546  25.126  0.00  0.00    +0.148 HD
BRANCH   8  27
ATOM     27  C   UNL     1       1.035   3.055  26.027  0.00  0.00    +0.131 C 
BRANCH  27  29
ATOM     29  C   UNL     1       0.647   2.423  27.354  0.00  0.00    +0.178 C 
BRANCH  29   4
ATOM      4  O   UNL     1       1.684   2.637  28.302  0.00  0.00    -0.381 OA
ATOM     31  C   UNL     1       1.255   2.332  29.622  0.00  0.00    +0.194 C 
ENDBRANCH  29   4
ENDBRANCH  27  29
ENDBRANCH   8  27
ENDBRANCH  19  22
BRANCH  15  10
ATOM      5  N   UNL     1      -4.903   1.623  25.516  0.00  0.00    -0.287 NA
ATOM     10  C   UNL     1      -4.832   2.201  24.158  0.00  0.00    +0.146 C 
ATOM     11  C   UNL     1      -5.181   3.689  24.348  0.00  0.00    +0.030 C 
ATOM     12  C   UNL     1      -5.492   3.839  25.831  0.00  0.00    +0.017 C 
ATOM     13  C   UNL     1      -5.867   2.434  26.260  0.00  0.00    +0.085 C 
BRANCH   5  14
ATOM     14  C   UNL     1      -5.258   0.210  25.519  0.00  0.00    +0.124 C 
BRANCH  14  16
ATOM     16  C   UNL     1      -4.047  -0.672  25.368  0.00  0.00    +0.008 A 
ATOM     17  C   UNL     1      -4.020  -1.690  24.415  0.00  0.00    +0.125 A 
ATOM     18  C   UNL     1      -2.942  -0.463  26.195  0.00  0.00    +0.012 A 
ATOM     20  C   UNL     1      -2.890  -2.499  24.288  0.00  0.00    +0.091 A 
ATOM     21  C   UNL     1      -1.812  -1.270  26.067  0.00  0.00    +0.046 A 
ATOM     23  C   UNL     1      -1.786  -2.289  25.115  0.00  0.00    +0.124 A 
BRANCH  17   2
ATOM      2  O   UNL     1      -5.091  -1.909  23.600  0.00  0.00    -0.506 OA
ATOM     32  H   UNL     1      -4.795  -1.884  22.674  0.00  0.00    +0.292 HD
ENDBRANCH  17   2
BRANCH  23   3
ATOM      3  O   UNL     1      -0.684  -3.076  24.990  0.00  0.00    -0.495 OA
ATOM     30  C   UNL     1       0.564  -2.513  25.388  0.00  0.00    +0.277 C 
ENDBRANCH  23   3
ENDBRANCH  14  16
ENDBRANCH   5  14
ENDBRANCH  15  10
TORSDOF 9
ENDMDL
MODEL 9
REMARK VINA RESULT:       2.7      2.073      5.171
REMARK  Name = 45783401
REMARK  11 active torsions:
REMARK  status: ('A' for Active; 'I' for Inactive)
REMARK    1  A    between atoms: O_2  and  C_17
REMARK    2  A    between atoms: O_3  and  C_23
REMARK    3  A    between atoms: O_3  and  C_30
REMARK    4  A    between atoms: O_4  and  C_29
REMARK    5  A    between atoms: O_4  and  C_31
REMARK    6  A    between atoms: N_5  and  C_14
REMARK    7  A    between atoms: N_8  and  C_27
REMARK    8  A    between atoms: C_10  and  C_15
REMARK    9  A    between atoms: C_14  and  C_16
REMARK   10  A    between atoms: C_19  and  C_22
REMARK   11  A    between atoms: C_27  and  C_29
REMARK                            x       y       z     vdW  Elec       q    Type
REMARK                         _______ _______ _______ _____ _____    ______ ____
ROOT
ATOM      1  O   UNL     1      -5.764   1.048  24.662  0.00  0.00    -0.336 OA
ATOM      6  N   UNL     1      -3.574   0.671  24.944  0.00  0.00    -0.190 NA
ATOM      7  N   UNL     1      -5.548  -0.285  24.293  0.00  0.00    -0.056 NA
ATOM     15  C   UNL     1      -4.551   1.538  25.031  0.00  0.00    +0.245 A 
ATOM     19  C   UNL     1      -4.234  -0.432  24.487  0.00  0.00    +0.205 A 
ENDROOT
BRANCH  19  22
ATOM      8  N   UNL     1      -1.399  -0.605  24.478  0.00  0.00    -0.326 N 
ATOM      9  N   UNL     1      -1.495  -2.917  23.987  0.00  0.00    -0.240 NA
ATOM     22  C   UNL     1      -3.550  -1.667  24.231  0.00  0.00    +0.062 A 
ATOM     24  C   UNL     1      -2.168  -1.769  24.224  0.00  0.00    +0.130 A 
ATOM     25  C   UNL     1      -4.289  -2.817  23.980  0.00  0.00    +0.016 A 
ATOM     26  C   UNL     1      -3.634  -4.018  23.732  0.00  0.00    +0.020 A 
ATOM     28  C   UNL     1      -2.248  -4.015  23.746  0.00  0.00    +0.113 A 
ATOM     33  H   UNL     1      -1.863   0.133  24.995  0.00  0.00    +0.148 HD
BRANCH   8  27
ATOM     27  C   UNL     1       0.027  -0.613  24.490  0.00  0.00    +0.131 C 
BRANCH  27  29
ATOM     29  C   UNL     1       0.560  -0.382  23.086  0.00  0.00    +0.178 C 
BRANCH  29   4
ATOM      4  O   UNL     1       1.651   0.527  23.138  0.00  0.00    -0.381 OA
ATOM     31  C   UNL     1       2.739   0.082  22.340  0.00  0.00    +0.194 C 
ENDBRANCH  29   4
ENDBRANCH  27  29
ENDBRANCH   8  27
ENDBRANCH  19  22
BRANCH  15  10
ATOM      5  N   UNL     1      -4.685   3.932  24.362  0.00  0.00    -0.287 NA
ATOM     10  C   UNL     1      -4.515   2.984  25.482  0.00  0.00    +0.146 C 
ATOM     11  C   UNL     1      -5.652   3.329  26.462  0.00  0.00    +0.030 C 
ATOM     12  C   UNL     1      -6.367   4.519  25.839  0.00  0.00    +0.017 C 
ATOM     13  C   UNL     1      -5.322   5.123  24.923  0.00  0.00    +0.085 C 
BRANCH   5  14
ATOM     14  C   UNL     1      -3.435   4.246  23.683  0.00  0.00    +0.124 C 
BRANCH  14  16
ATOM     16  C   UNL     1      -2.238   3.782  24.468  0.00  0.00    +0.008 A 
ATOM     17  C   UNL     1      -1.410   2.772  23.977  0.00  0.00    +0.125 A 
ATOM     18  C   UNL     1      -1.958   4.373  25.701  0.00  0.00    +0.012 A 
ATOM     20  C   UNL     1      -0.305   2.353  24.717  0.00  0.00    +0.091 A 
ATOM     21  C   UNL     1      -0.853   3.955  26.441  0.00  0.00    +0.046 A 
ATOM     23  C   UNL     1      -0.026   2.944  25.950  0.00  0.00    +0.124 A 
BRANCH  17   2
ATOM      2  O   UNL     1      -1.668   2.184  22.775  0.00  0.00    -0.506 OA
ATOM     32  H   UNL     1      -2.310   2.727  22.287  0.00  0.00    +0.292 HD
ENDBRANCH  17   2
BRANCH  23   3
ATOM      3  O   UNL     1       1.052   2.536  26.672  0.00  0.00    -0.495 OA
ATOM     30  C   UNL     1       0.911   2.511  28.091  0.00  0.00    +0.277 C 
ENDBRANCH  23   3
ENDBRANCH  14  16
ENDBRANCH   5  14
ENDBRANCH  15  10
TORSDOF 9
ENDMDL
MODEL 10
REMARK VINA RESULT:       3.3      2.123      5.071
REMARK  Name = 45783401
REMARK  11 active torsions:
REMARK  status: ('A' for Active; 'I' for Inactive)
REMARK    1  A    between atoms: O_2  and  C_17
REMARK    2  A    between atoms: O_3  and  C_23
REMARK    3  A    between atoms: O_3  and  C_30
REMARK    4  A    between atoms: O_4  and  C_29
REMARK    5  A    between atoms: O_4  and  C_31
REMARK    6  A    between atoms: N_5  and  C_14
REMARK    7  A    between atoms: N_8  and  C_27
REMARK    8  A    between atoms: C_10  and  C_15
REMARK    9  A    between atoms: C_14  and  C_16
REMARK   10  A    between atoms: C_19  and  C_22
REMARK   11  A    between atoms: C_27  and  C_29
REMARK                            x       y       z     vdW  Elec       q    Type
REMARK                         _______ _______ _______ _____ _____    ______ ____
ROOT
ATOM      1  O   UNL     1      -3.852   2.228  23.912  0.00  0.00    -0.336 OA
ATOM      6  N   UNL     1      -4.403   0.637  25.389  0.00  0.00    -0.190 NA
ATOM      7  N   UNL     1      -3.446   1.013  23.345  0.00  0.00    -0.056 NA
ATOM     15  C   UNL     1      -4.404   1.916  25.114  0.00  0.00    +0.245 A 
ATOM     19  C   UNL     1      -3.806   0.124  24.274  0.00  0.00    +0.205 A 
ENDROOT
BRANCH  19  22
ATOM      8  N   UNL     1      -1.270  -1.057  24.771  0.00  0.00    -0.326 N 
ATOM      9  N   UNL     1      -2.109  -3.200  24.226  0.00  0.00    -0.240 NA
ATOM     22  C   UNL     1      -3.580  -1.285  24.121  0.00  0.00    +0.062 A 
ATOM     24  C   UNL     1      -2.351  -1.877  24.361  0.00  0.00    +0.130 A 
ATOM     25  C   UNL     1      -4.630  -2.104  23.719  0.00  0.00    +0.016 A 
ATOM     26  C   UNL     1      -4.421  -3.471  23.571  0.00  0.00    +0.020 A 
ATOM     28  C   UNL     1      -3.153  -3.965  23.833  0.00  0.00    +0.113 A 
ATOM     33  H   UNL     1      -1.519  -0.177  25.211  0.00  0.00    +0.148 HD
BRANCH   8  27
ATOM     27  C   UNL     1       0.031  -1.575  25.039  0.00  0.00    +0.131 C 
BRANCH  27  29
ATOM     29  C   UNL     1       0.998  -1.140  23.951  0.00  0.00    +0.178 C 
BRANCH  29   4
ATOM      4  O   UNL     1       0.268  -0.623  22.847  0.00  0.00    -0.381 OA
ATOM     31  C   UNL     1       1.054  -0.605  21.663  0.00  0.00    +0.194 C 
ENDBRANCH  29   4
ENDBRANCH  27  29
ENDBRANCH   8  27
ENDBRANCH  19  22
BRANCH  15  10
ATOM      5  N   UNL     1      -4.177   4.324  25.702  0.00  0.00    -0.287 NA
ATOM     10  C   UNL     1      -4.929   3.075  25.936  0.00  0.00    +0.146 C 
ATOM     11  C   UNL     1      -6.390   3.428  25.601  0.00  0.00    +0.030 C 
ATOM     12  C   UNL     1      -6.370   4.909  25.248  0.00  0.00    +0.017 C 
ATOM     13  C   UNL     1      -5.118   5.421  25.931  0.00  0.00    +0.085 C 
BRANCH   5  14
ATOM     14  C   UNL     1      -2.986   4.442  26.532  0.00  0.00    +0.124 C 
BRANCH  14  16
ATOM     16  C   UNL     1      -1.811   3.716  25.931  0.00  0.00    +0.008 A 
ATOM     17  C   UNL     1      -1.156   4.226  24.810  0.00  0.00    +0.125 A 
ATOM     18  C   UNL     1      -1.378   2.522  26.509  0.00  0.00    +0.012 A 
ATOM     20  C   UNL     1      -0.069   3.541  24.265  0.00  0.00    +0.091 A 
ATOM     21  C   UNL     1      -0.291   1.839  25.965  0.00  0.00    +0.046 A 
ATOM     23  C   UNL     1       0.364   2.347  24.843  0.00  0.00    +0.124 A 
BRANCH  17   2
ATOM      2  O   UNL     1      -1.566   5.390  24.233  0.00  0.00    -0.506 OA
ATOM     32  H   UNL     1      -0.845   6.040  24.282  0.00  0.00    +0.292 HD
ENDBRANCH  17   2
BRANCH  23   3
ATOM      3  O   UNL     1       1.424   1.680  24.313  0.00  0.00    -0.495 OA
ATOM     30  C   UNL     1       2.070   2.278  23.190  0.00  0.00    +0.277 C 
ENDBRANCH  23   3
ENDBRANCH  14  16
ENDBRANCH   5  14
ENDBRANCH  15  10
TORSDOF 9
ENDMDL
