MODEL 1
REMARK VINA RESULT:       1.7      0.000      0.000
REMARK  Name = 45784099
REMARK  11 active torsions:
REMARK  status: ('A' for Active; 'I' for Inactive)
REMARK    1  A    between atoms: N_3  and  C_14
REMARK    2  A    between atoms: N_7  and  C_32
REMARK    3  A    between atoms: C_9  and  C_13
REMARK    4  A    between atoms: C_10  and  C_14
REMARK    5  A    between atoms: C_12  and  C_19
REMARK    6  A    between atoms: C_13  and  C_23
REMARK    7  A    between atoms: C_13  and  C_24
REMARK    8  A    between atoms: C_16  and  C_25
REMARK    9  A    between atoms: C_19  and  C_26
REMARK   10  A    between atoms: C_20  and  C_27
REMARK   11  A    between atoms: C_28  and  C_29
REMARK                            x       y       z     vdW  Elec       q    Type
REMARK                         _______ _______ _______ _____ _____    ______ ____
ROOT
ATOM      9  C   UNL     1      -2.375   3.072  25.635  0.00  0.00    +0.000 C 
ATOM     10  C   UNL     1      -3.879   3.157  25.280  0.00  0.00    +0.029 C 
ATOM     11  C   UNL     1      -1.646   2.131  24.667  0.00  0.00    +0.012 C 
ATOM     12  C   UNL     1      -1.801   2.538  23.185  0.00  0.00    +0.024 C 
ATOM     15  C   UNL     1      -4.115   3.295  23.797  0.00  0.00    -0.023 C 
ATOM     16  C   UNL     1      -3.198   3.035  22.848  0.00  0.00    -0.073 C 
ATOM     25  C   UNL     1      -3.513   3.290  21.399  0.00  0.00    +0.039 C 
ENDROOT
BRANCH   9  13
ATOM     13  C   UNL     1      -1.726   4.463  25.653  0.00  0.00    -0.013 C 
ATOM     23  C   UNL     1      -0.506   4.492  24.738  0.00  0.00    +0.007 C 
ATOM     24  C   UNL     1      -2.738   5.527  25.241  0.00  0.00    +0.007 C 
ENDBRANCH   9  13
BRANCH  10  14
ATOM     14  C   UNL     1      -4.653   1.943  25.803  0.00  0.00    +0.092 C 
BRANCH  14   3
ATOM      3  N   UNL     1      -4.037   0.700  25.341  0.00  0.00    -0.302 NA
ATOM     17  C   UNL     1      -3.947  -0.269  26.442  0.00  0.00    +0.085 C 
ATOM     18  C   UNL     1      -4.788   0.145  24.206  0.00  0.00    +0.085 C 
ATOM     20  C   UNL     1      -3.962  -2.169  24.782  0.00  0.00    +0.077 C 
ATOM     21  C   UNL     1      -3.254  -1.556  25.989  0.00  0.00    +0.028 C 
ATOM     22  C   UNL     1      -4.126  -1.129  23.676  0.00  0.00    +0.028 C 
BRANCH  20  27
ATOM      2  O   UNL     1      -3.722  -4.379  23.906  0.00  0.00    -0.276 OA
ATOM      5  N   UNL     1      -1.820  -3.128  24.241  0.00  0.00    -0.329 N 
ATOM     27  C   UNL     1      -3.180  -3.336  24.261  0.00  0.00    +0.214 C 
ATOM     33  H   UNL     1      -1.188  -3.850  23.914  0.00  0.00    +0.145 HD
ATOM     34  H   UNL     1      -1.398  -2.253  24.537  0.00  0.00    +0.145 HD
ENDBRANCH  20  27
ENDBRANCH  14   3
ENDBRANCH  10  14
BRANCH  12  19
ATOM     19  C   UNL     1      -1.358   1.361  22.306  0.00  0.00    +0.105 C 
BRANCH  19  26
ATOM      1  O   UNL     1       0.959   0.681  22.658  0.00  0.00    -0.419 OA
ATOM      4  N   UNL     1      -0.520  -0.416  23.927  0.00  0.00    -0.112 NA
ATOM      6  N   UNL     1       0.740  -0.898  24.227  0.00  0.00    -0.106 NA
ATOM     26  C   UNL     1      -0.344   0.503  23.008  0.00  0.00    +0.218 A 
ATOM     28  C   UNL     1       1.572  -0.230  23.463  0.00  0.00    +0.266 A 
BRANCH  28  29
ATOM      7  N   UNL     1       3.899   0.478  23.056  0.00  0.00    -0.329 N 
ATOM      8  N   UNL     1       5.054  -1.301  23.713  0.00  0.00    -0.243 NA
ATOM     29  C   UNL     1       2.973  -0.436  23.472  0.00  0.00    +0.125 A 
ATOM     30  C   UNL     1       3.710  -1.525  23.874  0.00  0.00    +0.143 A 
ATOM     31  C   UNL     1       5.133  -0.086  23.218  0.00  0.00    +0.199 A 
ATOM     32  C   UNL     1       3.647   1.802  22.535  0.00  0.00    +0.150 C 
ENDBRANCH  28  29
ENDBRANCH  19  26
ENDBRANCH  12  19
TORSDOF 7
ENDMDL
MODEL 2
REMARK VINA RESULT:       2.1      2.010      5.610
REMARK  Name = 45784099
REMARK  11 active torsions:
REMARK  status: ('A' for Active; 'I' for Inactive)
REMARK    1  A    between atoms: N_3  and  C_14
REMARK    2  A    between atoms: N_7  and  C_32
REMARK    3  A    between atoms: C_9  and  C_13
REMARK    4  A    between atoms: C_10  and  C_14
REMARK    5  A    between atoms: C_12  and  C_19
REMARK    6  A    between atoms: C_13  and  C_23
REMARK    7  A    between atoms: C_13  and  C_24
REMARK    8  A    between atoms: C_16  and  C_25
REMARK    9  A    between atoms: C_19  and  C_26
REMARK   10  A    between atoms: C_20  and  C_27
REMARK   11  A    between atoms: C_28  and  C_29
REMARK                            x       y       z     vdW  Elec       q    Type
REMARK                         _______ _______ _______ _____ _____    ______ ____
ROOT
ATOM      9  C   UNL     1      -0.947   3.834  24.782  0.00  0.00    +0.000 C 
ATOM     10  C   UNL     1      -1.170   3.154  26.154  0.00  0.00    +0.029 C 
ATOM     11  C   UNL     1      -2.159   3.609  23.867  0.00  0.00    +0.012 C 
ATOM     12  C   UNL     1      -3.487   4.105  24.478  0.00  0.00    +0.024 C 
ATOM     15  C   UNL     1      -2.557   3.385  26.696  0.00  0.00    -0.023 C 
ATOM     16  C   UNL     1      -3.601   3.820  25.967  0.00  0.00    -0.073 C 
ATOM     25  C   UNL     1      -4.924   4.099  26.629  0.00  0.00    +0.039 C 
ENDROOT
BRANCH   9  13
ATOM     13  C   UNL     1      -0.644   5.330  24.943  0.00  0.00    -0.013 C 
ATOM     23  C   UNL     1       0.264   5.813  23.817  0.00  0.00    +0.007 C 
ATOM     24  C   UNL     1      -1.940   6.134  24.976  0.00  0.00    +0.007 C 
ENDBRANCH   9  13
BRANCH  10  14
ATOM     14  C   UNL     1      -0.898   1.648  26.089  0.00  0.00    +0.092 C 
BRANCH  14   3
ATOM      3  N   UNL     1      -0.313   1.284  24.799  0.00  0.00    -0.302 NA
ATOM     17  C   UNL     1       1.034   1.858  24.665  0.00  0.00    +0.085 C 
ATOM     18  C   UNL     1      -0.283  -0.176  24.641  0.00  0.00    +0.085 C 
ATOM     20  C   UNL     1       1.664   0.027  23.049  0.00  0.00    +0.077 C 
ATOM     21  C   UNL     1       1.639   1.534  23.298  0.00  0.00    +0.028 C 
ATOM     22  C   UNL     1       0.277  -0.573  23.274  0.00  0.00    +0.028 C 
BRANCH  20  27
ATOM      2  O   UNL     1       1.394  -0.838  20.838  0.00  0.00    -0.276 OA
ATOM      5  N   UNL     1       3.391   0.169  21.378  0.00  0.00    -0.329 N 
ATOM     27  C   UNL     1       2.113  -0.259  21.649  0.00  0.00    +0.214 C 
ATOM     33  H   UNL     1       3.806   0.025  20.463  0.00  0.00    +0.145 HD
ATOM     34  H   UNL     1       3.963   0.650  22.065  0.00  0.00    +0.145 HD
ENDBRANCH  20  27
ENDBRANCH  14   3
ENDBRANCH  10  14
BRANCH  12  19
ATOM     19  C   UNL     1      -4.648   3.515  23.667  0.00  0.00    +0.105 C 
BRANCH  19  26
ATOM      1  O   UNL     1      -4.114   1.146  23.898  0.00  0.00    -0.419 OA
ATOM      4  N   UNL     1      -6.083   1.731  24.784  0.00  0.00    -0.112 NA
ATOM      6  N   UNL     1      -5.911   0.374  24.984  0.00  0.00    -0.106 NA
ATOM     26  C   UNL     1      -5.010   2.139  24.147  0.00  0.00    +0.218 A 
ATOM     28  C   UNL     1      -4.749   0.076  24.451  0.00  0.00    +0.266 A 
BRANCH  28  29
ATOM      7  N   UNL     1      -3.445  -1.762  25.452  0.00  0.00    -0.329 N 
ATOM      8  N   UNL     1      -3.617  -3.354  23.913  0.00  0.00    -0.243 NA
ATOM     29  C   UNL     1      -4.207  -1.232  24.450  0.00  0.00    +0.125 A 
ATOM     30  C   UNL     1      -4.300  -2.233  23.512  0.00  0.00    +0.143 A 
ATOM     31  C   UNL     1      -3.113  -3.036  25.085  0.00  0.00    +0.199 A 
ATOM     32  C   UNL     1      -3.047  -1.117  26.682  0.00  0.00    +0.150 C 
ENDBRANCH  28  29
ENDBRANCH  19  26
ENDBRANCH  12  19
TORSDOF 7
ENDMDL
MODEL 3
REMARK VINA RESULT:       2.2      2.144      5.101
REMARK  Name = 45784099
REMARK  11 active torsions:
REMARK  status: ('A' for Active; 'I' for Inactive)
REMARK    1  A    between atoms: N_3  and  C_14
REMARK    2  A    between atoms: N_7  and  C_32
REMARK    3  A    between atoms: C_9  and  C_13
REMARK    4  A    between atoms: C_10  and  C_14
REMARK    5  A    between atoms: C_12  and  C_19
REMARK    6  A    between atoms: C_13  and  C_23
REMARK    7  A    between atoms: C_13  and  C_24
REMARK    8  A    between atoms: C_16  and  C_25
REMARK    9  A    between atoms: C_19  and  C_26
REMARK   10  A    between atoms: C_20  and  C_27
REMARK   11  A    between atoms: C_28  and  C_29
REMARK                            x       y       z     vdW  Elec       q    Type
REMARK                         _______ _______ _______ _____ _____    ______ ____
ROOT
ATOM      9  C   UNL     1      -4.130  -0.964  23.849  0.00  0.00    +0.000 C 
ATOM     10  C   UNL     1      -4.292  -0.531  25.326  0.00  0.00    +0.029 C 
ATOM     11  C   UNL     1      -3.027  -0.146  23.166  0.00  0.00    +0.012 C 
ATOM     12  C   UNL     1      -1.662  -0.240  23.881  0.00  0.00    +0.024 C 
ATOM     15  C   UNL     1      -2.968  -0.349  26.023  0.00  0.00    -0.023 C 
ATOM     16  C   UNL     1      -1.783  -0.229  25.397  0.00  0.00    -0.073 C 
ATOM     25  C   UNL     1      -0.510  -0.138  26.195  0.00  0.00    +0.039 C 
ENDROOT
BRANCH   9  13
ATOM     13  C   UNL     1      -3.855  -2.470  23.736  0.00  0.00    -0.013 C 
ATOM     23  C   UNL     1      -3.450  -3.041  25.092  0.00  0.00    +0.007 C 
ATOM     24  C   UNL     1      -5.080  -3.195  23.188  0.00  0.00    +0.007 C 
ENDBRANCH   9  13
BRANCH  10  14
ATOM     14  C   UNL     1      -5.109   0.759  25.450  0.00  0.00    +0.092 C 
BRANCH  14   3
ATOM      3  N   UNL     1      -4.258   1.931  25.242  0.00  0.00    -0.302 NA
ATOM     17  C   UNL     1      -4.334   2.379  23.844  0.00  0.00    +0.085 C 
ATOM     18  C   UNL     1      -4.634   3.009  26.166  0.00  0.00    +0.085 C 
ATOM     20  C   UNL     1      -3.717   4.720  24.553  0.00  0.00    +0.077 C 
ATOM     21  C   UNL     1      -3.408   3.570  23.596  0.00  0.00    +0.028 C 
ATOM     22  C   UNL     1      -3.719   4.224  25.998  0.00  0.00    +0.028 C 
BRANCH  20  27
ATOM      2  O   UNL     1      -2.875   6.763  23.643  0.00  0.00    -0.276 OA
ATOM      5  N   UNL     1      -1.570   5.626  25.160  0.00  0.00    -0.329 N 
ATOM     27  C   UNL     1      -2.701   5.810  24.399  0.00  0.00    +0.214 C 
ATOM     33  H   UNL     1      -0.810   6.297  25.134  0.00  0.00    +0.145 HD
ATOM     34  H   UNL     1      -1.454   4.831  25.780  0.00  0.00    +0.145 HD
ENDBRANCH  20  27
ENDBRANCH  14   3
ENDBRANCH  10  14
BRANCH  12  19
ATOM     19  C   UNL     1      -0.751   0.873  23.347  0.00  0.00    +0.105 C 
BRANCH  19  26
ATOM      1  O   UNL     1       1.667   0.657  23.583  0.00  0.00    -0.419 OA
ATOM      4  N   UNL     1       0.816  -0.444  21.832  0.00  0.00    -0.112 NA
ATOM      6  N   UNL     1       2.183  -0.651  21.843  0.00  0.00    -0.106 NA
ATOM     26  C   UNL     1       0.561   0.324  22.865  0.00  0.00    +0.218 A 
ATOM     28  C   UNL     1       2.639   0.009  22.882  0.00  0.00    +0.266 A 
BRANCH  28  29
ATOM      7  N   UNL     1       4.710  -1.005  23.755  0.00  0.00    -0.329 N 
ATOM      8  N   UNL     1       6.151   0.679  23.622  0.00  0.00    -0.243 NA
ATOM     29  C   UNL     1       4.008   0.048  23.240  0.00  0.00    +0.125 A 
ATOM     30  C   UNL     1       4.919   1.075  23.166  0.00  0.00    +0.143 A 
ATOM     31  C   UNL     1       5.991  -0.578  23.970  0.00  0.00    +0.199 A 
ATOM     32  C   UNL     1       4.215  -2.333  24.034  0.00  0.00    +0.150 C 
ENDBRANCH  28  29
ENDBRANCH  19  26
ENDBRANCH  12  19
TORSDOF 7
ENDMDL
MODEL 4
REMARK VINA RESULT:       2.3      1.888      6.039
REMARK  Name = 45784099
REMARK  11 active torsions:
REMARK  status: ('A' for Active; 'I' for Inactive)
REMARK    1  A    between atoms: N_3  and  C_14
REMARK    2  A    between atoms: N_7  and  C_32
REMARK    3  A    between atoms: C_9  and  C_13
REMARK    4  A    between atoms: C_10  and  C_14
REMARK    5  A    between atoms: C_12  and  C_19
REMARK    6  A    between atoms: C_13  and  C_23
REMARK    7  A    between atoms: C_13  and  C_24
REMARK    8  A    between atoms: C_16  and  C_25
REMARK    9  A    between atoms: C_19  and  C_26
REMARK   10  A    between atoms: C_20  and  C_27
REMARK   11  A    between atoms: C_28  and  C_29
REMARK                            x       y       z     vdW  Elec       q    Type
REMARK                         _______ _______ _______ _____ _____    ______ ____
ROOT
ATOM      9  C   UNL     1      -1.307   3.798  23.398  0.00  0.00    +0.000 C 
ATOM     10  C   UNL     1      -0.749   2.946  24.562  0.00  0.00    +0.029 C 
ATOM     11  C   UNL     1      -2.841   3.752  23.384  0.00  0.00    +0.012 C 
ATOM     12  C   UNL     1      -3.480   4.214  24.711  0.00  0.00    +0.024 C 
ATOM     15  C   UNL     1      -1.507   3.157  25.848  0.00  0.00    -0.023 C 
ATOM     16  C   UNL     1      -2.720   3.732  25.937  0.00  0.00    -0.073 C 
ATOM     25  C   UNL     1      -3.348   3.972  27.283  0.00  0.00    +0.039 C 
ENDROOT
BRANCH   9  13
ATOM     13  C   UNL     1      -0.796   5.244  23.470  0.00  0.00    -0.013 C 
ATOM     23  C   UNL     1      -0.559   5.653  24.920  0.00  0.00    +0.007 C 
ATOM     24  C   UNL     1       0.479   5.398  22.648  0.00  0.00    +0.007 C 
ENDBRANCH   9  13
BRANCH  10  14
ATOM     14  C   UNL     1      -0.747   1.453  24.219  0.00  0.00    +0.092 C 
BRANCH  14   3
ATOM      3  N   UNL     1       0.620   0.931  24.194  0.00  0.00    -0.302 NA
ATOM     17  C   UNL     1       0.661  -0.371  23.513  0.00  0.00    +0.085 C 
ATOM     18  C   UNL     1       1.525   1.894  23.550  0.00  0.00    +0.085 C 
ATOM     20  C   UNL     1       3.079   0.013  22.906  0.00  0.00    +0.077 C 
ATOM     21  C   UNL     1       2.074  -0.956  23.527  0.00  0.00    +0.028 C 
ATOM     22  C   UNL     1       2.969   1.387  23.563  0.00  0.00    +0.028 C 
BRANCH  20  27
ATOM      2  O   UNL     1       5.433  -0.003  22.498  0.00  0.00    -0.276 OA
ATOM      5  N   UNL     1       4.559  -1.607  23.898  0.00  0.00    -0.329 N 
ATOM     27  C   UNL     1       4.473  -0.511  23.071  0.00  0.00    +0.214 C 
ATOM     33  H   UNL     1       5.452  -2.053  24.080  0.00  0.00    +0.145 HD
ATOM     34  H   UNL     1       3.749  -2.005  24.362  0.00  0.00    +0.145 HD
ENDBRANCH  20  27
ENDBRANCH  14   3
ENDBRANCH  10  14
BRANCH  12  19
ATOM     19  C   UNL     1      -4.954   3.791  24.718  0.00  0.00    +0.105 C 
BRANCH  19  26
ATOM      1  O   UNL     1      -4.217   1.478  24.470  0.00  0.00    -0.419 OA
ATOM      4  N   UNL     1      -5.982   1.737  25.820  0.00  0.00    -0.112 NA
ATOM      6  N   UNL     1      -5.676   0.390  25.771  0.00  0.00    -0.106 NA
ATOM     26  C   UNL     1      -5.105   2.333  25.046  0.00  0.00    +0.218 A 
ATOM     28  C   UNL     1      -4.640   0.285  24.972  0.00  0.00    +0.266 A 
BRANCH  28  29
ATOM      7  N   UNL     1      -2.842  -1.388  25.192  0.00  0.00    -0.329 N 
ATOM      8  N   UNL     1      -3.510  -2.984  23.801  0.00  0.00    -0.243 NA
ATOM     29  C   UNL     1      -4.020  -0.950  24.659  0.00  0.00    +0.125 A 
ATOM     30  C   UNL     1      -4.415  -1.951  23.804  0.00  0.00    +0.143 A 
ATOM     31  C   UNL     1      -2.576  -2.613  24.647  0.00  0.00    +0.199 A 
ATOM     32  C   UNL     1      -2.009  -0.704  26.155  0.00  0.00    +0.150 C 
ENDBRANCH  28  29
ENDBRANCH  19  26
ENDBRANCH  12  19
TORSDOF 7
ENDMDL
MODEL 5
REMARK VINA RESULT:       2.3      1.599      2.785
REMARK  Name = 45784099
REMARK  11 active torsions:
REMARK  status: ('A' for Active; 'I' for Inactive)
REMARK    1  A    between atoms: N_3  and  C_14
REMARK    2  A    between atoms: N_7  and  C_32
REMARK    3  A    between atoms: C_9  and  C_13
REMARK    4  A    between atoms: C_10  and  C_14
REMARK    5  A    between atoms: C_12  and  C_19
REMARK    6  A    between atoms: C_13  and  C_23
REMARK    7  A    between atoms: C_13  and  C_24
REMARK    8  A    between atoms: C_16  and  C_25
REMARK    9  A    between atoms: C_19  and  C_26
REMARK   10  A    between atoms: C_20  and  C_27
REMARK   11  A    between atoms: C_28  and  C_29
REMARK                            x       y       z     vdW  Elec       q    Type
REMARK                         _______ _______ _______ _____ _____    ______ ____
ROOT
ATOM      9  C   UNL     1      -4.324   2.901  25.318  0.00  0.00    +0.000 C 
ATOM     10  C   UNL     1      -4.096   3.515  23.916  0.00  0.00    +0.029 C 
ATOM     11  C   UNL     1      -2.983   2.536  25.970  0.00  0.00    +0.012 C 
ATOM     12  C   UNL     1      -2.013   3.732  26.084  0.00  0.00    +0.024 C 
ATOM     15  C   UNL     1      -2.970   4.517  23.899  0.00  0.00    -0.023 C 
ATOM     16  C   UNL     1      -2.037   4.637  24.862  0.00  0.00    -0.073 C 
ATOM     25  C   UNL     1      -1.007   5.731  24.787  0.00  0.00    +0.039 C 
ENDROOT
BRANCH   9  13
ATOM     13  C   UNL     1      -5.139   3.844  26.215  0.00  0.00    -0.013 C 
ATOM     23  C   UNL     1      -5.795   4.938  25.379  0.00  0.00    +0.007 C 
ATOM     24  C   UNL     1      -6.187   3.058  26.997  0.00  0.00    +0.007 C 
ENDBRANCH   9  13
BRANCH  10  14
ATOM     14  C   UNL     1      -3.826   2.435  22.863  0.00  0.00    +0.092 C 
BRANCH  14   3
ATOM      3  N   UNL     1      -3.438   1.178  23.502  0.00  0.00    -0.302 NA
ATOM     17  C   UNL     1      -4.581   0.591  24.216  0.00  0.00    +0.085 C 
ATOM     18  C   UNL     1      -2.898   0.242  22.506  0.00  0.00    +0.085 C 
ATOM     20  C   UNL     1      -3.568  -1.707  23.964  0.00  0.00    +0.077 C 
ATOM     21  C   UNL     1      -4.178  -0.698  24.936  0.00  0.00    +0.028 C 
ATOM     22  C   UNL     1      -2.437  -1.060  23.166  0.00  0.00    +0.028 C 
BRANCH  20  27
ATOM      2  O   UNL     1      -3.779  -3.771  25.149  0.00  0.00    -0.276 OA
ATOM      5  N   UNL     1      -1.674  -2.885  24.869  0.00  0.00    -0.329 N 
ATOM     27  C   UNL     1      -3.040  -2.892  24.711  0.00  0.00    +0.214 C 
ATOM     33  H   UNL     1      -1.203  -3.633  25.365  0.00  0.00    +0.145 HD
ATOM     34  H   UNL     1      -1.086  -2.147  24.494  0.00  0.00    +0.145 HD
ENDBRANCH  20  27
ENDBRANCH  14   3
ENDBRANCH  10  14
BRANCH  12  19
ATOM     19  C   UNL     1      -0.611   3.195  26.400  0.00  0.00    +0.105 C 
BRANCH  19  26
ATOM      1  O   UNL     1       0.391   1.999  24.524  0.00  0.00    -0.419 OA
ATOM      4  N   UNL     1      -0.700   0.686  25.970  0.00  0.00    -0.112 NA
ATOM      6  N   UNL     1      -0.189  -0.116  24.967  0.00  0.00    -0.106 NA
ATOM     26  C   UNL     1      -0.337   1.911  25.670  0.00  0.00    +0.218 A 
ATOM     28  C   UNL     1       0.440   0.692  24.146  0.00  0.00    +0.266 A 
BRANCH  28  29
ATOM      7  N   UNL     1       2.431   0.448  22.711  0.00  0.00    -0.329 N 
ATOM      8  N   UNL     1       1.624  -0.671  20.971  0.00  0.00    -0.243 NA
ATOM     29  C   UNL     1       1.107   0.249  22.977  0.00  0.00    +0.125 A 
ATOM     30  C   UNL     1       0.629  -0.444  21.890  0.00  0.00    +0.143 A 
ATOM     31  C   UNL     1       2.696  -0.121  21.496  0.00  0.00    +0.199 A 
ATOM     32  C   UNL     1       3.397   1.130  23.541  0.00  0.00    +0.150 C 
ENDBRANCH  28  29
ENDBRANCH  19  26
ENDBRANCH  12  19
TORSDOF 7
ENDMDL
MODEL 6
REMARK VINA RESULT:       3.2      1.597      2.334
REMARK  Name = 45784099
REMARK  11 active torsions:
REMARK  status: ('A' for Active; 'I' for Inactive)
REMARK    1  A    between atoms: N_3  and  C_14
REMARK    2  A    between atoms: N_7  and  C_32
REMARK    3  A    between atoms: C_9  and  C_13
REMARK    4  A    between atoms: C_10  and  C_14
REMARK    5  A    between atoms: C_12  and  C_19
REMARK    6  A    between atoms: C_13  and  C_23
REMARK    7  A    between atoms: C_13  and  C_24
REMARK    8  A    between atoms: C_16  and  C_25
REMARK    9  A    between atoms: C_19  and  C_26
REMARK   10  A    between atoms: C_20  and  C_27
REMARK   11  A    between atoms: C_28  and  C_29
REMARK                            x       y       z     vdW  Elec       q    Type
REMARK                         _______ _______ _______ _____ _____    ______ ____
ROOT
ATOM      9  C   UNL     1      -4.804   3.622  25.863  0.00  0.00    +0.000 C 
ATOM     10  C   UNL     1      -5.016   2.625  24.700  0.00  0.00    +0.029 C 
ATOM     11  C   UNL     1      -3.403   3.455  26.467  0.00  0.00    +0.012 C 
ATOM     12  C   UNL     1      -2.268   3.622  25.433  0.00  0.00    +0.024 C 
ATOM     15  C   UNL     1      -3.822   2.543  23.784  0.00  0.00    -0.023 C 
ATOM     16  C   UNL     1      -2.591   2.993  24.088  0.00  0.00    -0.073 C 
ATOM     25  C   UNL     1      -1.490   2.940  23.063  0.00  0.00    +0.039 C 
ENDROOT
BRANCH   9  13
ATOM     13  C   UNL     1      -5.044   5.069  25.410  0.00  0.00    -0.013 C 
ATOM     23  C   UNL     1      -4.482   5.287  24.009  0.00  0.00    +0.007 C 
ATOM     24  C   UNL     1      -6.533   5.399  25.453  0.00  0.00    +0.007 C 
ENDBRANCH   9  13
BRANCH  10  14
ATOM     14  C   UNL     1      -5.354   1.221  25.213  0.00  0.00    +0.092 C 
BRANCH  14   3
ATOM      3  N   UNL     1      -4.243   0.301  24.970  0.00  0.00    -0.302 NA
ATOM     17  C   UNL     1      -3.910  -0.438  26.196  0.00  0.00    +0.085 C 
ATOM     18  C   UNL     1      -4.567  -0.617  23.870  0.00  0.00    +0.085 C 
ATOM     20  C   UNL     1      -2.966  -2.324  24.813  0.00  0.00    +0.077 C 
ATOM     21  C   UNL     1      -2.714  -1.364  25.974  0.00  0.00    +0.028 C 
ATOM     22  C   UNL     1      -3.394  -1.551  23.567  0.00  0.00    +0.028 C 
BRANCH  20  27
ATOM      2  O   UNL     1      -0.733  -3.062  25.232  0.00  0.00    -0.276 OA
ATOM      5  N   UNL     1      -1.813  -3.865  23.365  0.00  0.00    -0.329 N 
ATOM     27  C   UNL     1      -1.728  -3.112  24.513  0.00  0.00    +0.214 C 
ATOM     33  H   UNL     1      -1.034  -4.435  23.057  0.00  0.00    +0.145 HD
ATOM     34  H   UNL     1      -2.650  -3.890  22.791  0.00  0.00    +0.145 HD
ENDBRANCH  20  27
ENDBRANCH  14   3
ENDBRANCH  10  14
BRANCH  12  19
ATOM     19  C   UNL     1      -0.967   3.087  26.045  0.00  0.00    +0.105 C 
BRANCH  19  26
ATOM      1  O   UNL     1       0.779   2.204  24.586  0.00  0.00    -0.419 OA
ATOM      4  N   UNL     1      -0.868   0.755  25.025  0.00  0.00    -0.112 NA
ATOM      6  N   UNL     1       0.043   0.128  24.194  0.00  0.00    -0.106 NA
ATOM     26  C   UNL     1      -0.397   1.963  25.227  0.00  0.00    +0.218 A 
ATOM     28  C   UNL     1       0.987   1.011  23.965  0.00  0.00    +0.266 A 
BRANCH  28  29
ATOM      7  N   UNL     1       2.098  -0.016  22.017  0.00  0.00    -0.329 N 
ATOM      8  N   UNL     1       4.194   0.679  22.250  0.00  0.00    -0.243 NA
ATOM     29  C   UNL     1       2.114   0.749  23.148  0.00  0.00    +0.125 A 
ATOM     30  C   UNL     1       3.418   1.168  23.271  0.00  0.00    +0.143 A 
ATOM     31  C   UNL     1       3.368  -0.030  21.513  0.00  0.00    +0.199 A 
ATOM     32  C   UNL     1       0.963  -0.697  21.438  0.00  0.00    +0.150 C 
ENDBRANCH  28  29
ENDBRANCH  19  26
ENDBRANCH  12  19
TORSDOF 7
ENDMDL
MODEL 7
REMARK VINA RESULT:       3.5      2.347      6.483
REMARK  Name = 45784099
REMARK  11 active torsions:
REMARK  status: ('A' for Active; 'I' for Inactive)
REMARK    1  A    between atoms: N_3  and  C_14
REMARK    2  A    between atoms: N_7  and  C_32
REMARK    3  A    between atoms: C_9  and  C_13
REMARK    4  A    between atoms: C_10  and  C_14
REMARK    5  A    between atoms: C_12  and  C_19
REMARK    6  A    between atoms: C_13  and  C_23
REMARK    7  A    between atoms: C_13  and  C_24
REMARK    8  A    between atoms: C_16  and  C_25
REMARK    9  A    between atoms: C_19  and  C_26
REMARK   10  A    between atoms: C_20  and  C_27
REMARK   11  A    between atoms: C_28  and  C_29
REMARK                            x       y       z     vdW  Elec       q    Type
REMARK                         _______ _______ _______ _____ _____    ______ ____
ROOT
ATOM      9  C   UNL     1      -3.043  -1.518  25.496  0.00  0.00    +0.000 C 
ATOM     10  C   UNL     1      -2.088  -0.614  24.681  0.00  0.00    +0.029 C 
ATOM     11  C   UNL     1      -4.166  -0.684  26.128  0.00  0.00    +0.012 C 
ATOM     12  C   UNL     1      -4.981   0.125  25.096  0.00  0.00    +0.024 C 
ATOM     15  C   UNL     1      -2.826   0.391  23.835  0.00  0.00    -0.023 C 
ATOM     16  C   UNL     1      -4.120   0.726  23.997  0.00  0.00    -0.073 C 
ATOM     25  C   UNL     1      -4.781   1.680  23.039  0.00  0.00    +0.039 C 
ENDROOT
BRANCH   9  13
ATOM     13  C   UNL     1      -3.613  -2.652  24.632  0.00  0.00    -0.013 C 
ATOM     23  C   UNL     1      -4.637  -2.105  23.644  0.00  0.00    +0.007 C 
ATOM     24  C   UNL     1      -2.488  -3.378  23.900  0.00  0.00    +0.007 C 
ENDBRANCH   9  13
BRANCH  10  14
ATOM     14  C   UNL     1      -1.095   0.121  25.586  0.00  0.00    +0.092 C 
BRANCH  14   3
ATOM      3  N   UNL     1       0.220   0.203  24.951  0.00  0.00    -0.302 NA
ATOM     17  C   UNL     1       0.432  -0.947  24.060  0.00  0.00    +0.085 C 
ATOM     18  C   UNL     1       0.361   1.471  24.222  0.00  0.00    +0.085 C 
ATOM     20  C   UNL     1       2.057   0.408  22.686  0.00  0.00    +0.077 C 
ATOM     21  C   UNL     1       1.825  -0.906  23.430  0.00  0.00    +0.028 C 
ATOM     22  C   UNL     1       1.751   1.596  23.596  0.00  0.00    +0.028 C 
BRANCH  20  27
ATOM      2  O   UNL     1       3.776   0.381  21.026  0.00  0.00    -0.276 OA
ATOM      5  N   UNL     1       4.388   0.682  23.224  0.00  0.00    -0.329 N 
ATOM     27  C   UNL     1       3.476   0.492  22.212  0.00  0.00    +0.214 C 
ATOM     33  H   UNL     1       5.380   0.748  23.025  0.00  0.00    +0.145 HD
ATOM     34  H   UNL     1       4.112   0.774  24.197  0.00  0.00    +0.145 HD
ENDBRANCH  20  27
ENDBRANCH  14   3
ENDBRANCH  10  14
BRANCH  12  19
ATOM     19  C   UNL     1      -5.811   1.176  25.845  0.00  0.00    +0.105 C 
BRANCH  19  26
ATOM      1  O   UNL     1      -3.865   2.601  25.480  0.00  0.00    -0.419 OA
ATOM      4  N   UNL     1      -5.768   3.722  25.831  0.00  0.00    -0.112 NA
ATOM      6  N   UNL     1      -4.756   4.646  25.642  0.00  0.00    -0.106 NA
ATOM     26  C   UNL     1      -5.201   2.543  25.728  0.00  0.00    +0.218 A 
ATOM     28  C   UNL     1      -3.664   3.947  25.441  0.00  0.00    +0.266 A 
BRANCH  28  29
ATOM      7  N   UNL     1      -1.220   4.088  25.734  0.00  0.00    -0.329 N 
ATOM      8  N   UNL     1      -0.697   5.852  24.490  0.00  0.00    -0.243 NA
ATOM     29  C   UNL     1      -2.397   4.534  25.205  0.00  0.00    +0.125 A 
ATOM     30  C   UNL     1      -2.049   5.623  24.441  0.00  0.00    +0.143 A 
ATOM     31  C   UNL     1      -0.227   4.910  25.278  0.00  0.00    +0.199 A 
ATOM     32  C   UNL     1      -1.029   2.959  26.616  0.00  0.00    +0.150 C 
ENDBRANCH  28  29
ENDBRANCH  19  26
ENDBRANCH  12  19
TORSDOF 7
ENDMDL
MODEL 8
REMARK VINA RESULT:       3.7      2.402      6.655
REMARK  Name = 45784099
REMARK  11 active torsions:
REMARK  status: ('A' for Active; 'I' for Inactive)
REMARK    1  A    between atoms: N_3  and  C_14
REMARK    2  A    between atoms: N_7  and  C_32
REMARK    3  A    between atoms: C_9  and  C_13
REMARK    4  A    between atoms: C_10  and  C_14
REMARK    5  A    between atoms: C_12  and  C_19
REMARK    6  A    between atoms: C_13  and  C_23
REMARK    7  A    between atoms: C_13  and  C_24
REMARK    8  A    between atoms: C_16  and  C_25
REMARK    9  A    between atoms: C_19  and  C_26
REMARK   10  A    between atoms: C_20  and  C_27
REMARK   11  A    between atoms: C_28  and  C_29
REMARK                            x       y       z     vdW  Elec       q    Type
REMARK                         _______ _______ _______ _____ _____    ______ ____
ROOT
ATOM      9  C   UNL     1      -1.498  -0.304  25.343  0.00  0.00    +0.000 C 
ATOM     10  C   UNL     1      -1.432  -0.708  23.851  0.00  0.00    +0.029 C 
ATOM     11  C   UNL     1      -2.861   0.320  25.672  0.00  0.00    +0.012 C 
ATOM     12  C   UNL     1      -4.053  -0.601  25.335  0.00  0.00    +0.024 C 
ATOM     15  C   UNL     1      -2.690  -1.391  23.380  0.00  0.00    -0.023 C 
ATOM     16  C   UNL     1      -3.866  -1.365  24.034  0.00  0.00    -0.073 C 
ATOM     25  C   UNL     1      -5.037  -2.156  23.517  0.00  0.00    +0.039 C 
ENDROOT
BRANCH   9  13
ATOM     13  C   UNL     1      -1.200  -1.500  26.259  0.00  0.00    -0.013 C 
ATOM     23  C   UNL     1      -0.112  -2.378  25.650  0.00  0.00    +0.007 C 
ATOM     24  C   UNL     1      -0.793  -1.017  27.647  0.00  0.00    +0.007 C 
ENDBRANCH   9  13
BRANCH  10  14
ATOM     14  C   UNL     1      -1.147   0.500  22.951  0.00  0.00    +0.092 C 
BRANCH  14   3
ATOM      3  N   UNL     1       0.292   0.664  22.748  0.00  0.00    -0.302 NA
ATOM     17  C   UNL     1       0.904   1.322  23.912  0.00  0.00    +0.085 C 
ATOM     18  C   UNL     1       0.925  -0.635  22.482  0.00  0.00    +0.085 C 
ATOM     20  C   UNL     1       3.118   0.242  23.369  0.00  0.00    +0.077 C 
ATOM     21  C   UNL     1       2.400   1.551  23.692  0.00  0.00    +0.028 C 
ATOM     22  C   UNL     1       2.423  -0.475  22.214  0.00  0.00    +0.028 C 
BRANCH  20  27
ATOM      2  O   UNL     1       4.924   0.562  21.838  0.00  0.00    -0.276 OA
ATOM      5  N   UNL     1       5.375   0.672  24.092  0.00  0.00    -0.329 N 
ATOM     27  C   UNL     1       4.546   0.511  23.006  0.00  0.00    +0.214 C 
ATOM     33  H   UNL     1       6.365   0.852  23.970  0.00  0.00    +0.145 HD
ATOM     34  H   UNL     1       5.035   0.628  25.048  0.00  0.00    +0.145 HD
ENDBRANCH  20  27
ENDBRANCH  14   3
ENDBRANCH  10  14
BRANCH  12  19
ATOM     19  C   UNL     1      -5.339   0.236  25.355  0.00  0.00    +0.105 C 
BRANCH  19  26
ATOM      1  O   UNL     1      -3.772   2.086  25.078  0.00  0.00    -0.419 OA
ATOM      4  N   UNL     1      -5.817   2.709  25.735  0.00  0.00    -0.112 NA
ATOM      6  N   UNL     1      -5.040   3.847  25.620  0.00  0.00    -0.106 NA
ATOM     26  C   UNL     1      -5.036   1.706  25.409  0.00  0.00    +0.218 A 
ATOM     28  C   UNL     1      -3.855   3.436  25.234  0.00  0.00    +0.266 A 
BRANCH  28  29
ATOM      7  N   UNL     1      -1.489   4.100  25.439  0.00  0.00    -0.329 N 
ATOM      8  N   UNL     1      -1.445   6.031  24.343  0.00  0.00    -0.243 NA
ATOM     29  C   UNL     1      -2.766   4.311  25.002  0.00  0.00    +0.125 A 
ATOM     30  C   UNL     1      -2.714   5.508  24.328  0.00  0.00    +0.143 A 
ATOM     31  C   UNL     1      -0.732   5.159  25.021  0.00  0.00    +0.199 A 
ATOM     32  C   UNL     1      -1.001   2.976  26.205  0.00  0.00    +0.150 C 
ENDBRANCH  28  29
ENDBRANCH  19  26
ENDBRANCH  12  19
TORSDOF 7
ENDMDL
MODEL 9
REMARK VINA RESULT:       4.8      2.899      7.140
REMARK  Name = 45784099
REMARK  11 active torsions:
REMARK  status: ('A' for Active; 'I' for Inactive)
REMARK    1  A    between atoms: N_3  and  C_14
REMARK    2  A    between atoms: N_7  and  C_32
REMARK    3  A    between atoms: C_9  and  C_13
REMARK    4  A    between atoms: C_10  and  C_14
REMARK    5  A    between atoms: C_12  and  C_19
REMARK    6  A    between atoms: C_13  and  C_23
REMARK    7  A    between atoms: C_13  and  C_24
REMARK    8  A    between atoms: C_16  and  C_25
REMARK    9  A    between atoms: C_19  and  C_26
REMARK   10  A    between atoms: C_20  and  C_27
REMARK   11  A    between atoms: C_28  and  C_29
REMARK                            x       y       z     vdW  Elec       q    Type
REMARK                         _______ _______ _______ _____ _____    ______ ____
ROOT
ATOM      9  C   UNL     1      -2.406  -1.078  24.974  0.00  0.00    +0.000 C 
ATOM     10  C   UNL     1      -0.982  -1.094  25.579  0.00  0.00    +0.029 C 
ATOM     11  C   UNL     1      -2.499  -0.044  23.845  0.00  0.00    +0.012 C 
ATOM     12  C   UNL     1      -1.466  -0.270  22.720  0.00  0.00    +0.024 C 
ATOM     15  C   UNL     1       0.094  -1.052  24.525  0.00  0.00    -0.023 C 
ATOM     16  C   UNL     1      -0.104  -0.699  23.242  0.00  0.00    -0.073 C 
ATOM     25  C   UNL     1       1.027  -0.776  22.252  0.00  0.00    +0.039 C 
ENDROOT
BRANCH   9  13
ATOM     13  C   UNL     1      -2.820  -2.473  24.485  0.00  0.00    -0.013 C 
ATOM     23  C   UNL     1      -2.985  -3.424  25.666  0.00  0.00    +0.007 C 
ATOM     24  C   UNL     1      -4.109  -2.390  23.673  0.00  0.00    +0.007 C 
ENDBRANCH   9  13
BRANCH  10  14
ATOM     14  C   UNL     1      -0.772   0.064  26.561  0.00  0.00    +0.092 C 
BRANCH  14   3
ATOM      3  N   UNL     1      -0.989   1.349  25.896  0.00  0.00    -0.302 NA
ATOM     17  C   UNL     1      -1.479   2.347  26.857  0.00  0.00    +0.085 C 
ATOM     18  C   UNL     1       0.246   1.804  25.243  0.00  0.00    +0.085 C 
ATOM     20  C   UNL     1      -0.529   4.199  25.430  0.00  0.00    +0.077 C 
ATOM     21  C   UNL     1      -1.764   3.683  26.167  0.00  0.00    +0.028 C 
ATOM     22  C   UNL     1       0.022   3.122  24.498  0.00  0.00    +0.028 C 
BRANCH  20  27
ATOM      2  O   UNL     1      -0.196   5.791  23.680  0.00  0.00    -0.276 OA
ATOM      5  N   UNL     1      -1.990   6.082  25.091  0.00  0.00    -0.329 N 
ATOM     27  C   UNL     1      -0.873   5.421  24.636  0.00  0.00    +0.214 C 
ATOM     33  H   UNL     1      -2.317   6.928  24.637  0.00  0.00    +0.145 HD
ATOM     34  H   UNL     1      -2.535   5.752  25.883  0.00  0.00    +0.145 HD
ENDBRANCH  20  27
ENDBRANCH  14   3
ENDBRANCH  10  14
BRANCH  12  19
ATOM     19  C   UNL     1      -1.402   0.994  21.853  0.00  0.00    +0.105 C 
BRANCH  19  26
ATOM      1  O   UNL     1      -3.033   1.842  23.457  0.00  0.00    -0.419 OA
ATOM      4  N   UNL     1      -3.015   2.934  21.505  0.00  0.00    -0.112 NA
ATOM      6  N   UNL     1      -3.978   3.515  22.310  0.00  0.00    -0.106 NA
ATOM     26  C   UNL     1      -2.490   1.964  22.216  0.00  0.00    +0.218 A 
ATOM     28  C   UNL     1      -3.954   2.846  23.439  0.00  0.00    +0.266 A 
BRANCH  28  29
ATOM      7  N   UNL     1      -5.473   2.203  25.272  0.00  0.00    -0.329 N 
ATOM      8  N   UNL     1      -6.006   4.171  26.153  0.00  0.00    -0.243 NA
ATOM     29  C   UNL     1      -4.803   3.137  24.534  0.00  0.00    +0.125 A 
ATOM     30  C   UNL     1      -5.147   4.344  25.097  0.00  0.00    +0.143 A 
ATOM     31  C   UNL     1      -6.182   2.871  26.232  0.00  0.00    +0.199 A 
ATOM     32  C   UNL     1      -5.455   0.770  25.094  0.00  0.00    +0.150 C 
ENDBRANCH  28  29
ENDBRANCH  19  26
ENDBRANCH  12  19
TORSDOF 7
ENDMDL
