MODEL 1
REMARK VINA RESULT:      -5.3      0.000      0.000
REMARK  Name = 11886074
REMARK  7 active torsions:
REMARK  status: ('A' for Active; 'I' for Inactive)
REMARK    1  A    between atoms: O_3  and  C_13
REMARK    2  A    between atoms: O_3  and  C_17
REMARK    3  A    between atoms: N_5  and  C_12
REMARK    4  A    between atoms: N_9  and  C_24
REMARK    5  A    between atoms: C_16  and  C_18
REMARK    6  A    between atoms: C_23  and  C_25
REMARK    7  A    between atoms: C_32  and  C_35
REMARK                            x       y       z     vdW  Elec       q    Type
REMARK                         _______ _______ _______ _____ _____    ______ ____
ROOT
ATOM      1  O   UNL     1      15.043  -9.154  30.165  0.00  0.00    -0.368 OA
ATOM      2  O   UNL     1      17.285  -7.047  30.469  0.00  0.00    -0.368 OA
ATOM     10  C   UNL     1      17.207  -8.279  29.718  0.00  0.00    +0.177 C 
ATOM     11  C   UNL     1      16.419  -9.259  30.565  0.00  0.00    +0.192 C 
ATOM     12  C   UNL     1      16.351  -8.069  28.484  0.00  0.00    +0.168 C 
ATOM     13  C   UNL     1      16.634  -8.735  31.966  0.00  0.00    +0.235 C 
ATOM     14  C   UNL     1      14.940  -8.308  29.010  0.00  0.00    +0.190 C 
ATOM     15  C   UNL     1      16.661  -7.241  31.745  0.00  0.00    +0.207 C 
ENDROOT
BRANCH  12   5
ATOM      5  N   UNL     1      16.759  -8.923  27.366  0.00  0.00    -0.217 N 
ATOM      6  N   UNL     1      16.822 -10.250  27.513  0.00  0.00    -0.043 NA
ATOM      7  N   UNL     1      17.403  -9.667  25.441  0.00  0.00    -0.108 NA
ATOM      8  N   UNL     1      17.217 -10.702  26.330  0.00  0.00    -0.023 NA
ATOM     16  C   UNL     1      17.111  -8.573  26.106  0.00  0.00    +0.182 A 
BRANCH  16  18
ATOM     18  C   UNL     1      17.152  -7.222  25.611  0.00  0.00    +0.021 A 
ATOM     19  C   UNL     1      17.322  -6.981  24.246  0.00  0.00    +0.012 A 
ATOM     20  C   UNL     1      17.022  -6.149  26.494  0.00  0.00    +0.012 A 
ATOM     21  C   UNL     1      17.362  -5.671  23.767  0.00  0.00    +0.009 A 
ATOM     22  C   UNL     1      17.062  -4.839  26.015  0.00  0.00    +0.009 A 
ATOM     23  C   UNL     1      17.231  -4.601  24.651  0.00  0.00    -0.018 A 
BRANCH  23  25
ATOM     25  C   UNL     1      17.273  -3.243  24.154  0.00  0.00    -0.018 A 
ATOM     30  C   UNL     1      17.319  -3.004  22.780  0.00  0.00    +0.008 A 
ATOM     31  C   UNL     1      17.267  -2.172  25.048  0.00  0.00    +0.008 A 
ATOM     33  C   UNL     1      17.359  -1.695  22.301  0.00  0.00    +0.001 A 
ATOM     34  C   UNL     1      17.306  -0.863  24.568  0.00  0.00    +0.001 A 
ATOM     36  C   UNL     1      17.353  -0.624  23.195  0.00  0.00    +0.000 A 
ENDBRANCH  23  25
ENDBRANCH  16  18
ENDBRANCH  12   5
BRANCH  13   3
ATOM      3  O   UNL     1      15.626  -9.122  32.872  0.00  0.00    -0.442 OA
BRANCH   3  17
ATOM      4  O   UNL     1      14.324  -7.243  32.844  0.00  0.00    -0.226 OA
ATOM      9  N   UNL     1      13.400  -9.382  32.617  0.00  0.00    -0.251 N 
ATOM     17  C   UNL     1      14.418  -8.462  32.782  0.00  0.00    +0.405 C 
ATOM     37  H   UNL     1      13.679 -10.359  32.588  0.00  0.00    +0.158 HD
BRANCH   9  24
ATOM     24  C   UNL     1      12.015  -9.132  32.481  0.00  0.00    +0.036 A 
ATOM     26  C   UNL     1      11.162 -10.181  32.181  0.00  0.00    +0.023 A 
ATOM     27  C   UNL     1      11.539  -7.842  32.650  0.00  0.00    +0.023 A 
ATOM     28  C   UNL     1       9.795  -9.935  32.046  0.00  0.00    +0.005 A 
ATOM     29  C   UNL     1      10.173  -7.595  32.515  0.00  0.00    +0.005 A 
ATOM     32  C   UNL     1       9.301  -8.641  32.214  0.00  0.00    -0.050 A 
ATOM     35  C   UNL     1       7.841  -8.378  32.069  0.00  0.00    +0.044 C 
ENDBRANCH   9  24
ENDBRANCH   3  17
ENDBRANCH  13   3
TORSDOF 6
ENDMDL
