MODEL 1
REMARK VINA RESULT:      -4.7      0.000      0.000
REMARK  Name = 56775309
REMARK  2 active torsions:
REMARK  status: ('A' for Active; 'I' for Inactive)
REMARK    1  A    between atoms: N_6  and  C_14
REMARK    2  A    between atoms: C_13  and  C_15
REMARK                            x       y       z     vdW  Elec       q    Type
REMARK                         _______ _______ _______ _____ _____    ______ ____
ROOT
ATOM      2  O   UNL     1      -8.447 -10.780  11.703  0.00  0.00    -0.364 OA
ATOM      3  O   UNL     1      -7.036 -10.326   8.468  0.00  0.00    -0.273 OA
ATOM      4  O   UNL     1      -6.819 -10.438  16.207  0.00  0.00    -0.270 OA
ATOM      5  N   UNL     1      -6.684  -9.881  13.956  0.00  0.00    -0.293 N 
ATOM      6  N   UNL     1      -6.674  -9.081  10.401  0.00  0.00    -0.296 N 
ATOM      7  C   UNL     1      -6.947  -8.902  11.821  0.00  0.00    +0.123 C 
ATOM      8  C   UNL     1      -8.286  -9.482  12.270  0.00  0.00    +0.158 C 
ATOM      9  C   UNL     1      -5.946  -9.633  12.719  0.00  0.00    +0.133 C 
ATOM     10  C   UNL     1      -8.110  -9.632  13.776  0.00  0.00    +0.141 C 
ATOM     11  C   UNL     1      -8.519 -10.704  10.297  0.00  0.00    +0.256 C 
ATOM     12  C   UNL     1      -7.323 -10.043   9.633  0.00  0.00    +0.241 C 
ATOM     13  C   UNL     1      -6.160 -10.239  15.189  0.00  0.00    +0.247 C 
ATOM     14  C   UNL     1      -5.566  -8.318   9.841  0.00  0.00    +0.132 C 
ENDROOT
BRANCH  13  15
ATOM      1  F   UNL     1      -0.599 -10.781  15.575  0.00  0.00    -0.205 F 
ATOM     15  C   UNL     1      -4.699 -10.382  15.290  0.00  0.00    +0.037 A 
ATOM     16  C   UNL     1      -3.926 -10.479  14.133  0.00  0.00    +0.016 A 
ATOM     17  C   UNL     1      -4.086 -10.420  16.543  0.00  0.00    +0.016 A 
ATOM     18  C   UNL     1      -2.541 -10.614  14.229  0.00  0.00    +0.039 A 
ATOM     19  C   UNL     1      -2.702 -10.555  16.639  0.00  0.00    +0.039 A 
ATOM     20  C   UNL     1      -1.928 -10.652  15.482  0.00  0.00    +0.123 A 
ENDBRANCH  13  15
TORSDOF 1
ENDMDL
MODEL 2
REMARK VINA RESULT:      -4.4      2.090      2.707
REMARK  Name = 56775309
REMARK  2 active torsions:
REMARK  status: ('A' for Active; 'I' for Inactive)
REMARK    1  A    between atoms: N_6  and  C_14
REMARK    2  A    between atoms: C_13  and  C_15
REMARK                            x       y       z     vdW  Elec       q    Type
REMARK                         _______ _______ _______ _____ _____    ______ ____
ROOT
ATOM      2  O   UNL     1      -7.757 -10.781   9.858  0.00  0.00    -0.364 OA
ATOM      3  O   UNL     1      -4.520 -10.462   8.416  0.00  0.00    -0.273 OA
ATOM      4  O   UNL     1      -9.604 -10.178  14.248  0.00  0.00    -0.270 OA
ATOM      5  N   UNL     1      -7.970  -9.733  12.659  0.00  0.00    -0.293 N 
ATOM      6  N   UNL     1      -5.539  -9.113  10.015  0.00  0.00    -0.296 N 
ATOM      7  C   UNL     1      -6.699  -8.869  10.863  0.00  0.00    +0.123 C 
ATOM      8  C   UNL     1      -7.999  -9.454  10.316  0.00  0.00    +0.158 C 
ATOM      9  C   UNL     1      -6.584  -9.532  12.238  0.00  0.00    +0.133 C 
ATOM     10  C   UNL     1      -8.892  -9.523  11.548  0.00  0.00    +0.141 C 
ATOM     11  C   UNL     1      -6.856 -10.779   8.773  0.00  0.00    +0.256 C 
ATOM     12  C   UNL     1      -5.515 -10.127   9.061  0.00  0.00    +0.241 C 
ATOM     13  C   UNL     1      -8.426 -10.017  13.937  0.00  0.00    +0.247 C 
ATOM     14  C   UNL     1      -4.332  -8.357  10.315  0.00  0.00    +0.132 C 
ENDROOT
BRANCH  13  15
ATOM      1  F   UNL     1      -4.608 -10.421  18.014  0.00  0.00    -0.205 F 
ATOM     15  C   UNL     1      -7.423 -10.124  15.008  0.00  0.00    +0.037 A 
ATOM     16  C   UNL     1      -6.164 -10.659  14.734  0.00  0.00    +0.016 A 
ATOM     17  C   UNL     1      -7.730  -9.689  16.298  0.00  0.00    +0.016 A 
ATOM     18  C   UNL     1      -5.213 -10.760  15.749  0.00  0.00    +0.039 A 
ATOM     19  C   UNL     1      -6.779  -9.790  17.313  0.00  0.00    +0.039 A 
ATOM     20  C   UNL     1      -5.520 -10.325  17.039  0.00  0.00    +0.123 A 
ENDBRANCH  13  15
TORSDOF 1
ENDMDL
MODEL 3
REMARK VINA RESULT:      -4.3     25.394     26.666
REMARK  Name = 56775309
REMARK  2 active torsions:
REMARK  status: ('A' for Active; 'I' for Inactive)
REMARK    1  A    between atoms: N_6  and  C_14
REMARK    2  A    between atoms: C_13  and  C_15
REMARK                            x       y       z     vdW  Elec       q    Type
REMARK                         _______ _______ _______ _____ _____    ______ ____
ROOT
ATOM      2  O   UNL     1      16.508  -6.456  26.434  0.00  0.00    -0.364 OA
ATOM      3  O   UNL     1      16.159  -9.681  24.972  0.00  0.00    -0.273 OA
ATOM      4  O   UNL     1      15.282  -4.467  30.628  0.00  0.00    -0.270 OA
ATOM      5  N   UNL     1      15.787  -6.334  29.343  0.00  0.00    -0.293 N 
ATOM      6  N   UNL     1      16.665  -9.130  27.176  0.00  0.00    -0.296 N 
ATOM      7  C   UNL     1      16.862  -8.083  28.170  0.00  0.00    +0.123 C 
ATOM      8  C   UNL     1      17.303  -6.746  27.581  0.00  0.00    +0.158 C 
ATOM      9  C   UNL     1      15.574  -7.715  28.912  0.00  0.00    +0.133 C 
ATOM     10  C   UNL     1      16.948  -5.751  28.678  0.00  0.00    +0.141 C 
ATOM     11  C   UNL     1      16.730  -7.410  25.419  0.00  0.00    +0.256 C 
ATOM     12  C   UNL     1      16.463  -8.848  25.828  0.00  0.00    +0.241 C 
ATOM     13  C   UNL     1      15.068  -5.632  30.297  0.00  0.00    +0.247 C 
ATOM     14  C   UNL     1      16.523 -10.492  27.671  0.00  0.00    +0.132 C 
ENDROOT
BRANCH  13  15
ATOM      1  F   UNL     1      10.883  -8.317  32.873  0.00  0.00    -0.205 F 
ATOM     15  C   UNL     1      13.968  -6.336  30.973  0.00  0.00    +0.037 A 
ATOM     16  C   UNL     1      12.705  -6.385  30.385  0.00  0.00    +0.016 A 
ATOM     17  C   UNL     1      14.189  -6.957  32.204  0.00  0.00    +0.016 A 
ATOM     18  C   UNL     1      11.662  -7.054  31.027  0.00  0.00    +0.039 A 
ATOM     19  C   UNL     1      13.147  -7.626  32.845  0.00  0.00    +0.039 A 
ATOM     20  C   UNL     1      11.883  -7.675  32.257  0.00  0.00    +0.123 A 
ENDBRANCH  13  15
TORSDOF 1
ENDMDL
MODEL 4
REMARK VINA RESULT:      -3.9     15.337     17.407
REMARK  Name = 56775309
REMARK  2 active torsions:
REMARK  status: ('A' for Active; 'I' for Inactive)
REMARK    1  A    between atoms: N_6  and  C_14
REMARK    2  A    between atoms: C_13  and  C_15
REMARK                            x       y       z     vdW  Elec       q    Type
REMARK                         _______ _______ _______ _____ _____    ______ ____
ROOT
ATOM      2  O   UNL     1      -3.147   4.688  24.451  0.00  0.00    -0.364 OA
ATOM      3  O   UNL     1       0.383   4.951  24.092  0.00  0.00    -0.273 OA
ATOM      4  O   UNL     1      -6.218   1.118  25.383  0.00  0.00    -0.270 OA
ATOM      5  N   UNL     1      -4.088   2.036  25.489  0.00  0.00    -0.293 N 
ATOM      6  N   UNL     1      -0.833   3.671  25.608  0.00  0.00    -0.296 N 
ATOM      7  C   UNL     1      -2.140   3.236  26.084  0.00  0.00    +0.123 C 
ATOM      8  C   UNL     1      -3.264   4.227  25.794  0.00  0.00    +0.158 C 
ATOM      9  C   UNL     1      -2.631   1.960  25.395  0.00  0.00    +0.133 C 
ATOM     10  C   UNL     1      -4.518   3.368  25.902  0.00  0.00    +0.141 C 
ATOM     11  C   UNL     1      -1.949   5.411  24.275  0.00  0.00    +0.256 C 
ATOM     12  C   UNL     1      -0.685   4.644  24.623  0.00  0.00    +0.241 C 
ATOM     13  C   UNL     1      -4.997   1.008  25.293  0.00  0.00    +0.247 C 
ATOM     14  C   UNL     1       0.325   2.928  26.086  0.00  0.00    +0.132 C 
ENDROOT
BRANCH  13  15
ATOM      1  F   UNL     1      -2.947  -4.050  24.038  0.00  0.00    -0.205 F 
ATOM     15  C   UNL     1      -4.459  -0.321  24.964  0.00  0.00    +0.037 A 
ATOM     16  C   UNL     1      -4.688  -0.873  23.703  0.00  0.00    +0.016 A 
ATOM     17  C   UNL     1      -3.719  -1.029  25.911  0.00  0.00    +0.016 A 
ATOM     18  C   UNL     1      -4.178  -2.132  23.390  0.00  0.00    +0.039 A 
ATOM     19  C   UNL     1      -3.209  -2.289  25.598  0.00  0.00    +0.039 A 
ATOM     20  C   UNL     1      -3.438  -2.841  24.338  0.00  0.00    +0.123 A 
ENDBRANCH  13  15
TORSDOF 1
ENDMDL
MODEL 5
REMARK VINA RESULT:      -3.4      3.600      4.542
REMARK  Name = 56775309
REMARK  2 active torsions:
REMARK  status: ('A' for Active; 'I' for Inactive)
REMARK    1  A    between atoms: N_6  and  C_14
REMARK    2  A    between atoms: C_13  and  C_15
REMARK                            x       y       z     vdW  Elec       q    Type
REMARK                         _______ _______ _______ _____ _____    ______ ____
ROOT
ATOM      2  O   UNL     1      -6.752 -10.781   9.327  0.00  0.00    -0.364 OA
ATOM      3  O   UNL     1      -3.532  -9.269   9.382  0.00  0.00    -0.273 OA
ATOM      4  O   UNL     1     -10.564 -10.781  12.245  0.00  0.00    -0.270 OA
ATOM      5  N   UNL     1      -8.617  -9.791  11.456  0.00  0.00    -0.293 N 
ATOM      6  N   UNL     1      -5.573  -8.369  10.045  0.00  0.00    -0.296 N 
ATOM      7  C   UNL     1      -7.004  -8.568  10.236  0.00  0.00    +0.123 C 
ATOM      8  C   UNL     1      -7.605  -9.639   9.329  0.00  0.00    +0.158 C 
ATOM      9  C   UNL     1      -7.354  -9.077  11.637  0.00  0.00    +0.133 C 
ATOM     10  C   UNL     1      -8.901 -10.006  10.041  0.00  0.00    +0.141 C 
ATOM     11  C   UNL     1      -5.499 -10.466   8.763  0.00  0.00    +0.256 C 
ATOM     12  C   UNL     1      -4.761  -9.327   9.446  0.00  0.00    +0.241 C 
ATOM     13  C   UNL     1      -9.510 -10.181  12.443  0.00  0.00    +0.247 C 
ATOM     14  C   UNL     1      -4.984  -7.186  10.658  0.00  0.00    +0.132 C 
ENDROOT
BRANCH  13  15
ATOM      1  F   UNL     1      -8.237  -8.889  17.741  0.00  0.00    -0.205 F 
ATOM     15  C   UNL     1      -9.175  -9.841  13.834  0.00  0.00    +0.037 A 
ATOM     16  C   UNL     1      -9.921  -8.880  14.516  0.00  0.00    +0.016 A 
ATOM     17  C   UNL     1      -8.112 -10.480  14.473  0.00  0.00    +0.016 A 
ATOM     18  C   UNL     1      -9.605  -8.558  15.836  0.00  0.00    +0.039 A 
ATOM     19  C   UNL     1      -7.795 -10.158  15.792  0.00  0.00    +0.039 A 
ATOM     20  C   UNL     1      -8.541  -9.197  16.474  0.00  0.00    +0.123 A 
ENDBRANCH  13  15
TORSDOF 1
ENDMDL
MODEL 6
REMARK VINA RESULT:      -2.5     15.579     17.848
REMARK  Name = 56775309
REMARK  2 active torsions:
REMARK  status: ('A' for Active; 'I' for Inactive)
REMARK    1  A    between atoms: N_6  and  C_14
REMARK    2  A    between atoms: C_13  and  C_15
REMARK                            x       y       z     vdW  Elec       q    Type
REMARK                         _______ _______ _______ _____ _____    ______ ____
ROOT
ATOM      2  O   UNL     1       0.963   2.320  23.936  0.00  0.00    -0.364 OA
ATOM      3  O   UNL     1       1.256  -0.753  22.167  0.00  0.00    -0.273 OA
ATOM      4  O   UNL     1      -2.526   4.511  26.400  0.00  0.00    -0.270 OA
ATOM      5  N   UNL     1      -1.555   2.584  25.544  0.00  0.00    -0.293 N 
ATOM      6  N   UNL     1       0.154  -0.329  24.172  0.00  0.00    -0.296 N 
ATOM      7  C   UNL     1      -0.246   0.650  25.176  0.00  0.00    +0.123 C 
ATOM      8  C   UNL     1       0.675   1.865  25.255  0.00  0.00    +0.158 C 
ATOM      9  C   UNL     1      -1.610   1.281  24.884  0.00  0.00    +0.133 C 
ATOM     10  C   UNL     1      -0.191   2.909  25.948  0.00  0.00    +0.141 C 
ATOM     11  C   UNL     1       1.684   1.344  23.218  0.00  0.00    +0.256 C 
ATOM     12  C   UNL     1       0.996  -0.006  23.112  0.00  0.00    +0.241 C 
ATOM     13  C   UNL     1      -2.619   3.420  25.842  0.00  0.00    +0.247 C 
ATOM     14  C   UNL     1      -0.496  -1.631  24.225  0.00  0.00    +0.132 C 
ENDROOT
BRANCH  13  15
ATOM      1  F   UNL     1      -7.750   1.679  24.424  0.00  0.00    -0.205 F 
ATOM     15  C   UNL     1      -3.967   2.963  25.470  0.00  0.00    +0.037 A 
ATOM     16  C   UNL     1      -5.070   3.789  25.691  0.00  0.00    +0.016 A 
ATOM     17  C   UNL     1      -4.144   1.703  24.896  0.00  0.00    +0.016 A 
ATOM     18  C   UNL     1      -6.347   3.356  25.338  0.00  0.00    +0.039 A 
ATOM     19  C   UNL     1      -5.422   1.270  24.544  0.00  0.00    +0.039 A 
ATOM     20  C   UNL     1      -6.524   2.096  24.764  0.00  0.00    +0.123 A 
ENDBRANCH  13  15
TORSDOF 1
ENDMDL
MODEL 7
REMARK VINA RESULT:      -2.5     15.062     17.069
REMARK  Name = 56775309
REMARK  2 active torsions:
REMARK  status: ('A' for Active; 'I' for Inactive)
REMARK    1  A    between atoms: N_6  and  C_14
REMARK    2  A    between atoms: C_13  and  C_15
REMARK                            x       y       z     vdW  Elec       q    Type
REMARK                         _______ _______ _______ _____ _____    ______ ____
ROOT
ATOM      2  O   UNL     1      -3.474  -2.013  25.583  0.00  0.00    -0.364 OA
ATOM      3  O   UNL     1      -0.027  -2.894  25.582  0.00  0.00    -0.273 OA
ATOM      4  O   UNL     1      -5.961   2.011  24.764  0.00  0.00    -0.270 OA
ATOM      5  N   UNL     1      -4.051   0.719  24.490  0.00  0.00    -0.293 N 
ATOM      6  N   UNL     1      -1.167  -1.480  24.127  0.00  0.00    -0.296 N 
ATOM      7  C   UNL     1      -2.424  -0.836  23.767  0.00  0.00    +0.123 C 
ATOM      8  C   UNL     1      -3.663  -1.595  24.234  0.00  0.00    +0.158 C 
ATOM      9  C   UNL     1      -2.602   0.536  24.424  0.00  0.00    +0.133 C 
ATOM     10  C   UNL     1      -4.752  -0.529  24.207  0.00  0.00    +0.141 C 
ATOM     11  C   UNL     1      -2.409  -2.932  25.676  0.00  0.00    +0.256 C 
ATOM     12  C   UNL     1      -1.080  -2.422  25.149  0.00  0.00    +0.241 C 
ATOM     13  C   UNL     1      -4.738   1.902  24.717  0.00  0.00    +0.247 C 
ATOM     14  C   UNL     1       0.039  -0.979  23.484  0.00  0.00    +0.132 C 
ENDROOT
BRANCH  13  15
ATOM      1  F   UNL     1      -1.704   6.555  25.433  0.00  0.00    -0.205 F 
ATOM     15  C   UNL     1      -3.941   3.124  24.905  0.00  0.00    +0.037 A 
ATOM     16  C   UNL     1      -3.505   3.483  26.181  0.00  0.00    +0.016 A 
ATOM     17  C   UNL     1      -3.621   3.926  23.808  0.00  0.00    +0.016 A 
ATOM     18  C   UNL     1      -2.750   4.642  26.359  0.00  0.00    +0.039 A 
ATOM     19  C   UNL     1      -2.866   5.084  23.987  0.00  0.00    +0.039 A 
ATOM     20  C   UNL     1      -2.430   5.443  25.262  0.00  0.00    +0.123 A 
ENDBRANCH  13  15
TORSDOF 1
ENDMDL
MODEL 8
REMARK VINA RESULT:      -2.2     15.095     16.728
REMARK  Name = 56775309
REMARK  2 active torsions:
REMARK  status: ('A' for Active; 'I' for Inactive)
REMARK    1  A    between atoms: N_6  and  C_14
REMARK    2  A    between atoms: C_13  and  C_15
REMARK                            x       y       z     vdW  Elec       q    Type
REMARK                         _______ _______ _______ _____ _____    ______ ____
ROOT
ATOM      2  O   UNL     1      -4.229   1.475  24.177  0.00  0.00    -0.364 OA
ATOM      3  O   UNL     1      -4.271   5.023  23.910  0.00  0.00    -0.273 OA
ATOM      4  O   UNL     1      -0.817  -1.901  24.159  0.00  0.00    -0.270 OA
ATOM      5  N   UNL     1      -1.492   0.294  24.503  0.00  0.00    -0.293 N 
ATOM      6  N   UNL     1      -2.759   3.668  25.046  0.00  0.00    -0.296 N 
ATOM      7  C   UNL     1      -2.331   2.318  25.390  0.00  0.00    +0.123 C 
ATOM      8  C   UNL     1      -3.456   1.286  25.359  0.00  0.00    +0.158 C 
ATOM      9  C   UNL     1      -1.317   1.742  24.398  0.00  0.00    +0.133 C 
ATOM     10  C   UNL     1      -2.708  -0.036  25.240  0.00  0.00    +0.141 C 
ATOM     11  C   UNL     1      -4.868   2.732  24.195  0.00  0.00    +0.256 C 
ATOM     12  C   UNL     1      -3.933   3.920  24.342  0.00  0.00    +0.241 C 
ATOM     13  C   UNL     1      -0.629  -0.691  24.049  0.00  0.00    +0.247 C 
ATOM     14  C   UNL     1      -1.822   4.748  25.325  0.00  0.00    +0.132 C 
ENDROOT
BRANCH  13  15
ATOM      1  F   UNL     1       4.103   0.968  21.556  0.00  0.00    -0.205 F 
ATOM     15  C   UNL     1       0.614  -0.256  23.394  0.00  0.00    +0.037 A 
ATOM     16  C   UNL     1       0.976  -0.791  22.158  0.00  0.00    +0.016 A 
ATOM     17  C   UNL     1       1.432   0.693  24.010  0.00  0.00    +0.016 A 
ATOM     18  C   UNL     1       2.154  -0.378  21.537  0.00  0.00    +0.039 A 
ATOM     19  C   UNL     1       2.611   1.106  23.388  0.00  0.00    +0.039 A 
ATOM     20  C   UNL     1       2.972   0.571  22.152  0.00  0.00    +0.123 A 
ENDBRANCH  13  15
TORSDOF 1
ENDMDL
MODEL 9
REMARK VINA RESULT:      -2.1     15.189     17.477
REMARK  Name = 56775309
REMARK  2 active torsions:
REMARK  status: ('A' for Active; 'I' for Inactive)
REMARK    1  A    between atoms: N_6  and  C_14
REMARK    2  A    between atoms: C_13  and  C_15
REMARK                            x       y       z     vdW  Elec       q    Type
REMARK                         _______ _______ _______ _____ _____    ______ ____
ROOT
ATOM      2  O   UNL     1      -0.644  -1.067  23.409  0.00  0.00    -0.364 OA
ATOM      3  O   UNL     1      -2.945  -3.664  24.195  0.00  0.00    -0.273 OA
ATOM      4  O   UNL     1      -0.416   3.653  24.258  0.00  0.00    -0.270 OA
ATOM      5  N   UNL     1      -1.195   1.533  24.799  0.00  0.00    -0.293 N 
ATOM      6  N   UNL     1      -2.262  -1.877  25.519  0.00  0.00    -0.296 N 
ATOM      7  C   UNL     1      -1.465  -0.662  25.634  0.00  0.00    +0.123 C 
ATOM      8  C   UNL     1      -0.252  -0.629  24.707  0.00  0.00    +0.158 C 
ATOM      9  C   UNL     1      -2.234   0.597  25.226  0.00  0.00    +0.133 C 
ATOM     10  C   UNL     1       0.087   0.854  24.635  0.00  0.00    +0.141 C 
ATOM     11  C   UNL     1      -1.060  -2.414  23.441  0.00  0.00    +0.256 C 
ATOM     12  C   UNL     1      -2.200  -2.705  24.402  0.00  0.00    +0.241 C 
ATOM     13  C   UNL     1      -1.319   2.902  24.620  0.00  0.00    +0.247 C 
ATOM     14  C   UNL     1      -3.260  -2.111  26.553  0.00  0.00    +0.132 C 
ENDROOT
BRANCH  13  15
ATOM      1  F   UNL     1      -6.318   5.200  25.666  0.00  0.00    -0.205 F 
ATOM     15  C   UNL     1      -2.632   3.506  24.894  0.00  0.00    +0.037 A 
ATOM     16  C   UNL     1      -3.651   3.422  23.945  0.00  0.00    +0.016 A 
ATOM     17  C   UNL     1      -2.860   4.162  26.105  0.00  0.00    +0.016 A 
ATOM     18  C   UNL     1      -4.896   3.995  24.205  0.00  0.00    +0.039 A 
ATOM     19  C   UNL     1      -4.104   4.735  26.365  0.00  0.00    +0.039 A 
ATOM     20  C   UNL     1      -5.123   4.651  25.415  0.00  0.00    +0.123 A 
ENDBRANCH  13  15
TORSDOF 1
ENDMDL
MODEL 10
REMARK VINA RESULT:      -2.0     24.745     26.416
REMARK  Name = 56775309
REMARK  2 active torsions:
REMARK  status: ('A' for Active; 'I' for Inactive)
REMARK    1  A    between atoms: N_6  and  C_14
REMARK    2  A    between atoms: C_13  and  C_15
REMARK                            x       y       z     vdW  Elec       q    Type
REMARK                         _______ _______ _______ _____ _____    ______ ____
ROOT
ATOM      2  O   UNL     1      14.850  -6.946  29.685  0.00  0.00    -0.364 OA
ATOM      3  O   UNL     1      16.282 -10.057  28.719  0.00  0.00    -0.273 OA
ATOM      4  O   UNL     1      11.164  -5.608  32.455  0.00  0.00    -0.270 OA
ATOM      5  N   UNL     1      12.786  -7.157  31.850  0.00  0.00    -0.293 N 
ATOM      6  N   UNL     1      15.432  -9.428  30.792  0.00  0.00    -0.296 N 
ATOM      7  C   UNL     1      14.777  -8.405  31.596  0.00  0.00    +0.123 C 
ATOM      8  C   UNL     1      15.017  -6.981  31.099  0.00  0.00    +0.158 C 
ATOM      9  C   UNL     1      13.251  -8.516  31.576  0.00  0.00    +0.133 C 
ATOM     10  C   UNL     1      13.879  -6.196  31.739  0.00  0.00    +0.141 C 
ATOM     11  C   UNL     1      15.826  -7.740  29.048  0.00  0.00    +0.256 C 
ATOM     12  C   UNL     1      15.849  -9.194  29.485  0.00  0.00    +0.241 C 
ATOM     13  C   UNL     1      11.513  -6.766  32.235  0.00  0.00    +0.247 C 
ATOM     14  C   UNL     1      15.490 -10.771  31.352  0.00  0.00    +0.132 C 
ENDROOT
BRANCH  13  15
ATOM      1  F   UNL     1       7.661 -10.781  32.873  0.00  0.00    -0.205 F 
ATOM     15  C   UNL     1      10.501  -7.821  32.403  0.00  0.00    +0.037 A 
ATOM     16  C   UNL     1       9.147  -7.487  32.450  0.00  0.00    +0.016 A 
ATOM     17  C   UNL     1      10.894  -9.155  32.515  0.00  0.00    +0.016 A 
ATOM     18  C   UNL     1       8.187  -8.487  32.609  0.00  0.00    +0.039 A 
ATOM     19  C   UNL     1       9.935 -10.154  32.675  0.00  0.00    +0.039 A 
ATOM     20  C   UNL     1       8.581  -9.821  32.721  0.00  0.00    +0.123 A 
ENDBRANCH  13  15
TORSDOF 1
ENDMDL
