MODEL 1
REMARK VINA RESULT:      -0.9      0.000      0.000
REMARK  Name = 26743116
REMARK  7 active torsions:
REMARK  status: ('A' for Active; 'I' for Inactive)
REMARK    1  A    between atoms: S_1  and  C_23
REMARK    2  A    between atoms: S_1  and  C_24
REMARK    3  A    between atoms: C_7  and  C_11
REMARK    4  A    between atoms: C_8  and  C_13
REMARK    5  A    between atoms: C_11  and  C_14
REMARK    6  A    between atoms: C_13  and  C_17
REMARK    7  A    between atoms: C_22  and  C_23
REMARK                            x       y       z     vdW  Elec       q    Type
REMARK                         _______ _______ _______ _____ _____    ______ ____
ROOT
ATOM      4  N   UNL     1      -4.012  -3.132  25.110  0.00  0.00    -0.316 NA
ATOM      7  C   UNL     1      -3.017  -0.616  23.933  0.00  0.00    +0.004 C 
ATOM      8  C   UNL     1      -2.440  -1.213  25.239  0.00  0.00    +0.012 C 
ATOM      9  C   UNL     1      -3.646  -1.745  23.099  0.00  0.00    +0.019 C 
ATOM     10  C   UNL     1      -3.479  -2.078  25.973  0.00  0.00    +0.085 C 
ATOM     12  C   UNL     1      -4.635  -2.584  23.906  0.00  0.00    +0.081 C 
ATOM     30  H   UNL     1      -4.700  -3.677  25.628  0.00  0.00    +0.122 HD
ENDROOT
BRANCH   7  11
ATOM     11  C   UNL     1      -4.021   0.522  24.157  0.00  0.00    +0.100 C 
BRANCH  11  14
ATOM      2  O   UNL     1      -2.952   1.798  22.470  0.00  0.00    -0.276 OA
ATOM      5  N   UNL     1      -3.614   2.949  24.378  0.00  0.00    -0.301 N 
ATOM     14  C   UNL     1      -3.480   1.808  23.586  0.00  0.00    +0.216 C 
ATOM     15  C   UNL     1      -3.111   4.236  23.893  0.00  0.00    +0.108 C 
ATOM     16  C   UNL     1      -4.275   3.000  25.687  0.00  0.00    +0.108 C 
ATOM     18  C   UNL     1      -2.163   4.868  24.909  0.00  0.00    +0.019 C 
ATOM     19  C   UNL     1      -3.350   3.610  26.739  0.00  0.00    +0.019 C 
ATOM     20  C   UNL     1      -2.815   4.968  26.286  0.00  0.00    +0.003 C 
ENDBRANCH  11  14
ENDBRANCH   7  11
BRANCH   8  13
ATOM     13  C   UNL     1      -1.863  -0.155  26.178  0.00  0.00    +0.064 C 
BRANCH  13  17
ATOM      3  O   UNL     1       0.531   2.328  25.141  0.00  0.00    -0.359 OA
ATOM      6  N   UNL     1      -0.450   1.848  26.002  0.00  0.00    -0.083 NA
ATOM     17  C   UNL     1      -0.807   0.665  25.494  0.00  0.00    +0.084 A 
ATOM     21  C   UNL     1      -0.092   0.349  24.326  0.00  0.00    +0.071 A 
ATOM     22  C   UNL     1       0.734   1.426  24.148  0.00  0.00    +0.148 A 
BRANCH  22  23
ATOM     23  C   UNL     1       1.746   1.775  23.144  0.00  0.00    +0.151 C 
BRANCH  23   1
ATOM      1  S   UNL     1       2.291   0.346  22.142  0.00  0.00    -0.117 S 
BRANCH   1  24
ATOM     24  C   UNL     1       3.794  -0.113  22.991  0.00  0.00    +0.008 A 
ATOM     25  C   UNL     1       3.931  -1.396  23.520  0.00  0.00    +0.015 A 
ATOM     26  C   UNL     1       4.830   0.812  23.126  0.00  0.00    +0.015 A 
ATOM     27  C   UNL     1       5.105  -1.755  24.184  0.00  0.00    +0.001 A 
ATOM     28  C   UNL     1       6.002   0.454  23.790  0.00  0.00    +0.001 A 
ATOM     29  C   UNL     1       6.140  -0.829  24.319  0.00  0.00    +0.000 A 
ENDBRANCH   1  24
ENDBRANCH  23   1
ENDBRANCH  22  23
ENDBRANCH  13  17
ENDBRANCH   8  13
TORSDOF 7
ENDMDL
MODEL 2
REMARK VINA RESULT:      -0.7      1.488      4.304
REMARK  Name = 26743116
REMARK  7 active torsions:
REMARK  status: ('A' for Active; 'I' for Inactive)
REMARK    1  A    between atoms: S_1  and  C_23
REMARK    2  A    between atoms: S_1  and  C_24
REMARK    3  A    between atoms: C_7  and  C_11
REMARK    4  A    between atoms: C_8  and  C_13
REMARK    5  A    between atoms: C_11  and  C_14
REMARK    6  A    between atoms: C_13  and  C_17
REMARK    7  A    between atoms: C_22  and  C_23
REMARK                            x       y       z     vdW  Elec       q    Type
REMARK                         _______ _______ _______ _____ _____    ______ ____
ROOT
ATOM      4  N   UNL     1      -6.001   4.340  25.768  0.00  0.00    -0.316 NA
ATOM      7  C   UNL     1      -3.915   2.281  25.424  0.00  0.00    +0.004 C 
ATOM      8  C   UNL     1      -3.604   3.796  25.413  0.00  0.00    +0.012 C 
ATOM      9  C   UNL     1      -5.214   2.041  26.213  0.00  0.00    +0.019 C 
ATOM     10  C   UNL     1      -4.818   4.622  24.954  0.00  0.00    +0.085 C 
ATOM     12  C   UNL     1      -6.362   2.924  25.728  0.00  0.00    +0.081 C 
ATOM     30  H   UNL     1      -6.784   4.898  25.430  0.00  0.00    +0.122 HD
ENDROOT
BRANCH   7  11
ATOM     11  C   UNL     1      -4.000   1.651  24.028  0.00  0.00    +0.100 C 
BRANCH  11  14
ATOM      2  O   UNL     1      -5.862   0.221  24.350  0.00  0.00    -0.276 OA
ATOM      5  N   UNL     1      -3.826  -0.811  23.913  0.00  0.00    -0.301 N 
ATOM     14  C   UNL     1      -4.653   0.295  24.112  0.00  0.00    +0.216 C 
ATOM     15  C   UNL     1      -4.386  -2.162  23.982  0.00  0.00    +0.108 C 
ATOM     16  C   UNL     1      -2.396  -0.753  23.586  0.00  0.00    +0.108 C 
ATOM     18  C   UNL     1      -3.609  -3.024  24.974  0.00  0.00    +0.019 C 
ATOM     19  C   UNL     1      -1.580  -1.590  24.570  0.00  0.00    +0.019 C 
ATOM     20  C   UNL     1      -2.115  -3.018  24.659  0.00  0.00    +0.003 C 
ENDBRANCH  11  14
ENDBRANCH   7  11
BRANCH   8  13
ATOM     13  C   UNL     1      -2.371   4.148  24.581  0.00  0.00    +0.064 C 
BRANCH  13  17
ATOM      3  O   UNL     1       0.374   2.068  25.631  0.00  0.00    -0.359 OA
ATOM      6  N   UNL     1      -0.487   3.147  25.799  0.00  0.00    -0.083 NA
ATOM     17  C   UNL     1      -1.294   3.114  24.735  0.00  0.00    +0.084 A 
ATOM     21  C   UNL     1      -0.993   2.047  23.870  0.00  0.00    +0.071 A 
ATOM     22  C   UNL     1       0.062   1.422  24.480  0.00  0.00    +0.148 A 
BRANCH  22  23
ATOM     23  C   UNL     1       0.878   0.248  24.145  0.00  0.00    +0.151 C 
BRANCH  23   1
ATOM      1  S   UNL     1       1.804   0.436  22.580  0.00  0.00    -0.117 S 
BRANCH   1  24
ATOM     24  C   UNL     1       3.455   0.001  23.106  0.00  0.00    +0.008 A 
ATOM     25  C   UNL     1       4.482   0.942  23.026  0.00  0.00    +0.015 A 
ATOM     26  C   UNL     1       3.718  -1.278  23.595  0.00  0.00    +0.015 A 
ATOM     27  C   UNL     1       5.772   0.603  23.436  0.00  0.00    +0.001 A 
ATOM     28  C   UNL     1       5.007  -1.618  24.004  0.00  0.00    +0.001 A 
ATOM     29  C   UNL     1       6.034  -0.677  23.925  0.00  0.00    +0.000 A 
ENDBRANCH   1  24
ENDBRANCH  23   1
ENDBRANCH  22  23
ENDBRANCH  13  17
ENDBRANCH   8  13
TORSDOF 7
ENDMDL
MODEL 3
REMARK VINA RESULT:      -0.7     14.997     17.902
REMARK  Name = 26743116
REMARK  7 active torsions:
REMARK  status: ('A' for Active; 'I' for Inactive)
REMARK    1  A    between atoms: S_1  and  C_23
REMARK    2  A    between atoms: S_1  and  C_24
REMARK    3  A    between atoms: C_7  and  C_11
REMARK    4  A    between atoms: C_8  and  C_13
REMARK    5  A    between atoms: C_11  and  C_14
REMARK    6  A    between atoms: C_13  and  C_17
REMARK    7  A    between atoms: C_22  and  C_23
REMARK                            x       y       z     vdW  Elec       q    Type
REMARK                         _______ _______ _______ _____ _____    ______ ____
ROOT
ATOM      4  N   UNL     1      -2.392  -8.957   9.616  0.00  0.00    -0.316 NA
ATOM      7  C   UNL     1      -5.065  -9.265  10.828  0.00  0.00    +0.004 C 
ATOM      8  C   UNL     1      -3.760  -9.627  11.577  0.00  0.00    +0.012 C 
ATOM      9  C   UNL     1      -4.747  -8.224   9.742  0.00  0.00    +0.019 C 
ATOM     10  C   UNL     1      -2.633 -10.010  10.603  0.00  0.00    +0.085 C 
ATOM     12  C   UNL     1      -3.592  -8.656   8.839  0.00  0.00    +0.081 C 
ATOM     30  H   UNL     1      -1.646  -9.250   8.986  0.00  0.00    +0.122 HD
ENDROOT
BRANCH   7  11
ATOM     11  C   UNL     1      -5.795 -10.473  10.228  0.00  0.00    +0.100 C 
BRANCH  11  14
ATOM      2  O   UNL     1      -6.795  -9.575   8.277  0.00  0.00    -0.276 OA
ATOM      5  N   UNL     1      -8.230 -10.108  10.026  0.00  0.00    -0.301 N 
ATOM     14  C   UNL     1      -6.979 -10.011   9.417  0.00  0.00    +0.216 C 
ATOM     15  C   UNL     1      -9.428  -9.676   9.302  0.00  0.00    +0.108 C 
ATOM     16  C   UNL     1      -8.484 -10.662  11.361  0.00  0.00    +0.108 C 
ATOM     18  C   UNL     1     -10.225  -8.664  10.122  0.00  0.00    +0.019 C 
ATOM     19  C   UNL     1      -9.265  -9.669  12.221  0.00  0.00    +0.019 C 
ATOM     20  C   UNL     1     -10.538  -9.205  11.515  0.00  0.00    +0.003 C 
ENDBRANCH  11  14
ENDBRANCH   7  11
BRANCH   8  13
ATOM     13  C   UNL     1      -3.956 -10.720  12.627  0.00  0.00    +0.064 C 
BRANCH  13  17
ATOM      3  O   UNL     1      -5.052  -9.700  15.902  0.00  0.00    -0.359 OA
ATOM      6  N   UNL     1      -4.120 -10.258  15.035  0.00  0.00    -0.083 NA
ATOM     17  C   UNL     1      -4.691 -10.199  13.829  0.00  0.00    +0.084 A 
ATOM     21  C   UNL     1      -5.971  -9.620  13.872  0.00  0.00    +0.071 A 
ATOM     22  C   UNL     1      -6.149  -9.324  15.197  0.00  0.00    +0.148 A 
BRANCH  22  23
ATOM     23  C   UNL     1      -7.241  -8.711  15.963  0.00  0.00    +0.151 C 
BRANCH  23   1
ATOM      1  S   UNL     1      -8.825  -9.610  15.807  0.00  0.00    -0.117 S 
BRANCH   1  24
ATOM     24  C   UNL     1      -9.163 -10.007  17.516  0.00  0.00    +0.008 A 
ATOM     25  C   UNL     1     -10.454  -9.859  18.023  0.00  0.00    +0.015 A 
ATOM     26  C   UNL     1      -8.137 -10.463  18.342  0.00  0.00    +0.015 A 
ATOM     27  C   UNL     1     -10.718 -10.167  19.358  0.00  0.00    +0.001 A 
ATOM     28  C   UNL     1      -8.400 -10.771  19.677  0.00  0.00    +0.001 A 
ATOM     29  C   UNL     1      -9.691 -10.623  20.184  0.00  0.00    +0.000 A 
ENDBRANCH   1  24
ENDBRANCH  23   1
ENDBRANCH  22  23
ENDBRANCH  13  17
ENDBRANCH   8  13
TORSDOF 7
ENDMDL
MODEL 4
REMARK VINA RESULT:      -0.2      2.047      3.413
REMARK  Name = 26743116
REMARK  7 active torsions:
REMARK  status: ('A' for Active; 'I' for Inactive)
REMARK    1  A    between atoms: S_1  and  C_23
REMARK    2  A    between atoms: S_1  and  C_24
REMARK    3  A    between atoms: C_7  and  C_11
REMARK    4  A    between atoms: C_8  and  C_13
REMARK    5  A    between atoms: C_11  and  C_14
REMARK    6  A    between atoms: C_13  and  C_17
REMARK    7  A    between atoms: C_22  and  C_23
REMARK                            x       y       z     vdW  Elec       q    Type
REMARK                         _______ _______ _______ _____ _____    ______ ____
ROOT
ATOM      4  N   UNL     1      -6.836   1.955  24.872  0.00  0.00    -0.316 NA
ATOM      7  C   UNL     1      -3.889   1.810  24.906  0.00  0.00    +0.004 C 
ATOM      8  C   UNL     1      -4.790   0.562  25.068  0.00  0.00    +0.012 C 
ATOM      9  C   UNL     1      -4.670   2.897  24.150  0.00  0.00    +0.019 C 
ATOM     10  C   UNL     1      -6.162   0.926  25.662  0.00  0.00    +0.085 C 
ATOM     12  C   UNL     1      -6.037   3.175  24.773  0.00  0.00    +0.081 C 
ATOM     30  H   UNL     1      -7.735   2.175  25.299  0.00  0.00    +0.122 HD
ENDROOT
BRANCH   7  11
ATOM     11  C   UNL     1      -3.335   2.355  26.228  0.00  0.00    +0.100 C 
BRANCH  11  14
ATOM      2  O   UNL     1      -3.543   4.711  26.372  0.00  0.00    -0.276 OA
ATOM      5  N   UNL     1      -1.560   3.899  25.473  0.00  0.00    -0.301 N 
ATOM     14  C   UNL     1      -2.830   3.762  26.035  0.00  0.00    +0.216 C 
ATOM     15  C   UNL     1      -1.001   5.234  25.252  0.00  0.00    +0.108 C 
ATOM     16  C   UNL     1      -0.672   2.790  25.104  0.00  0.00    +0.108 C 
ATOM     18  C   UNL     1      -0.561   5.407  23.800  0.00  0.00    +0.019 C 
ATOM     19  C   UNL     1      -0.224   2.917  23.648  0.00  0.00    +0.019 C 
ATOM     20  C   UNL     1       0.389   4.289  23.374  0.00  0.00    +0.003 C 
ENDBRANCH  11  14
ENDBRANCH   7  11
BRANCH   8  13
ATOM     13  C   UNL     1      -4.131  -0.551  25.883  0.00  0.00    +0.064 C 
BRANCH  13  17
ATOM      3  O   UNL     1      -1.615  -2.229  23.927  0.00  0.00    -0.359 OA
ATOM      6  N   UNL     1      -2.930  -2.033  24.334  0.00  0.00    -0.083 NA
ATOM     17  C   UNL     1      -2.873  -1.039  25.224  0.00  0.00    +0.084 A 
ATOM     21  C   UNL     1      -1.561  -0.571  25.417  0.00  0.00    +0.071 A 
ATOM     22  C   UNL     1      -0.811  -1.352  24.579  0.00  0.00    +0.148 A 
BRANCH  22  23
ATOM     23  C   UNL     1       0.622  -1.420  24.265  0.00  0.00    +0.151 C 
BRANCH  23   1
ATOM      1  S   UNL     1       1.123  -0.276  22.929  0.00  0.00    -0.117 S 
BRANCH   1  24
ATOM     24  C   UNL     1       2.893  -0.231  23.165  0.00  0.00    +0.008 A 
ATOM     25  C   UNL     1       3.548  -1.319  23.741  0.00  0.00    +0.015 A 
ATOM     26  C   UNL     1       3.620   0.893  22.774  0.00  0.00    +0.015 A 
ATOM     27  C   UNL     1       4.930  -1.284  23.926  0.00  0.00    +0.001 A 
ATOM     28  C   UNL     1       5.002   0.930  22.959  0.00  0.00    +0.001 A 
ATOM     29  C   UNL     1       5.657  -0.159  23.535  0.00  0.00    +0.000 A 
ENDBRANCH   1  24
ENDBRANCH  23   1
ENDBRANCH  22  23
ENDBRANCH  13  17
ENDBRANCH   8  13
TORSDOF 7
ENDMDL
MODEL 5
REMARK VINA RESULT:       0.3      2.924      6.624
REMARK  Name = 26743116
REMARK  7 active torsions:
REMARK  status: ('A' for Active; 'I' for Inactive)
REMARK    1  A    between atoms: S_1  and  C_23
REMARK    2  A    between atoms: S_1  and  C_24
REMARK    3  A    between atoms: C_7  and  C_11
REMARK    4  A    between atoms: C_8  and  C_13
REMARK    5  A    between atoms: C_11  and  C_14
REMARK    6  A    between atoms: C_13  and  C_17
REMARK    7  A    between atoms: C_22  and  C_23
REMARK                            x       y       z     vdW  Elec       q    Type
REMARK                         _______ _______ _______ _____ _____    ______ ____
ROOT
ATOM      4  N   UNL     1       1.940   0.478  22.726  0.00  0.00    -0.316 NA
ATOM      7  C   UNL     1      -0.525   0.728  24.328  0.00  0.00    +0.004 C 
ATOM      8  C   UNL     1       0.517   1.866  24.214  0.00  0.00    +0.012 C 
ATOM      9  C   UNL     1      -0.412  -0.182  23.094  0.00  0.00    +0.019 C 
ATOM     10  C   UNL     1       1.925   1.320  23.923  0.00  0.00    +0.085 C 
ATOM     12  C   UNL     1       1.021  -0.652  22.845  0.00  0.00    +0.081 C 
ATOM     30  H   UNL     1       2.885   0.130  22.570  0.00  0.00    +0.122 HD
ENDROOT
BRANCH   7  11
ATOM     11  C   UNL     1      -0.416  -0.090  25.622  0.00  0.00    +0.100 C 
BRANCH  11  14
ATOM      2  O   UNL     1       0.181  -2.346  25.206  0.00  0.00    -0.276 OA
ATOM      5  N   UNL     1      -2.093  -1.869  25.267  0.00  0.00    -0.301 N 
ATOM     14  C   UNL     1      -0.740  -1.537  25.347  0.00  0.00    +0.216 C 
ATOM     15  C   UNL     1      -2.488  -3.254  25.000  0.00  0.00    +0.108 C 
ATOM     16  C   UNL     1      -3.209  -0.939  25.473  0.00  0.00    +0.108 C 
ATOM     18  C   UNL     1      -3.433  -3.330  23.803  0.00  0.00    +0.019 C 
ATOM     19  C   UNL     1      -4.169  -0.972  24.285  0.00  0.00    +0.019 C 
ATOM     20  C   UNL     1      -4.628  -2.397  23.981  0.00  0.00    +0.003 C 
ENDBRANCH  11  14
ENDBRANCH   7  11
BRANCH   8  13
ATOM     13  C   UNL     1       0.540   2.782  25.438  0.00  0.00    +0.064 C 
BRANCH  13  17
ATOM      3  O   UNL     1      -2.161   5.162  25.336  0.00  0.00    -0.359 OA
ATOM      6  N   UNL     1      -0.869   4.753  25.026  0.00  0.00    -0.083 NA
ATOM     17  C   UNL     1      -0.748   3.542  25.576  0.00  0.00    +0.084 A 
ATOM     21  C   UNL     1      -1.920   3.139  26.240  0.00  0.00    +0.071 A 
ATOM     22  C   UNL     1      -2.776   4.192  26.059  0.00  0.00    +0.148 A 
BRANCH  22  23
ATOM     23  C   UNL     1      -4.158   4.461  26.474  0.00  0.00    +0.151 C 
BRANCH  23   1
ATOM      1  S   UNL     1      -5.395   3.510  25.520  0.00  0.00    -0.117 S 
BRANCH   1  24
ATOM     24  C   UNL     1      -4.434   3.038  24.090  0.00  0.00    +0.008 A 
ATOM     25  C   UNL     1      -4.210   3.959  23.066  0.00  0.00    +0.015 A 
ATOM     26  C   UNL     1      -3.910   1.749  23.995  0.00  0.00    +0.015 A 
ATOM     27  C   UNL     1      -3.460   3.591  21.949  0.00  0.00    +0.001 A 
ATOM     28  C   UNL     1      -3.161   1.380  22.878  0.00  0.00    +0.001 A 
ATOM     29  C   UNL     1      -2.936   2.301  21.855  0.00  0.00    +0.000 A 
ENDBRANCH   1  24
ENDBRANCH  23   1
ENDBRANCH  22  23
ENDBRANCH  13  17
ENDBRANCH   8  13
TORSDOF 7
ENDMDL
MODEL 6
REMARK VINA RESULT:       0.4      2.445      7.266
REMARK  Name = 26743116
REMARK  7 active torsions:
REMARK  status: ('A' for Active; 'I' for Inactive)
REMARK    1  A    between atoms: S_1  and  C_23
REMARK    2  A    between atoms: S_1  and  C_24
REMARK    3  A    between atoms: C_7  and  C_11
REMARK    4  A    between atoms: C_8  and  C_13
REMARK    5  A    between atoms: C_11  and  C_14
REMARK    6  A    between atoms: C_13  and  C_17
REMARK    7  A    between atoms: C_22  and  C_23
REMARK                            x       y       z     vdW  Elec       q    Type
REMARK                         _______ _______ _______ _____ _____    ______ ____
ROOT
ATOM      4  N   UNL     1      -1.025   4.588  25.409  0.00  0.00    -0.316 NA
ATOM      7  C   UNL     1      -0.352   2.104  23.966  0.00  0.00    +0.004 C 
ATOM      8  C   UNL     1      -0.811   2.114  25.443  0.00  0.00    +0.012 C 
ATOM      9  C   UNL     1      -0.882   3.367  23.266  0.00  0.00    +0.019 C 
ATOM     10  C   UNL     1      -0.469   3.446  26.134  0.00  0.00    +0.085 C 
ATOM     12  C   UNL     1      -0.540   4.644  24.031  0.00  0.00    +0.081 C 
ATOM     30  H   UNL     1      -0.772   5.450  25.891  0.00  0.00    +0.122 HD
ENDROOT
BRANCH   7  11
ATOM     11  C   UNL     1       1.166   1.977  23.785  0.00  0.00    +0.100 C 
BRANCH  11  14
ATOM      2  O   UNL     1       0.617  -0.248  23.182  0.00  0.00    -0.276 OA
ATOM      5  N   UNL     1       2.862   0.338  23.048  0.00  0.00    -0.301 N 
ATOM     14  C   UNL     1       1.515   0.589  23.312  0.00  0.00    +0.216 C 
ATOM     15  C   UNL     1       3.281  -0.988  22.587  0.00  0.00    +0.108 C 
ATOM     16  C   UNL     1       3.945   1.324  23.150  0.00  0.00    +0.108 C 
ATOM     18  C   UNL     1       4.388  -1.549  23.475  0.00  0.00    +0.019 C 
ATOM     19  C   UNL     1       5.067   0.807  24.049  0.00  0.00    +0.019 C 
ATOM     20  C   UNL     1       5.553  -0.568  23.593  0.00  0.00    +0.003 C 
ENDBRANCH  11  14
ENDBRANCH   7  11
BRANCH   8  13
ATOM     13  C   UNL     1      -0.263   0.936  26.249  0.00  0.00    +0.064 C 
BRANCH  13  17
ATOM      3  O   UNL     1      -1.124  -2.425  25.285  0.00  0.00    -0.359 OA
ATOM      6  N   UNL     1      -0.202  -1.432  25.597  0.00  0.00    -0.083 NA
ATOM     17  C   UNL     1      -0.937  -0.350  25.864  0.00  0.00    +0.084 A 
ATOM     21  C   UNL     1      -2.316  -0.596  25.739  0.00  0.00    +0.071 A 
ATOM     22  C   UNL     1      -2.378  -1.914  25.373  0.00  0.00    +0.148 A 
BRANCH  22  23
ATOM     23  C   UNL     1      -3.483  -2.834  25.074  0.00  0.00    +0.151 C 
BRANCH  23   1
ATOM      1  S   UNL     1      -4.558  -2.251  23.715  0.00  0.00    -0.117 S 
BRANCH   1  24
ATOM     24  C   UNL     1      -4.480  -0.482  23.952  0.00  0.00    +0.008 A 
ATOM     25  C   UNL     1      -5.248   0.122  24.947  0.00  0.00    +0.015 A 
ATOM     26  C   UNL     1      -3.651   0.294  23.142  0.00  0.00    +0.015 A 
ATOM     27  C   UNL     1      -5.188   1.504  25.132  0.00  0.00    +0.001 A 
ATOM     28  C   UNL     1      -3.591   1.676  23.326  0.00  0.00    +0.001 A 
ATOM     29  C   UNL     1      -4.359   2.280  24.321  0.00  0.00    +0.000 A 
ENDBRANCH   1  24
ENDBRANCH  23   1
ENDBRANCH  22  23
ENDBRANCH  13  17
ENDBRANCH   8  13
TORSDOF 7
ENDMDL
MODEL 7
REMARK VINA RESULT:       1.4      2.620      7.014
REMARK  Name = 26743116
REMARK  7 active torsions:
REMARK  status: ('A' for Active; 'I' for Inactive)
REMARK    1  A    between atoms: S_1  and  C_23
REMARK    2  A    between atoms: S_1  and  C_24
REMARK    3  A    between atoms: C_7  and  C_11
REMARK    4  A    between atoms: C_8  and  C_13
REMARK    5  A    between atoms: C_11  and  C_14
REMARK    6  A    between atoms: C_13  and  C_17
REMARK    7  A    between atoms: C_22  and  C_23
REMARK                            x       y       z     vdW  Elec       q    Type
REMARK                         _______ _______ _______ _____ _____    ______ ____
ROOT
ATOM      4  N   UNL     1       2.294   0.197  21.773  0.00  0.00    -0.316 NA
ATOM      7  C   UNL     1       0.052   0.130  23.691  0.00  0.00    +0.004 C 
ATOM      8  C   UNL     1       1.059   1.303  23.623  0.00  0.00    +0.012 C 
ATOM      9  C   UNL     1       0.015  -0.580  22.328  0.00  0.00    +0.019 C 
ATOM     10  C   UNL     1       2.423   0.848  23.077  0.00  0.00    +0.085 C 
ATOM     12  C   UNL     1       1.409  -0.965  21.833  0.00  0.00    +0.081 C 
ATOM     30  H   UNL     1       3.214  -0.096  21.449  0.00  0.00    +0.122 HD
ENDROOT
BRANCH   7  11
ATOM     11  C   UNL     1       0.334  -0.869  24.820  0.00  0.00    +0.100 C 
BRANCH  11  14
ATOM      2  O   UNL     1      -0.417  -3.117  24.800  0.00  0.00    -0.276 OA
ATOM      5  N   UNL     1      -2.057  -1.477  24.944  0.00  0.00    -0.301 N 
ATOM     14  C   UNL     1      -0.740  -1.927  24.854  0.00  0.00    +0.216 C 
ATOM     15  C   UNL     1      -3.157  -2.445  24.980  0.00  0.00    +0.108 C 
ATOM     16  C   UNL     1      -2.469  -0.073  25.054  0.00  0.00    +0.108 C 
ATOM     18  C   UNL     1      -4.188  -2.138  23.896  0.00  0.00    +0.019 C 
ATOM     19  C   UNL     1      -3.489   0.280  23.972  0.00  0.00    +0.019 C 
ATOM     20  C   UNL     1      -4.669  -0.691  23.985  0.00  0.00    +0.003 C 
ENDBRANCH  11  14
ENDBRANCH   7  11
BRANCH   8  13
ATOM     13  C   UNL     1       1.229   2.025  24.960  0.00  0.00    +0.064 C 
BRANCH  13  17
ATOM      3  O   UNL     1      -1.686   3.434  26.536  0.00  0.00    -0.359 OA
ATOM      6  N   UNL     1      -0.587   2.582  26.518  0.00  0.00    -0.083 NA
ATOM     17  C   UNL     1      -0.010   2.788  25.331  0.00  0.00    +0.084 A 
ATOM     21  C   UNL     1      -0.693   3.748  24.564  0.00  0.00    +0.071 A 
ATOM     22  C   UNL     1      -1.737   4.122  25.367  0.00  0.00    +0.148 A 
BRANCH  22  23
ATOM     23  C   UNL     1      -2.844   5.074  25.216  0.00  0.00    +0.151 C 
BRANCH  23   1
ATOM      1  S   UNL     1      -4.067   4.564  23.956  0.00  0.00    -0.117 S 
BRANCH   1  24
ATOM     24  C   UNL     1      -5.048   3.395  24.887  0.00  0.00    +0.008 A 
ATOM     25  C   UNL     1      -5.916   2.529  24.222  0.00  0.00    +0.015 A 
ATOM     26  C   UNL     1      -4.946   3.349  26.277  0.00  0.00    +0.015 A 
ATOM     27  C   UNL     1      -6.682   1.617  24.947  0.00  0.00    +0.001 A 
ATOM     28  C   UNL     1      -5.712   2.438  27.003  0.00  0.00    +0.001 A 
ATOM     29  C   UNL     1      -6.580   1.572  26.338  0.00  0.00    +0.000 A 
ENDBRANCH   1  24
ENDBRANCH  23   1
ENDBRANCH  22  23
ENDBRANCH  13  17
ENDBRANCH   8  13
TORSDOF 7
ENDMDL
