MODEL 1
REMARK VINA RESULT:      -1.3      0.000      0.000
REMARK  Name = 71693424
REMARK  9 active torsions:
REMARK  status: ('A' for Active; 'I' for Inactive)
REMARK    1  A    between atoms: O_2  and  C_11
REMARK    2  A    between atoms: O_5  and  C_27
REMARK    3  A    between atoms: O_5  and  C_28
REMARK    4  A    between atoms: N_6  and  C_13
REMARK    5  A    between atoms: N_7  and  C_21
REMARK    6  A    between atoms: C_9  and  C_11
REMARK    7  A    between atoms: C_10  and  C_12
REMARK    8  A    between atoms: C_13  and  C_16
REMARK    9  A    between atoms: C_26  and  C_27
REMARK                            x       y       z     vdW  Elec       q    Type
REMARK                         _______ _______ _______ _____ _____    ______ ____
ROOT
ATOM      1  O   UNL     1      -3.193   3.391  23.380  0.00  0.00    -0.361 OA
ATOM      3  O   UNL     1      -6.241   1.936  23.922  0.00  0.00    -0.273 OA
ATOM      6  N   UNL     1      -4.342   1.836  25.275  0.00  0.00    -0.287 N 
ATOM      9  C   UNL     1      -3.143   2.546  25.732  0.00  0.00    +0.135 C 
ATOM     10  C   UNL     1      -2.396   3.233  24.559  0.00  0.00    +0.171 C 
ATOM     14  C   UNL     1      -5.150   2.376  24.277  0.00  0.00    +0.242 C 
ATOM     15  C   UNL     1      -4.562   3.615  23.645  0.00  0.00    +0.256 C 
ENDROOT
BRANCH  10  12
ATOM     12  C   UNL     1      -1.160   2.446  24.160  0.00  0.00    -0.017 A 
ATOM     17  C   UNL     1      -1.295   1.198  23.553  0.00  0.00    +0.008 A 
ATOM     18  C   UNL     1       0.109   2.971  24.403  0.00  0.00    +0.008 A 
ATOM     19  C   UNL     1      -0.160   0.473  23.187  0.00  0.00    +0.023 A 
ATOM     20  C   UNL     1       1.244   2.246  24.037  0.00  0.00    +0.023 A 
ATOM     21  C   UNL     1       1.109   0.998  23.430  0.00  0.00    +0.033 A 
BRANCH  21   7
ATOM      4  O   UNL     1       3.883   1.935  22.741  0.00  0.00    -0.273 OA
ATOM      7  N   UNL     1       2.244   0.274  23.065  0.00  0.00    -0.284 N 
ATOM     26  C   UNL     1       3.521   0.763  22.756  0.00  0.00    +0.243 C 
ATOM     30  H   UNL     1       2.121  -0.736  23.022  0.00  0.00    +0.155 HD
BRANCH  26  27
ATOM     27  C   UNL     1       4.489  -0.346  22.406  0.00  0.00    +0.255 C 
BRANCH  27   5
ATOM      5  O   UNL     1       5.681  -0.158  23.141  0.00  0.00    -0.374 OA
ATOM     28  C   UNL     1       5.546  -0.596  24.490  0.00  0.00    +0.194 C 
ENDBRANCH  27   5
ENDBRANCH  26  27
ENDBRANCH  21   7
ENDBRANCH  10  12
BRANCH   9  11
ATOM     11  C   UNL     1      -3.498   3.557  26.830  0.00  0.00    +0.181 C 
BRANCH  11   2
ATOM      2  O   UNL     1      -3.044   4.832  26.420  0.00  0.00    -0.393 OA
ATOM     29  H   UNL     1      -3.831   5.383  26.269  0.00  0.00    +0.209 HD
ENDBRANCH  11   2
ENDBRANCH   9  11
BRANCH   6  13
ATOM     13  C   UNL     1      -4.734   0.626  25.982  0.00  0.00    +0.145 C 
BRANCH  13  16
ATOM      8  N   UNL     1      -2.269  -2.207  25.531  0.00  0.00    -0.263 NA
ATOM     16  C   UNL     1      -4.069  -0.596  25.417  0.00  0.00    -0.012 A 
ATOM     22  C   UNL     1      -4.589  -1.246  24.303  0.00  0.00    +0.008 A 
ATOM     23  C   UNL     1      -2.917  -1.113  25.990  0.00  0.00    +0.115 A 
ATOM     24  C   UNL     1      -3.950  -2.374  23.803  0.00  0.00    +0.020 A 
ATOM     25  C   UNL     1      -2.804  -2.811  24.447  0.00  0.00    +0.111 A 
ENDBRANCH  13  16
ENDBRANCH   6  13
TORSDOF 8
ENDMDL
MODEL 2
REMARK VINA RESULT:      -0.9      1.945      3.959
REMARK  Name = 71693424
REMARK  9 active torsions:
REMARK  status: ('A' for Active; 'I' for Inactive)
REMARK    1  A    between atoms: O_2  and  C_11
REMARK    2  A    between atoms: O_5  and  C_27
REMARK    3  A    between atoms: O_5  and  C_28
REMARK    4  A    between atoms: N_6  and  C_13
REMARK    5  A    between atoms: N_7  and  C_21
REMARK    6  A    between atoms: C_9  and  C_11
REMARK    7  A    between atoms: C_10  and  C_12
REMARK    8  A    between atoms: C_13  and  C_16
REMARK    9  A    between atoms: C_26  and  C_27
REMARK                            x       y       z     vdW  Elec       q    Type
REMARK                         _______ _______ _______ _____ _____    ______ ____
ROOT
ATOM      1  O   UNL     1      -4.618   0.179  24.607  0.00  0.00    -0.361 OA
ATOM      3  O   UNL     1      -6.030   2.217  26.964  0.00  0.00    -0.273 OA
ATOM      6  N   UNL     1      -4.424   2.771  25.363  0.00  0.00    -0.287 N 
ATOM      9  C   UNL     1      -3.919   2.504  24.012  0.00  0.00    +0.135 C 
ATOM     10  C   UNL     1      -3.838   0.984  23.716  0.00  0.00    +0.171 C 
ATOM     14  C   UNL     1      -5.444   1.994  25.907  0.00  0.00    +0.242 C 
ATOM     15  C   UNL     1      -5.804   0.805  25.048  0.00  0.00    +0.256 C 
ENDROOT
BRANCH  10  12
ATOM     12  C   UNL     1      -2.406   0.485  23.801  0.00  0.00    -0.017 A 
ATOM     17  C   UNL     1      -1.362   1.283  23.337  0.00  0.00    +0.008 A 
ATOM     18  C   UNL     1      -2.137  -0.773  24.342  0.00  0.00    +0.008 A 
ATOM     19  C   UNL     1      -0.046   0.825  23.414  0.00  0.00    +0.023 A 
ATOM     20  C   UNL     1      -0.822  -1.230  24.418  0.00  0.00    +0.023 A 
ATOM     21  C   UNL     1       0.223  -0.432  23.954  0.00  0.00    +0.033 A 
BRANCH  21   7
ATOM      4  O   UNL     1       2.608   0.180  22.226  0.00  0.00    -0.273 OA
ATOM      7  N   UNL     1       1.538  -0.891  24.031  0.00  0.00    -0.284 N 
ATOM     26  C   UNL     1       2.618  -0.570  23.196  0.00  0.00    +0.243 C 
ATOM     30  H   UNL     1       1.728  -1.541  24.792  0.00  0.00    +0.155 HD
BRANCH  26  27
ATOM     27  C   UNL     1       3.890  -1.279  23.609  0.00  0.00    +0.255 C 
BRANCH  27   5
ATOM      5  O   UNL     1       4.996  -0.513  23.179  0.00  0.00    -0.374 OA
ATOM     28  C   UNL     1       5.512   0.306  24.224  0.00  0.00    +0.194 C 
ENDBRANCH  27   5
ENDBRANCH  26  27
ENDBRANCH  21   7
ENDBRANCH  10  12
BRANCH   9  11
ATOM     11  C   UNL     1      -4.774   3.227  22.962  0.00  0.00    +0.181 C 
BRANCH  11   2
ATOM      2  O   UNL     1      -3.969   3.463  21.824  0.00  0.00    -0.393 OA
ATOM     29  H   UNL     1      -3.375   2.699  21.728  0.00  0.00    +0.209 HD
ENDBRANCH  11   2
ENDBRANCH   9  11
BRANCH   6  13
ATOM     13  C   UNL     1      -3.926   3.946  26.061  0.00  0.00    +0.145 C 
BRANCH  13  16
ATOM      8  N   UNL     1      -0.177   3.558  25.744  0.00  0.00    -0.263 NA
ATOM     16  C   UNL     1      -2.496   4.244  25.713  0.00  0.00    -0.012 A 
ATOM     22  C   UNL     1      -2.146   5.423  25.064  0.00  0.00    +0.008 A 
ATOM     23  C   UNL     1      -1.483   3.352  26.028  0.00  0.00    +0.115 A 
ATOM     24  C   UNL     1      -0.813   5.670  24.756  0.00  0.00    +0.020 A 
ATOM     25  C   UNL     1       0.124   4.715  25.113  0.00  0.00    +0.111 A 
ENDBRANCH  13  16
ENDBRANCH   6  13
TORSDOF 8
ENDMDL
MODEL 3
REMARK VINA RESULT:       2.0      2.027      4.228
REMARK  Name = 71693424
REMARK  9 active torsions:
REMARK  status: ('A' for Active; 'I' for Inactive)
REMARK    1  A    between atoms: O_2  and  C_11
REMARK    2  A    between atoms: O_5  and  C_27
REMARK    3  A    between atoms: O_5  and  C_28
REMARK    4  A    between atoms: N_6  and  C_13
REMARK    5  A    between atoms: N_7  and  C_21
REMARK    6  A    between atoms: C_9  and  C_11
REMARK    7  A    between atoms: C_10  and  C_12
REMARK    8  A    between atoms: C_13  and  C_16
REMARK    9  A    between atoms: C_26  and  C_27
REMARK                            x       y       z     vdW  Elec       q    Type
REMARK                         _______ _______ _______ _____ _____    ______ ____
ROOT
ATOM      1  O   UNL     1      -2.903  -1.131  26.107  0.00  0.00    -0.361 OA
ATOM      3  O   UNL     1      -5.470   0.989  26.897  0.00  0.00    -0.273 OA
ATOM      6  N   UNL     1      -4.463   0.666  24.816  0.00  0.00    -0.287 N 
ATOM      9  C   UNL     1      -3.799  -0.294  23.929  0.00  0.00    +0.135 C 
ATOM     10  C   UNL     1      -2.746  -1.146  24.685  0.00  0.00    +0.171 C 
ATOM     14  C   UNL     1      -4.795   0.315  26.123  0.00  0.00    +0.242 C 
ATOM     15  C   UNL     1      -4.247  -1.033  26.530  0.00  0.00    +0.256 C 
ENDROOT
BRANCH  10  12
ATOM     12  C   UNL     1      -1.336  -0.666  24.386  0.00  0.00    -0.017 A 
ATOM     17  C   UNL     1      -1.065   0.700  24.318  0.00  0.00    +0.008 A 
ATOM     18  C   UNL     1      -0.314  -1.593  24.179  0.00  0.00    +0.008 A 
ATOM     19  C   UNL     1       0.230   1.141  24.042  0.00  0.00    +0.023 A 
ATOM     20  C   UNL     1       0.980  -1.151  23.904  0.00  0.00    +0.023 A 
ATOM     21  C   UNL     1       1.251   0.215  23.835  0.00  0.00    +0.033 A 
BRANCH  21   7
ATOM      4  O   UNL     1       2.890   0.007  21.320  0.00  0.00    -0.273 OA
ATOM      7  N   UNL     1       2.546   0.656  23.559  0.00  0.00    -0.284 N 
ATOM     26  C   UNL     1       3.265   0.535  22.362  0.00  0.00    +0.243 C 
ATOM     30  H   UNL     1       3.020   1.123  24.330  0.00  0.00    +0.155 HD
BRANCH  26  27
ATOM     27  C   UNL     1       4.648   1.142  22.461  0.00  0.00    +0.255 C 
BRANCH  27   5
ATOM      5  O   UNL     1       5.147   0.925  23.765  0.00  0.00    -0.374 OA
ATOM     28  C   UNL     1       5.663  -0.394  23.922  0.00  0.00    +0.194 C 
ENDBRANCH  27   5
ENDBRANCH  26  27
ENDBRANCH  21   7
ENDBRANCH  10  12
BRANCH   9  11
ATOM     11  C   UNL     1      -4.832  -1.185  23.226  0.00  0.00    +0.181 C 
BRANCH  11   2
ATOM      2  O   UNL     1      -4.537  -2.532  23.538  0.00  0.00    -0.393 OA
ATOM     29  H   UNL     1      -5.194  -3.084  23.082  0.00  0.00    +0.209 HD
ENDBRANCH  11   2
ENDBRANCH   9  11
BRANCH   6  13
ATOM     13  C   UNL     1      -4.883   1.942  24.255  0.00  0.00    +0.145 C 
BRANCH  13  16
ATOM      8  N   UNL     1      -3.273   4.801  26.135  0.00  0.00    -0.263 NA
ATOM     16  C   UNL     1      -3.933   3.050  24.603  0.00  0.00    -0.012 A 
ATOM     22  C   UNL     1      -2.864   3.366  23.771  0.00  0.00    +0.008 A 
ATOM     23  C   UNL     1      -4.091   3.791  25.764  0.00  0.00    +0.115 A 
ATOM     24  C   UNL     1      -2.001   4.399  24.120  0.00  0.00    +0.020 A 
ATOM     25  C   UNL     1      -2.246   5.079  25.301  0.00  0.00    +0.111 A 
ENDBRANCH  13  16
ENDBRANCH   6  13
TORSDOF 8
ENDMDL
