MODEL 1
REMARK VINA RESULT:      10.2      0.000      0.000
REMARK  Name = 7051380
REMARK  6 active torsions:
REMARK  status: ('A' for Active; 'I' for Inactive)
REMARK    1  A    between atoms: S_1  and  N_10
REMARK    2  A    between atoms: S_1  and  C_24
REMARK    3  A    between atoms: O_6  and  C_31
REMARK    4  A    between atoms: O_6  and  C_35
REMARK    5  A    between atoms: N_9  and  C_23
REMARK    6  A    between atoms: N_10  and  C_21
REMARK                            x       y       z     vdW  Elec       q    Type
REMARK                         _______ _______ _______ _____ _____    ______ ____
ROOT
ATOM      2  O   UNL     1      -0.025   2.428  26.487  0.00  0.00    -0.266 OA
ATOM      3  O   UNL     1      -4.805   0.251  26.587  0.00  0.00    -0.252 OA
ATOM      7  N   UNL     1      -4.906   2.193  25.332  0.00  0.00    -0.284 N 
ATOM      8  N   UNL     1      -1.890   3.241  25.325  0.00  0.00    -0.310 N 
ATOM      9  N   UNL     1      -4.802   0.086  24.274  0.00  0.00    -0.269 N 
ATOM     11  C   UNL     1      -3.957   4.195  26.491  0.00  0.00    +0.027 C 
ATOM     12  C   UNL     1      -3.895   4.065  24.038  0.00  0.00    +0.054 C 
ATOM     13  C   UNL     1      -4.134   5.007  25.215  0.00  0.00    +0.018 C 
ATOM     14  C   UNL     1      -4.963   3.034  26.532  0.00  0.00    +0.114 C 
ATOM     15  C   UNL     1      -2.507   3.705  26.574  0.00  0.00    +0.130 C 
ATOM     16  C   UNL     1      -4.939   2.929  24.056  0.00  0.00    +0.119 C 
ATOM     17  C   UNL     1      -2.498   3.475  24.083  0.00  0.00    +0.027 A 
ATOM     18  C   UNL     1      -1.864   3.148  22.942  0.00  0.00    +0.024 A 
ATOM     19  C   UNL     1      -0.616   2.645  25.430  0.00  0.00    +0.274 A 
ATOM     20  C   UNL     1      -4.827   0.789  25.478  0.00  0.00    +0.306 C 
ATOM     21  C   UNL     1       0.022   2.285  24.138  0.00  0.00    +0.112 A 
ATOM     22  C   UNL     1      -0.564   2.534  22.966  0.00  0.00    +0.031 A 
ATOM     36  H   UNL     1      -5.249   0.501  23.465  0.00  0.00    +0.156 HD
ENDROOT
BRANCH   9  23
ATOM     23  C   UNL     1      -4.254  -1.201  24.047  0.00  0.00    +0.035 A 
ATOM     25  C   UNL     1      -5.039  -2.195  23.470  0.00  0.00    +0.027 A 
ATOM     26  C   UNL     1      -2.934  -1.464  24.402  0.00  0.00    +0.027 A 
ATOM     27  C   UNL     1      -4.499  -3.462  23.247  0.00  0.00    +0.047 A 
ATOM     28  C   UNL     1      -2.395  -2.731  24.180  0.00  0.00    +0.047 A 
ATOM     31  C   UNL     1      -3.177  -3.730  23.602  0.00  0.00    +0.120 A 
BRANCH  31   6
ATOM      6  O   UNL     1      -2.650  -4.965  23.382  0.00  0.00    -0.495 OA
ATOM     35  C   UNL     1      -1.439  -5.030  22.631  0.00  0.00    +0.277 C 
ENDBRANCH  31   6
ENDBRANCH   9  23
BRANCH  21  10
ATOM     10  N   UNL     1       1.289   1.676  24.120  0.00  0.00    -0.211 N 
ATOM     37  H   UNL     1       2.044   2.332  23.871  0.00  0.00    +0.174 HD
BRANCH  10   1
ATOM      1  S   UNL     1       1.405   0.158  23.379  0.00  0.00    +0.072 S 
ATOM      4  O   UNL     1       0.775  -0.844  24.218  0.00  0.00    -0.150 OA
ATOM      5  O   UNL     1       1.045   0.270  21.979  0.00  0.00    -0.150 OA
BRANCH   1  24
ATOM     24  C   UNL     1       3.150  -0.113  23.456  0.00  0.00    +0.108 A 
ATOM     29  C   UNL     1       3.624  -1.357  23.833  0.00  0.00    +0.029 A 
ATOM     30  C   UNL     1       4.009   0.924  23.137  0.00  0.00    +0.029 A 
ATOM     32  C   UNL     1       5.001  -1.571  23.894  0.00  0.00    +0.002 A 
ATOM     33  C   UNL     1       5.386   0.711  23.198  0.00  0.00    +0.002 A 
ATOM     34  C   UNL     1       5.882  -0.537  23.577  0.00  0.00    +0.000 A 
ENDBRANCH   1  24
ENDBRANCH  10   1
ENDBRANCH  21  10
TORSDOF 5
ENDMDL
MODEL 2
REMARK VINA RESULT:      11.9      2.401      7.057
REMARK  Name = 7051380
REMARK  6 active torsions:
REMARK  status: ('A' for Active; 'I' for Inactive)
REMARK    1  A    between atoms: S_1  and  N_10
REMARK    2  A    between atoms: S_1  and  C_24
REMARK    3  A    between atoms: O_6  and  C_31
REMARK    4  A    between atoms: O_6  and  C_35
REMARK    5  A    between atoms: N_9  and  C_23
REMARK    6  A    between atoms: N_10  and  C_21
REMARK                            x       y       z     vdW  Elec       q    Type
REMARK                         _______ _______ _______ _____ _____    ______ ____
ROOT
ATOM      2  O   UNL     1      -1.974   2.374  26.357  0.00  0.00    -0.266 OA
ATOM      3  O   UNL     1       0.626  -2.172  25.941  0.00  0.00    -0.252 OA
ATOM      7  N   UNL     1      -1.280  -2.291  24.633  0.00  0.00    -0.284 N 
ATOM      8  N   UNL     1      -2.597   0.600  24.959  0.00  0.00    -0.310 N 
ATOM      9  N   UNL     1       0.825  -1.874  23.650  0.00  0.00    -0.269 N 
ATOM     11  C   UNL     1      -3.378  -1.669  25.845  0.00  0.00    +0.027 C 
ATOM     12  C   UNL     1      -3.217  -1.299  23.421  0.00  0.00    +0.054 C 
ATOM     13  C   UNL     1      -4.151  -1.761  24.536  0.00  0.00    +0.018 C 
ATOM     14  C   UNL     1      -2.131  -2.567  25.794  0.00  0.00    +0.114 C 
ATOM     15  C   UNL     1      -3.022  -0.202  26.113  0.00  0.00    +0.130 C 
ATOM     16  C   UNL     1      -1.991  -2.233  23.343  0.00  0.00    +0.119 C 
ATOM     17  C   UNL     1      -2.756   0.129  23.648  0.00  0.00    +0.027 A 
ATOM     18  C   UNL     1      -2.470   0.924  22.599  0.00  0.00    +0.024 A 
ATOM     19  C   UNL     1      -2.120   1.899  25.231  0.00  0.00    +0.274 A 
ATOM     20  C   UNL     1       0.108  -2.107  24.823  0.00  0.00    +0.306 C 
ATOM     21  C   UNL     1      -1.799   2.718  24.035  0.00  0.00    +0.112 A 
ATOM     22  C   UNL     1      -1.976   2.260  22.795  0.00  0.00    +0.031 A 
ATOM     36  H   UNL     1       0.464  -2.254  22.783  0.00  0.00    +0.156 HD
ENDROOT
BRANCH   9  23
ATOM     23  C   UNL     1       2.060  -1.192  23.524  0.00  0.00    +0.035 A 
ATOM     25  C   UNL     1       2.089   0.098  23.001  0.00  0.00    +0.027 A 
ATOM     26  C   UNL     1       3.239  -1.815  23.923  0.00  0.00    +0.027 A 
ATOM     27  C   UNL     1       3.305   0.769  22.875  0.00  0.00    +0.047 A 
ATOM     28  C   UNL     1       4.455  -1.145  23.798  0.00  0.00    +0.047 A 
ATOM     31  C   UNL     1       4.489   0.147  23.274  0.00  0.00    +0.120 A 
BRANCH  31   6
ATOM      6  O   UNL     1       5.676   0.802  23.154  0.00  0.00    -0.495 OA
ATOM     35  C   UNL     1       6.860   0.057  23.433  0.00  0.00    +0.277 C 
ENDBRANCH  31   6
ENDBRANCH   9  23
BRANCH  21  10
ATOM     10  N   UNL     1      -1.307   4.027  24.184  0.00  0.00    -0.211 N 
ATOM     37  H   UNL     1      -0.397   4.059  24.665  0.00  0.00    +0.174 HD
BRANCH  10   1
ATOM      1  S   UNL     1      -2.408   5.212  24.684  0.00  0.00    +0.072 S 
ATOM      4  O   UNL     1      -1.982   5.770  25.954  0.00  0.00    -0.150 OA
ATOM      5  O   UNL     1      -2.722   6.087  23.570  0.00  0.00    -0.150 OA
BRANCH   1  24
ATOM     24  C   UNL     1      -3.839   4.221  24.997  0.00  0.00    +0.108 A 
ATOM     29  C   UNL     1      -4.310   4.106  26.293  0.00  0.00    +0.029 A 
ATOM     30  C   UNL     1      -4.461   3.580  23.940  0.00  0.00    +0.029 A 
ATOM     32  C   UNL     1      -5.438   3.324  26.540  0.00  0.00    +0.002 A 
ATOM     33  C   UNL     1      -5.589   2.798  24.187  0.00  0.00    +0.002 A 
ATOM     34  C   UNL     1      -6.077   2.670  25.488  0.00  0.00    +0.000 A 
ENDBRANCH   1  24
ENDBRANCH  10   1
ENDBRANCH  21  10
TORSDOF 5
ENDMDL
MODEL 3
REMARK VINA RESULT:      14.0      2.595      5.502
REMARK  Name = 7051380
REMARK  6 active torsions:
REMARK  status: ('A' for Active; 'I' for Inactive)
REMARK    1  A    between atoms: S_1  and  N_10
REMARK    2  A    between atoms: S_1  and  C_24
REMARK    3  A    between atoms: O_6  and  C_31
REMARK    4  A    between atoms: O_6  and  C_35
REMARK    5  A    between atoms: N_9  and  C_23
REMARK    6  A    between atoms: N_10  and  C_21
REMARK                            x       y       z     vdW  Elec       q    Type
REMARK                         _______ _______ _______ _____ _____    ______ ____
ROOT
ATOM      2  O   UNL     1      -2.127   0.268  22.661  0.00  0.00    -0.266 OA
ATOM      3  O   UNL     1      -1.649   4.742  25.372  0.00  0.00    -0.252 OA
ATOM      7  N   UNL     1      -3.819   3.972  25.599  0.00  0.00    -0.284 N 
ATOM      8  N   UNL     1      -3.812   1.218  23.983  0.00  0.00    -0.310 N 
ATOM      9  N   UNL     1      -2.246   3.647  27.327  0.00  0.00    -0.269 N 
ATOM     11  C   UNL     1      -4.937   3.446  23.424  0.00  0.00    +0.027 C 
ATOM     12  C   UNL     1      -5.592   2.228  25.455  0.00  0.00    +0.054 C 
ATOM     13  C   UNL     1      -6.129   2.879  24.183  0.00  0.00    +0.018 C 
ATOM     14  C   UNL     1      -4.202   4.490  24.282  0.00  0.00    +0.114 C 
ATOM     15  C   UNL     1      -4.018   2.294  23.005  0.00  0.00    +0.130 C 
ATOM     16  C   UNL     1      -4.899   3.290  26.335  0.00  0.00    +0.119 C 
ATOM     17  C   UNL     1      -4.612   1.116  25.129  0.00  0.00    +0.027 A 
ATOM     18  C   UNL     1      -4.489   0.059  25.954  0.00  0.00    +0.024 A 
ATOM     19  C   UNL     1      -2.847   0.242  23.659  0.00  0.00    +0.274 A 
ATOM     20  C   UNL     1      -2.494   4.157  26.054  0.00  0.00    +0.306 C 
ATOM     21  C   UNL     1      -2.741  -0.885  24.619  0.00  0.00    +0.112 A 
ATOM     22  C   UNL     1      -3.524  -0.975  25.694  0.00  0.00    +0.031 A 
ATOM     36  H   UNL     1      -3.018   3.590  27.981  0.00  0.00    +0.156 HD
ENDROOT
BRANCH   9  23
ATOM     23  C   UNL     1      -0.998   3.231  27.853  0.00  0.00    +0.035 A 
ATOM     25  C   UNL     1       0.028   2.856  26.990  0.00  0.00    +0.027 A 
ATOM     26  C   UNL     1      -0.805   3.199  29.232  0.00  0.00    +0.027 A 
ATOM     27  C   UNL     1       1.255   2.446  27.509  0.00  0.00    +0.047 A 
ATOM     28  C   UNL     1       0.423   2.788  29.751  0.00  0.00    +0.047 A 
ATOM     31  C   UNL     1       1.453   2.412  28.890  0.00  0.00    +0.120 A 
BRANCH  31   6
ATOM      6  O   UNL     1       2.652   2.014  29.396  0.00  0.00    -0.495 OA
ATOM     35  C   UNL     1       3.824   2.436  28.700  0.00  0.00    +0.277 C 
ENDBRANCH  31   6
ENDBRANCH   9  23
BRANCH  21  10
ATOM     10  N   UNL     1      -1.806  -1.913  24.404  0.00  0.00    -0.211 N 
ATOM     37  H   UNL     1      -2.239  -2.847  24.376  0.00  0.00    +0.174 HD
BRANCH  10   1
ATOM      1  S   UNL     1      -0.359  -1.834  25.279  0.00  0.00    +0.072 S 
ATOM      4  O   UNL     1      -0.610  -1.263  26.589  0.00  0.00    -0.150 OA
ATOM      5  O   UNL     1       0.356  -3.090  25.154  0.00  0.00    -0.150 OA
BRANCH   1  24
ATOM     24  C   UNL     1       0.528  -0.627  24.340  0.00  0.00    +0.108 A 
ATOM     29  C   UNL     1       0.278   0.717  24.559  0.00  0.00    +0.029 A 
ATOM     30  C   UNL     1       1.456  -1.048  23.404  0.00  0.00    +0.029 A 
ATOM     32  C   UNL     1       0.978   1.669  23.819  0.00  0.00    +0.002 A 
ATOM     33  C   UNL     1       2.156  -0.096  22.662  0.00  0.00    +0.002 A 
ATOM     34  C   UNL     1       1.916   1.263  22.870  0.00  0.00    +0.000 A 
ENDBRANCH   1  24
ENDBRANCH  10   1
ENDBRANCH  21  10
TORSDOF 5
ENDMDL
MODEL 4
REMARK VINA RESULT:      14.0      2.447      5.329
REMARK  Name = 7051380
REMARK  6 active torsions:
REMARK  status: ('A' for Active; 'I' for Inactive)
REMARK    1  A    between atoms: S_1  and  N_10
REMARK    2  A    between atoms: S_1  and  C_24
REMARK    3  A    between atoms: O_6  and  C_31
REMARK    4  A    between atoms: O_6  and  C_35
REMARK    5  A    between atoms: N_9  and  C_23
REMARK    6  A    between atoms: N_10  and  C_21
REMARK                            x       y       z     vdW  Elec       q    Type
REMARK                         _______ _______ _______ _____ _____    ______ ____
ROOT
ATOM      2  O   UNL     1      -0.458   1.235  22.133  0.00  0.00    -0.266 OA
ATOM      3  O   UNL     1      -1.748   4.635  25.924  0.00  0.00    -0.252 OA
ATOM      7  N   UNL     1      -3.406   3.027  25.782  0.00  0.00    -0.284 N 
ATOM      8  N   UNL     1      -2.335   1.041  23.522  0.00  0.00    -0.310 N 
ATOM      9  N   UNL     1      -1.774   2.920  27.483  0.00  0.00    -0.269 N 
ATOM     11  C   UNL     1      -4.291   2.689  23.466  0.00  0.00    +0.027 C 
ATOM     12  C   UNL     1      -4.317   0.822  25.064  0.00  0.00    +0.054 C 
ATOM     13  C   UNL     1      -5.119   1.512  23.964  0.00  0.00    +0.018 C 
ATOM     14  C   UNL     1      -4.014   3.673  24.615  0.00  0.00    +0.114 C 
ATOM     15  C   UNL     1      -2.997   2.159  22.838  0.00  0.00    +0.130 C 
ATOM     16  C   UNL     1      -4.085   1.800  26.236  0.00  0.00    +0.119 C 
ATOM     17  C   UNL     1      -2.981   0.328  24.541  0.00  0.00    +0.027 A 
ATOM     18  C   UNL     1      -2.408  -0.767  25.076  0.00  0.00    +0.024 A 
ATOM     19  C   UNL     1      -1.068   0.660  23.033  0.00  0.00    +0.274 A 
ATOM     20  C   UNL     1      -2.256   3.602  26.367  0.00  0.00    +0.306 C 
ATOM     21  C   UNL     1      -0.477  -0.540  23.679  0.00  0.00    +0.112 A 
ATOM     22  C   UNL     1      -1.115  -1.217  24.634  0.00  0.00    +0.031 A 
ATOM     36  H   UNL     1      -2.432   2.387  28.041  0.00  0.00    +0.156 HD
ENDROOT
BRANCH   9  23
ATOM     23  C   UNL     1      -0.447   2.918  27.979  0.00  0.00    +0.035 A 
ATOM     25  C   UNL     1      -0.220   2.955  29.351  0.00  0.00    +0.027 A 
ATOM     26  C   UNL     1       0.623   2.880  27.089  0.00  0.00    +0.027 A 
ATOM     27  C   UNL     1       1.087   2.955  29.839  0.00  0.00    +0.047 A 
ATOM     28  C   UNL     1       1.930   2.880  27.577  0.00  0.00    +0.047 A 
ATOM     31  C   UNL     1       2.162   2.917  28.951  0.00  0.00    +0.120 A 
BRANCH  31   6
ATOM      6  O   UNL     1       3.437   2.914  29.426  0.00  0.00    -0.495 OA
ATOM     35  C   UNL     1       4.455   2.427  28.553  0.00  0.00    +0.277 C 
ENDBRANCH  31   6
ENDBRANCH   9  23
BRANCH  21  10
ATOM     10  N   UNL     1       0.788  -1.007  23.280  0.00  0.00    -0.211 N 
ATOM     37  H   UNL     1       1.260  -1.556  24.013  0.00  0.00    +0.174 HD
BRANCH  10   1
ATOM      1  S   UNL     1       1.791   0.085  22.464  0.00  0.00    +0.072 S 
ATOM      4  O   UNL     1       1.821  -0.242  21.051  0.00  0.00    -0.150 OA
ATOM      5  O   UNL     1       1.494   1.437  22.895  0.00  0.00    -0.150 OA
BRANCH   1  24
ATOM     24  C   UNL     1       3.367  -0.350  23.138  0.00  0.00    +0.108 A 
ATOM     29  C   UNL     1       4.380   0.594  23.151  0.00  0.00    +0.029 A 
ATOM     30  C   UNL     1       3.559  -1.625  23.640  0.00  0.00    +0.029 A 
ATOM     32  C   UNL     1       5.623   0.251  23.682  0.00  0.00    +0.002 A 
ATOM     33  C   UNL     1       4.802  -1.969  24.171  0.00  0.00    +0.002 A 
ATOM     34  C   UNL     1       5.834  -1.030  24.192  0.00  0.00    +0.000 A 
ENDBRANCH   1  24
ENDBRANCH  10   1
ENDBRANCH  21  10
TORSDOF 5
ENDMDL
MODEL 5
REMARK VINA RESULT:      14.0      2.969      5.860
REMARK  Name = 7051380
REMARK  6 active torsions:
REMARK  status: ('A' for Active; 'I' for Inactive)
REMARK    1  A    between atoms: S_1  and  N_10
REMARK    2  A    between atoms: S_1  and  C_24
REMARK    3  A    between atoms: O_6  and  C_31
REMARK    4  A    between atoms: O_6  and  C_35
REMARK    5  A    between atoms: N_9  and  C_23
REMARK    6  A    between atoms: N_10  and  C_21
REMARK                            x       y       z     vdW  Elec       q    Type
REMARK                         _______ _______ _______ _____ _____    ______ ____
ROOT
ATOM      2  O   UNL     1      -4.230   4.108  23.080  0.00  0.00    -0.266 OA
ATOM      3  O   UNL     1      -0.051   0.924  23.101  0.00  0.00    -0.252 OA
ATOM      7  N   UNL     1       0.320   2.636  24.613  0.00  0.00    -0.284 N 
ATOM      8  N   UNL     1      -2.381   4.336  24.501  0.00  0.00    -0.310 N 
ATOM      9  N   UNL     1      -0.357   0.502  25.361  0.00  0.00    -0.269 N 
ATOM     11  C   UNL     1      -0.037   4.921  23.660  0.00  0.00    +0.027 C 
ATOM     12  C   UNL     1      -0.407   4.531  26.058  0.00  0.00    +0.054 C 
ATOM     13  C   UNL     1       0.162   5.521  25.046  0.00  0.00    +0.018 C 
ATOM     14  C   UNL     1       0.694   3.572  23.550  0.00  0.00    +0.114 C 
ATOM     15  C   UNL     1      -1.539   4.786  23.386  0.00  0.00    +0.130 C 
ATOM     16  C   UNL     1       0.363   3.195  25.976  0.00  0.00    +0.119 C 
ATOM     17  C   UNL     1      -1.885   4.283  25.811  0.00  0.00    +0.027 A 
ATOM     18  C   UNL     1      -2.702   3.982  26.838  0.00  0.00    +0.024 A 
ATOM     19  C   UNL     1      -3.732   4.063  24.205  0.00  0.00    +0.274 A 
ATOM     20  C   UNL     1      -0.042   1.313  24.272  0.00  0.00    +0.306 C 
ATOM     21  C   UNL     1      -4.577   3.713  25.375  0.00  0.00    +0.112 A 
ATOM     22  C   UNL     1      -4.091   3.687  26.616  0.00  0.00    +0.031 A 
ATOM     36  H   UNL     1       0.073   0.710  26.255  0.00  0.00    +0.156 HD
ENDROOT
BRANCH   9  23
ATOM     23  C   UNL     1      -1.190  -0.643  25.362  0.00  0.00    +0.035 A 
ATOM     25  C   UNL     1      -2.306  -0.687  26.193  0.00  0.00    +0.027 A 
ATOM     26  C   UNL     1      -0.889  -1.719  24.532  0.00  0.00    +0.027 A 
ATOM     27  C   UNL     1      -3.126  -1.815  26.195  0.00  0.00    +0.047 A 
ATOM     28  C   UNL     1      -1.709  -2.847  24.533  0.00  0.00    +0.047 A 
ATOM     31  C   UNL     1      -2.828  -2.896  25.364  0.00  0.00    +0.120 A 
BRANCH  31   6
ATOM      6  O   UNL     1      -3.629  -3.996  25.364  0.00  0.00    -0.495 OA
ATOM     35  C   UNL     1      -4.359  -4.266  24.168  0.00  0.00    +0.277 C 
ENDBRANCH  31   6
ENDBRANCH   9  23
BRANCH  21  10
ATOM     10  N   UNL     1      -5.939   3.411  25.199  0.00  0.00    -0.211 N 
ATOM     37  H   UNL     1      -6.562   4.099  25.646  0.00  0.00    +0.174 HD
BRANCH  10   1
ATOM      1  S   UNL     1      -6.405   1.798  25.414  0.00  0.00    +0.072 S 
ATOM      4  O   UNL     1      -6.171   1.400  26.790  0.00  0.00    -0.150 OA
ATOM      5  O   UNL     1      -7.701   1.578  24.801  0.00  0.00    -0.150 OA
BRANCH   1  24
ATOM     24  C   UNL     1      -5.202   0.972  24.416  0.00  0.00    +0.108 A 
ATOM     29  C   UNL     1      -4.165   1.703  23.864  0.00  0.00    +0.029 A 
ATOM     30  C   UNL     1      -5.320  -0.391  24.206  0.00  0.00    +0.029 A 
ATOM     32  C   UNL     1      -3.217   1.051  23.077  0.00  0.00    +0.002 A 
ATOM     33  C   UNL     1      -4.371  -1.043  23.418  0.00  0.00    +0.002 A 
ATOM     34  C   UNL     1      -3.320  -0.321  22.853  0.00  0.00    +0.000 A 
ENDBRANCH   1  24
ENDBRANCH  10   1
ENDBRANCH  21  10
TORSDOF 5
ENDMDL
MODEL 6
REMARK VINA RESULT:      14.0      2.269      5.722
REMARK  Name = 7051380
REMARK  6 active torsions:
REMARK  status: ('A' for Active; 'I' for Inactive)
REMARK    1  A    between atoms: S_1  and  N_10
REMARK    2  A    between atoms: S_1  and  C_24
REMARK    3  A    between atoms: O_6  and  C_31
REMARK    4  A    between atoms: O_6  and  C_35
REMARK    5  A    between atoms: N_9  and  C_23
REMARK    6  A    between atoms: N_10  and  C_21
REMARK                            x       y       z     vdW  Elec       q    Type
REMARK                         _______ _______ _______ _____ _____    ______ ____
ROOT
ATOM      2  O   UNL     1      -3.000   2.672  26.262  0.00  0.00    -0.266 OA
ATOM      3  O   UNL     1      -0.299  -1.811  25.809  0.00  0.00    -0.252 OA
ATOM      7  N   UNL     1      -2.197  -1.959  24.494  0.00  0.00    -0.284 N 
ATOM      8  N   UNL     1      -3.579   0.899  24.845  0.00  0.00    -0.310 N 
ATOM      9  N   UNL     1      -0.100  -1.485  23.522  0.00  0.00    -0.269 N 
ATOM     11  C   UNL     1      -4.312  -1.396  25.706  0.00  0.00    +0.027 C 
ATOM     12  C   UNL     1      -4.152  -0.998  23.286  0.00  0.00    +0.054 C 
ATOM     13  C   UNL     1      -5.079  -1.491  24.393  0.00  0.00    +0.018 C 
ATOM     14  C   UNL     1      -3.045  -2.265  25.650  0.00  0.00    +0.114 C 
ATOM     15  C   UNL     1      -3.989   0.076  25.989  0.00  0.00    +0.130 C 
ATOM     16  C   UNL     1      -2.905  -1.904  23.203  0.00  0.00    +0.119 C 
ATOM     17  C   UNL     1      -3.724   0.438  23.529  0.00  0.00    +0.027 A 
ATOM     18  C   UNL     1      -3.453   1.249  22.489  0.00  0.00    +0.024 A 
ATOM     19  C   UNL     1      -3.132   2.206  25.132  0.00  0.00    +0.274 A 
ATOM     20  C   UNL     1      -0.814  -1.746  24.690  0.00  0.00    +0.306 C 
ATOM     21  C   UNL     1      -2.827   3.044  23.944  0.00  0.00    +0.112 A 
ATOM     22  C   UNL     1      -2.990   2.594  22.700  0.00  0.00    +0.031 A 
ATOM     36  H   UNL     1      -0.450  -1.864  22.650  0.00  0.00    +0.156 HD
ENDROOT
BRANCH   9  23
ATOM     23  C   UNL     1       1.120  -0.774  23.406  0.00  0.00    +0.035 A 
ATOM     25  C   UNL     1       1.104   0.592  23.138  0.00  0.00    +0.027 A 
ATOM     26  C   UNL     1       2.330  -1.446  23.561  0.00  0.00    +0.027 A 
ATOM     27  C   UNL     1       2.305   1.291  23.023  0.00  0.00    +0.047 A 
ATOM     28  C   UNL     1       3.531  -0.747  23.446  0.00  0.00    +0.047 A 
ATOM     31  C   UNL     1       3.520   0.621  23.177  0.00  0.00    +0.120 A 
BRANCH  31   6
ATOM      6  O   UNL     1       4.692   1.304  23.067  0.00  0.00    -0.495 OA
ATOM     35  C   UNL     1       5.828   0.755  23.733  0.00  0.00    +0.277 C 
ENDBRANCH  31   6
ENDBRANCH   9  23
BRANCH  21  10
ATOM     10  N   UNL     1      -2.364   4.361  24.108  0.00  0.00    -0.211 N 
ATOM     37  H   UNL     1      -2.833   5.030  23.479  0.00  0.00    +0.174 HD
BRANCH  10   1
ATOM      1  S   UNL     1      -0.692   4.580  24.247  0.00  0.00    +0.072 S 
ATOM      4  O   UNL     1      -0.043   4.190  23.009  0.00  0.00    -0.150 OA
ATOM      5  O   UNL     1      -0.416   5.875  24.839  0.00  0.00    -0.150 OA
BRANCH   1  24
ATOM     24  C   UNL     1      -0.299   3.352  25.457  0.00  0.00    +0.108 A 
ATOM     29  C   UNL     1       0.196   3.749  26.687  0.00  0.00    +0.029 A 
ATOM     30  C   UNL     1      -0.493   2.016  25.151  0.00  0.00    +0.029 A 
ATOM     32  C   UNL     1       0.506   2.780  27.641  0.00  0.00    +0.002 A 
ATOM     33  C   UNL     1      -0.183   1.047  26.104  0.00  0.00    +0.002 A 
ATOM     34  C   UNL     1       0.318   1.430  27.350  0.00  0.00    +0.000 A 
ENDBRANCH   1  24
ENDBRANCH  10   1
ENDBRANCH  21  10
TORSDOF 5
ENDMDL
