MODEL 1
REMARK VINA RESULT:      -4.7      0.000      0.000
REMARK  Name = 75536982
REMARK  4 active torsions:
REMARK  status: ('A' for Active; 'I' for Inactive)
REMARK    1  A    between atoms: S_1  and  N_6
REMARK    2  A    between atoms: S_1  and  C_16
REMARK    3  A    between atoms: N_7  and  C_15
REMARK    4  A    between atoms: C_15  and  C_17
REMARK                            x       y       z     vdW  Elec       q    Type
REMARK                         _______ _______ _______ _____ _____    ______ ____
ROOT
ATOM      2  O   UNL     1      -0.434  -1.830  23.614  0.00  0.00    -0.252 OA
ATOM      5  N   UNL     1      -1.037   0.246  24.533  0.00  0.00    -0.278 N 
ATOM      6  N   UNL     1      -2.704   2.353  25.308  0.00  0.00    -0.178 NA
ATOM      7  N   UNL     1       0.762   0.157  23.191  0.00  0.00    -0.278 N 
ATOM      9  C   UNL     1      -0.482   1.586  24.580  0.00  0.00    +0.111 C 
ATOM     10  C   UNL     1      -1.576   2.623  24.356  0.00  0.00    +0.133 C 
ATOM     11  C   UNL     1       0.606   1.566  23.510  0.00  0.00    +0.133 C 
ATOM     12  C   UNL     1      -2.210  -0.072  25.324  0.00  0.00    +0.127 C 
ATOM     13  C   UNL     1      -3.289   0.985  25.108  0.00  0.00    +0.128 C 
ATOM     14  C   UNL     1      -0.258  -0.628  23.763  0.00  0.00    +0.306 C 
ENDROOT
BRANCH   6   1
ATOM      1  S   UNL     1      -3.847   3.620  25.462  0.00  0.00    +0.029 S 
ATOM      3  O   UNL     1      -4.004   4.261  24.176  0.00  0.00    -0.158 OA
ATOM      4  O   UNL     1      -3.547   4.374  26.658  0.00  0.00    -0.158 OA
ATOM     16  C   UNL     1      -5.300   2.651  25.774  0.00  0.00    +0.215 C 
ENDBRANCH   6   1
BRANCH   7  15
ATOM     15  C   UNL     1       1.781  -0.314  22.280  0.00  0.00    +0.164 C 
BRANCH  15  17
ATOM      8  N   UNL     1       3.556  -1.422  23.515  0.00  0.00    -0.258 NA
ATOM     17  C   UNL     1       3.148  -0.288  22.902  0.00  0.00    +0.059 A 
ATOM     18  C   UNL     1       3.908   0.867  22.820  0.00  0.00    +0.025 A 
ATOM     19  C   UNL     1       5.170   0.858  23.406  0.00  0.00    +0.003 A 
ATOM     20  C   UNL     1       4.786  -1.393  24.073  0.00  0.00    +0.111 A 
ATOM     21  C   UNL     1       5.624  -0.290  24.046  0.00  0.00    +0.020 A 
ENDBRANCH  15  17
ENDBRANCH   7  15
TORSDOF 3
ENDMDL
MODEL 2
REMARK VINA RESULT:      -3.3      0.998      1.358
REMARK  Name = 75536982
REMARK  4 active torsions:
REMARK  status: ('A' for Active; 'I' for Inactive)
REMARK    1  A    between atoms: S_1  and  N_6
REMARK    2  A    between atoms: S_1  and  C_16
REMARK    3  A    between atoms: N_7  and  C_15
REMARK    4  A    between atoms: C_15  and  C_17
REMARK                            x       y       z     vdW  Elec       q    Type
REMARK                         _______ _______ _______ _____ _____    ______ ____
ROOT
ATOM      2  O   UNL     1      -0.827  -1.993  23.958  0.00  0.00    -0.252 OA
ATOM      5  N   UNL     1      -1.326   0.143  24.799  0.00  0.00    -0.278 N 
ATOM      6  N   UNL     1      -2.890   2.347  25.516  0.00  0.00    -0.178 NA
ATOM      7  N   UNL     1       0.437  -0.076  23.424  0.00  0.00    -0.278 N 
ATOM      9  C   UNL     1      -0.718   1.460  24.775  0.00  0.00    +0.111 C 
ATOM     10  C   UNL     1      -1.774   2.530  24.529  0.00  0.00    +0.133 C 
ATOM     11  C   UNL     1       0.344   1.350  23.684  0.00  0.00    +0.133 C 
ATOM     12  C   UNL     1      -2.493  -0.094  25.627  0.00  0.00    +0.127 C 
ATOM     13  C   UNL     1      -3.533   0.997  25.388  0.00  0.00    +0.128 C 
ATOM     14  C   UNL     1      -0.600  -0.794  24.051  0.00  0.00    +0.306 C 
ENDROOT
BRANCH   6   1
ATOM      1  S   UNL     1      -3.979   3.664  25.638  0.00  0.00    +0.029 S 
ATOM      3  O   UNL     1      -3.228   4.859  25.952  0.00  0.00    -0.158 OA
ATOM      4  O   UNL     1      -5.119   3.252  26.426  0.00  0.00    -0.158 OA
ATOM     16  C   UNL     1      -4.491   3.765  23.943  0.00  0.00    +0.215 C 
ENDBRANCH   6   1
BRANCH   7  15
ATOM     15  C   UNL     1       1.415  -0.626  22.512  0.00  0.00    +0.164 C 
BRANCH  15  17
ATOM      8  N   UNL     1       3.352   0.840  22.566  0.00  0.00    -0.258 NA
ATOM     17  C   UNL     1       2.821  -0.340  22.957  0.00  0.00    +0.059 A 
ATOM     18  C   UNL     1       3.491  -1.275  23.729  0.00  0.00    +0.025 A 
ATOM     19  C   UNL     1       4.791  -0.979  24.126  0.00  0.00    +0.003 A 
ATOM     20  C   UNL     1       4.617   1.092  22.970  0.00  0.00    +0.111 A 
ATOM     21  C   UNL     1       5.371   0.225  23.743  0.00  0.00    +0.020 A 
ENDBRANCH  15  17
ENDBRANCH   7  15
TORSDOF 3
ENDMDL
MODEL 3
REMARK VINA RESULT:      -3.1     17.401     18.155
REMARK  Name = 75536982
REMARK  4 active torsions:
REMARK  status: ('A' for Active; 'I' for Inactive)
REMARK    1  A    between atoms: S_1  and  N_6
REMARK    2  A    between atoms: S_1  and  C_16
REMARK    3  A    between atoms: N_7  and  C_15
REMARK    4  A    between atoms: C_15  and  C_17
REMARK                            x       y       z     vdW  Elec       q    Type
REMARK                         _______ _______ _______ _____ _____    ______ ____
ROOT
ATOM      2  O   UNL     1      15.480  -8.089  25.705  0.00  0.00    -0.252 OA
ATOM      5  N   UNL     1      15.947  -7.328  27.878  0.00  0.00    -0.278 N 
ATOM      6  N   UNL     1      15.441  -6.505  30.502  0.00  0.00    -0.178 NA
ATOM      7  N   UNL     1      16.983  -6.328  26.153  0.00  0.00    -0.278 N 
ATOM      9  C   UNL     1      16.866  -6.393  28.499  0.00  0.00    +0.111 C 
ATOM     10  C   UNL     1      16.150  -5.571  29.565  0.00  0.00    +0.133 C 
ATOM     11  C   UNL     1      17.405  -5.580  27.324  0.00  0.00    +0.133 C 
ATOM     12  C   UNL     1      15.123  -8.183  28.710  0.00  0.00    +0.127 C 
ATOM     13  C   UNL     1      14.430  -7.353  29.787  0.00  0.00    +0.128 C 
ATOM     14  C   UNL     1      16.064  -7.345  26.481  0.00  0.00    +0.306 C 
ENDROOT
BRANCH   6   1
ATOM      1  S   UNL     1      14.896  -5.795  31.963  0.00  0.00    +0.029 S 
ATOM      3  O   UNL     1      13.918  -4.778  31.648  0.00  0.00    -0.158 OA
ATOM      4  O   UNL     1      16.041  -5.518  32.800  0.00  0.00    -0.158 OA
ATOM     16  C   UNL     1      14.038  -7.188  32.650  0.00  0.00    +0.215 C 
ENDBRANCH   6   1
BRANCH   7  15
ATOM     15  C   UNL     1      17.382  -5.948  24.817  0.00  0.00    +0.164 C 
BRANCH  15  17
ATOM      8  N   UNL     1      17.384  -3.631  25.548  0.00  0.00    -0.258 NA
ATOM     17  C   UNL     1      17.119  -4.496  24.543  0.00  0.00    +0.059 A 
ATOM     18  C   UNL     1      16.629  -4.117  23.303  0.00  0.00    +0.025 A 
ATOM     19  C   UNL     1      16.397  -2.764  23.080  0.00  0.00    +0.003 A 
ATOM     20  C   UNL     1      17.146  -2.325  25.295  0.00  0.00    +0.111 A 
ATOM     21  C   UNL     1      16.658  -1.845  24.090  0.00  0.00    +0.020 A 
ENDBRANCH  15  17
ENDBRANCH   7  15
TORSDOF 3
ENDMDL
MODEL 4
REMARK VINA RESULT:      -2.4     15.217     17.112
REMARK  Name = 75536982
REMARK  4 active torsions:
REMARK  status: ('A' for Active; 'I' for Inactive)
REMARK    1  A    between atoms: S_1  and  N_6
REMARK    2  A    between atoms: S_1  and  C_16
REMARK    3  A    between atoms: N_7  and  C_15
REMARK    4  A    between atoms: C_15  and  C_17
REMARK                            x       y       z     vdW  Elec       q    Type
REMARK                         _______ _______ _______ _____ _____    ______ ____
ROOT
ATOM      2  O   UNL     1      14.436  -9.208  32.097  0.00  0.00    -0.252 OA
ATOM      5  N   UNL     1      12.148  -8.894  32.530  0.00  0.00    -0.278 N 
ATOM      6  N   UNL     1       9.387  -9.242  32.263  0.00  0.00    -0.178 NA
ATOM      7  N   UNL     1      13.464  -7.079  32.384  0.00  0.00    -0.278 N 
ATOM      9  C   UNL     1      11.275  -7.784  32.865  0.00  0.00    +0.111 C 
ATOM     10  C   UNL     1       9.974  -7.873  32.076  0.00  0.00    +0.133 C 
ATOM     11  C   UNL     1      12.122  -6.551  32.560  0.00  0.00    +0.133 C 
ATOM     12  C   UNL     1      11.629 -10.247  32.557  0.00  0.00    +0.127 C 
ATOM     13  C   UNL     1      10.316 -10.319  31.783  0.00  0.00    +0.128 C 
ATOM     14  C   UNL     1      13.472  -8.486  32.313  0.00  0.00    +0.306 C 
ENDROOT
BRANCH   6   1
ATOM      1  S   UNL     1       7.756  -9.409  31.762  0.00  0.00    +0.029 S 
ATOM      3  O   UNL     1       7.283 -10.717  32.156  0.00  0.00    -0.158 OA
ATOM      4  O   UNL     1       7.637  -8.934  30.402  0.00  0.00    -0.158 OA
ATOM     16  C   UNL     1       7.009  -8.207  32.831  0.00  0.00    +0.215 C 
ENDBRANCH   6   1
BRANCH   7  15
ATOM     15  C   UNL     1      14.605  -6.216  32.177  0.00  0.00    +0.164 C 
BRANCH  15  17
ATOM      8  N   UNL     1      16.530  -6.277  30.695  0.00  0.00    -0.258 NA
ATOM     17  C   UNL     1      15.185  -6.370  30.800  0.00  0.00    +0.059 A 
ATOM     18  C   UNL     1      14.336  -6.597  29.729  0.00  0.00    +0.025 A 
ATOM     19  C   UNL     1      14.904  -6.738  28.467  0.00  0.00    +0.003 A 
ATOM     20  C   UNL     1      17.045  -6.418  29.453  0.00  0.00    +0.111 A 
ATOM     21  C   UNL     1      16.283  -6.647  28.319  0.00  0.00    +0.020 A 
ENDBRANCH  15  17
ENDBRANCH   7  15
TORSDOF 3
ENDMDL
MODEL 5
REMARK VINA RESULT:      -2.0     15.348     18.358
REMARK  Name = 75536982
REMARK  4 active torsions:
REMARK  status: ('A' for Active; 'I' for Inactive)
REMARK    1  A    between atoms: S_1  and  N_6
REMARK    2  A    between atoms: S_1  and  C_16
REMARK    3  A    between atoms: N_7  and  C_15
REMARK    4  A    between atoms: C_15  and  C_17
REMARK                            x       y       z     vdW  Elec       q    Type
REMARK                         _______ _______ _______ _____ _____    ______ ____
ROOT
ATOM      2  O   UNL     1      10.777  -6.250  30.564  0.00  0.00    -0.252 OA
ATOM      5  N   UNL     1      12.809  -7.313  31.074  0.00  0.00    -0.278 N 
ATOM      6  N   UNL     1      15.199  -8.692  30.622  0.00  0.00    -0.178 NA
ATOM      7  N   UNL     1      11.017  -7.772  32.349  0.00  0.00    -0.278 N 
ATOM      9  C   UNL     1      13.321  -8.172  32.125  0.00  0.00    +0.111 C 
ATOM     10  C   UNL     1      14.167  -9.293  31.531  0.00  0.00    +0.133 C 
ATOM     11  C   UNL     1      12.065  -8.641  32.854  0.00  0.00    +0.133 C 
ATOM     12  C   UNL     1      13.716  -6.789  30.071  0.00  0.00    +0.127 C 
ATOM     13  C   UNL     1      14.572  -7.916  29.500  0.00  0.00    +0.128 C 
ATOM     14  C   UNL     1      11.450  -7.013  31.244  0.00  0.00    +0.306 C 
ENDROOT
BRANCH   6   1
ATOM      1  S   UNL     1      16.466  -9.749  30.158  0.00  0.00    +0.029 S 
ATOM      3  O   UNL     1      15.920 -10.780  29.304  0.00  0.00    -0.158 OA
ATOM      4  O   UNL     1      17.256 -10.067  31.326  0.00  0.00    -0.158 OA
ATOM     16  C   UNL     1      17.405  -8.635  29.146  0.00  0.00    +0.215 C 
ENDBRANCH   6   1
BRANCH   7  15
ATOM     15  C   UNL     1       9.668  -7.816  32.867  0.00  0.00    +0.164 C 
BRANCH  15  17
ATOM      8  N   UNL     1       9.135  -9.992  31.924  0.00  0.00    -0.258 NA
ATOM     17  C   UNL     1       8.775  -8.693  32.036  0.00  0.00    +0.059 A 
ATOM     18  C   UNL     1       7.652  -8.145  31.438  0.00  0.00    +0.025 A 
ATOM     19  C   UNL     1       6.845  -8.983  30.677  0.00  0.00    +0.003 A 
ATOM     20  C   UNL     1       8.327 -10.775  31.176  0.00  0.00    +0.111 A 
ATOM     21  C   UNL     1       7.183 -10.325  30.539  0.00  0.00    +0.020 A 
ENDBRANCH  15  17
ENDBRANCH   7  15
TORSDOF 3
ENDMDL
