MODEL 1
REMARK VINA RESULT:       2.4      0.000      0.000
REMARK  Name = 51136981
REMARK  10 active torsions:
REMARK  status: ('A' for Active; 'I' for Inactive)
REMARK    1  A    between atoms: O_5  and  C_15
REMARK    2  A    between atoms: O_6  and  C_22
REMARK    3  A    between atoms: N_8  and  C_13
REMARK    4  A    between atoms: N_9  and  C_23
REMARK    5  A    between atoms: N_10  and  C_19
REMARK    6  A    between atoms: N_11  and  C_34
REMARK    7  A    between atoms: C_14  and  C_19
REMARK    8  A    between atoms: C_16  and  C_22
REMARK    9  A    between atoms: C_24  and  C_29
REMARK   10  A    between atoms: C_27  and  C_31
REMARK                            x       y       z     vdW  Elec       q    Type
REMARK                         _______ _______ _______ _____ _____    ______ ____
ROOT
ATOM      4  O   UNL     1      -5.032   4.220  24.849  0.00  0.00    -0.365 OA
ATOM     13  C   UNL     1      -2.764   4.046  25.550  0.00  0.00    +0.118 C 
ATOM     14  C   UNL     1      -3.680   4.302  24.347  0.00  0.00    +0.155 C 
ATOM     15  C   UNL     1      -3.636   3.211  26.474  0.00  0.00    +0.165 C 
ATOM     16  C   UNL     1      -4.994   3.866  26.246  0.00  0.00    +0.174 C 
ENDROOT
BRANCH  13   8
ATOM      8  N   UNL     1      -1.458   3.483  25.255  0.00  0.00    -0.292 NA
ATOM      9  N   UNL     1       0.409   1.793  23.906  0.00  0.00    -0.327 N 
ATOM     17  C   UNL     1      -1.454   2.035  25.502  0.00  0.00    +0.104 C 
ATOM     18  C   UNL     1      -1.084   3.753  23.862  0.00  0.00    +0.104 C 
ATOM     20  C   UNL     1      -0.067   1.439  25.250  0.00  0.00    +0.120 C 
ATOM     21  C   UNL     1       0.316   3.214  23.553  0.00  0.00    +0.120 C 
BRANCH   9  23
ATOM     23  C   UNL     1       1.409   1.000  23.333  0.00  0.00    +0.030 A 
ATOM     25  C   UNL     1       2.729   1.121  23.763  0.00  0.00    +0.035 A 
ATOM     26  C   UNL     1       1.083   0.086  22.329  0.00  0.00    +0.023 A 
ATOM     27  C   UNL     1       3.725   0.330  23.191  0.00  0.00    +0.057 A 
ATOM     28  C   UNL     1       2.079  -0.705  21.757  0.00  0.00    +0.002 A 
ATOM     30  C   UNL     1       3.401  -0.583  22.187  0.00  0.00    +0.012 A 
BRANCH  27  31
ATOM      1  F   UNL     1       6.031  -0.060  22.761  0.00  0.00    -0.166 F 
ATOM      2  F   UNL     1       5.532   1.754  23.852  0.00  0.00    -0.166 F 
ATOM      3  F   UNL     1       5.388  -0.175  24.835  0.00  0.00    -0.166 F 
ATOM     31  C   UNL     1       5.138   0.461  23.652  0.00  0.00    +0.417 C 
ENDBRANCH  27  31
ENDBRANCH   9  23
ENDBRANCH  13   8
BRANCH  15   5
ATOM      5  O   UNL     1      -3.669   1.849  26.070  0.00  0.00    -0.388 OA
ATOM     35  H   UNL     1      -3.854   1.312  26.860  0.00  0.00    +0.210 HD
ENDBRANCH  15   5
BRANCH  14  19
ATOM     19  C   UNL     1      -3.570   3.323  23.184  0.00  0.00    +0.137 C 
BRANCH  19  10
ATOM      7  O   UNL     1      -2.287   0.989  22.111  0.00  0.00    -0.270 OA
ATOM     10  N   UNL     1      -3.744   1.972  23.627  0.00  0.00    -0.309 N 
ATOM     24  C   UNL     1      -3.078   0.895  23.046  0.00  0.00    +0.247 C 
ATOM     36  H   UNL     1      -4.400   1.803  24.383  0.00  0.00    +0.149 HD
BRANCH  24  29
ATOM     11  N   UNL     1      -3.334  -2.272  24.802  0.00  0.00    -0.274 N 
ATOM     12  N   UNL     1      -4.367  -2.478  23.967  0.00  0.00    -0.179 NA
ATOM     29  C   UNL     1      -3.386  -0.447  23.604  0.00  0.00    +0.074 A 
ATOM     32  C   UNL     1      -2.713  -1.071  24.625  0.00  0.00    +0.121 A 
ATOM     33  C   UNL     1      -4.394  -1.359  23.238  0.00  0.00    +0.147 A 
ATOM     34  C   UNL     1      -2.982  -3.284  25.769  0.00  0.00    +0.172 C 
ENDBRANCH  24  29
ENDBRANCH  19  10
ENDBRANCH  14  19
BRANCH  16  22
ATOM     22  C   UNL     1      -6.199   3.004  26.577  0.00  0.00    +0.190 C 
BRANCH  22   6
ATOM      6  O   UNL     1      -6.430   2.107  25.502  0.00  0.00    -0.392 OA
ATOM     37  H   UNL     1      -6.417   2.631  24.683  0.00  0.00    +0.210 HD
ENDBRANCH  22   6
ENDBRANCH  16  22
TORSDOF 9
ENDMDL
MODEL 2
REMARK VINA RESULT:       3.2      4.455      7.889
REMARK  Name = 51136981
REMARK  10 active torsions:
REMARK  status: ('A' for Active; 'I' for Inactive)
REMARK    1  A    between atoms: O_5  and  C_15
REMARK    2  A    between atoms: O_6  and  C_22
REMARK    3  A    between atoms: N_8  and  C_13
REMARK    4  A    between atoms: N_9  and  C_23
REMARK    5  A    between atoms: N_10  and  C_19
REMARK    6  A    between atoms: N_11  and  C_34
REMARK    7  A    between atoms: C_14  and  C_19
REMARK    8  A    between atoms: C_16  and  C_22
REMARK    9  A    between atoms: C_24  and  C_29
REMARK   10  A    between atoms: C_27  and  C_31
REMARK                            x       y       z     vdW  Elec       q    Type
REMARK                         _______ _______ _______ _____ _____    ______ ____
ROOT
ATOM      4  O   UNL     1       4.322   1.287  23.037  0.00  0.00    -0.365 OA
ATOM     13  C   UNL     1       2.364   0.145  22.310  0.00  0.00    +0.118 C 
ATOM     14  C   UNL     1       2.885   1.425  22.974  0.00  0.00    +0.155 C 
ATOM     15  C   UNL     1       3.443  -0.875  22.638  0.00  0.00    +0.165 C 
ATOM     16  C   UNL     1       4.692  -0.008  22.525  0.00  0.00    +0.174 C 
ENDROOT
BRANCH  13   8
ATOM      8  N   UNL     1       1.011  -0.253  22.656  0.00  0.00    -0.292 NA
ATOM      9  N   UNL     1      -1.456  -0.134  24.091  0.00  0.00    -0.327 N 
ATOM     17  C   UNL     1       0.944  -0.692  24.056  0.00  0.00    +0.104 C 
ATOM     18  C   UNL     1       0.076   0.856  22.435  0.00  0.00    +0.104 C 
ATOM     20  C   UNL     1      -0.465  -1.168  24.416  0.00  0.00    +0.120 C 
ATOM     21  C   UNL     1      -1.364   0.433  22.742  0.00  0.00    +0.120 C 
BRANCH   9  23
ATOM     23  C   UNL     1      -2.696  -0.186  24.738  0.00  0.00    +0.030 A 
ATOM     25  C   UNL     1      -3.632   0.827  24.536  0.00  0.00    +0.035 A 
ATOM     26  C   UNL     1      -2.994  -1.252  25.587  0.00  0.00    +0.023 A 
ATOM     27  C   UNL     1      -4.867   0.775  25.182  0.00  0.00    +0.057 A 
ATOM     28  C   UNL     1      -4.229  -1.305  26.233  0.00  0.00    +0.002 A 
ATOM     30  C   UNL     1      -5.166  -0.291  26.031  0.00  0.00    +0.012 A 
BRANCH  27  31
ATOM      1  F   UNL     1      -5.426   2.815  24.096  0.00  0.00    -0.166 F 
ATOM      2  F   UNL     1      -7.054   1.416  24.450  0.00  0.00    -0.166 F 
ATOM      3  F   UNL     1      -6.204   2.531  26.106  0.00  0.00    -0.166 F 
ATOM     31  C   UNL     1      -5.869   1.859  24.965  0.00  0.00    +0.417 C 
ENDBRANCH  27  31
ENDBRANCH   9  23
ENDBRANCH  13   8
BRANCH  15   5
ATOM      5  O   UNL     1       3.304  -1.374  23.961  0.00  0.00    -0.388 OA
ATOM     35  H   UNL     1       3.652  -2.282  23.971  0.00  0.00    +0.210 HD
ENDBRANCH  15   5
BRANCH  14  19
ATOM     19  C   UNL     1       2.397   1.709  24.390  0.00  0.00    +0.137 C 
BRANCH  19  10
ATOM      7  O   UNL     1       0.815   2.425  26.677  0.00  0.00    -0.270 OA
ATOM     10  N   UNL     1       1.114   2.344  24.377  0.00  0.00    -0.309 N 
ATOM     24  C   UNL     1       0.413   2.656  25.539  0.00  0.00    +0.247 C 
ATOM     36  H   UNL     1       0.697   2.549  23.474  0.00  0.00    +0.149 HD
BRANCH  24  29
ATOM     11  N   UNL     1      -2.903   4.123  25.726  0.00  0.00    -0.274 N 
ATOM     12  N   UNL     1      -2.742   4.281  24.401  0.00  0.00    -0.179 NA
ATOM     29  C   UNL     1      -0.919   3.290  25.355  0.00  0.00    +0.074 A 
ATOM     32  C   UNL     1      -1.840   3.534  26.344  0.00  0.00    +0.121 A 
ATOM     33  C   UNL     1      -1.527   3.770  24.181  0.00  0.00    +0.147 A 
ATOM     34  C   UNL     1      -4.123   4.566  26.357  0.00  0.00    +0.172 C 
ENDBRANCH  24  29
ENDBRANCH  19  10
ENDBRANCH  14  19
BRANCH  16  22
ATOM     22  C   UNL     1       5.909  -0.515  23.277  0.00  0.00    +0.190 C 
BRANCH  22   6
ATOM      6  O   UNL     1       5.691  -0.348  24.669  0.00  0.00    -0.392 OA
ATOM     37  H   UNL     1       4.804   0.039  24.775  0.00  0.00    +0.210 HD
ENDBRANCH  22   6
ENDBRANCH  16  22
TORSDOF 9
ENDMDL
MODEL 3
REMARK VINA RESULT:       4.7      2.596      4.331
REMARK  Name = 51136981
REMARK  10 active torsions:
REMARK  status: ('A' for Active; 'I' for Inactive)
REMARK    1  A    between atoms: O_5  and  C_15
REMARK    2  A    between atoms: O_6  and  C_22
REMARK    3  A    between atoms: N_8  and  C_13
REMARK    4  A    between atoms: N_9  and  C_23
REMARK    5  A    between atoms: N_10  and  C_19
REMARK    6  A    between atoms: N_11  and  C_34
REMARK    7  A    between atoms: C_14  and  C_19
REMARK    8  A    between atoms: C_16  and  C_22
REMARK    9  A    between atoms: C_24  and  C_29
REMARK   10  A    between atoms: C_27  and  C_31
REMARK                            x       y       z     vdW  Elec       q    Type
REMARK                         _______ _______ _______ _____ _____    ______ ____
ROOT
ATOM      4  O   UNL     1      -4.416   3.111  26.244  0.00  0.00    -0.365 OA
ATOM     13  C   UNL     1      -3.650   1.260  24.960  0.00  0.00    +0.118 C 
ATOM     14  C   UNL     1      -3.263   2.261  26.056  0.00  0.00    +0.155 C 
ATOM     15  C   UNL     1      -4.713   2.008  24.171  0.00  0.00    +0.165 C 
ATOM     16  C   UNL     1      -5.435   2.739  25.297  0.00  0.00    +0.174 C 
ENDROOT
BRANCH  13   8
ATOM      8  N   UNL     1      -2.558   0.719  24.169  0.00  0.00    -0.292 NA
ATOM      9  N   UNL     1       0.158   0.412  23.340  0.00  0.00    -0.327 N 
ATOM     17  C   UNL     1      -1.885   1.788  23.421  0.00  0.00    +0.104 C 
ATOM     18  C   UNL     1      -1.592   0.028  25.031  0.00  0.00    +0.104 C 
ATOM     20  C   UNL     1      -0.769   1.223  22.539  0.00  0.00    +0.120 C 
ATOM     21  C   UNL     1      -0.464  -0.596  24.204  0.00  0.00    +0.120 C 
BRANCH   9  23
ATOM     23  C   UNL     1       1.444   0.195  22.835  0.00  0.00    +0.030 A 
ATOM     25  C   UNL     1       2.547   0.243  23.687  0.00  0.00    +0.035 A 
ATOM     26  C   UNL     1       1.625  -0.071  21.477  0.00  0.00    +0.023 A 
ATOM     27  C   UNL     1       3.829   0.026  23.183  0.00  0.00    +0.057 A 
ATOM     28  C   UNL     1       2.907  -0.288  20.972  0.00  0.00    +0.002 A 
ATOM     30  C   UNL     1       4.010  -0.239  21.825  0.00  0.00    +0.012 A 
BRANCH  27  31
ATOM      1  F   UNL     1       5.254  -1.121  24.703  0.00  0.00    -0.166 F 
ATOM      2  F   UNL     1       6.172   0.417  23.469  0.00  0.00    -0.166 F 
ATOM      3  F   UNL     1       4.873   0.981  25.113  0.00  0.00    -0.166 F 
ATOM     31  C   UNL     1       5.008   0.077  24.096  0.00  0.00    +0.417 C 
ENDBRANCH  27  31
ENDBRANCH   9  23
ENDBRANCH  13   8
BRANCH  15   5
ATOM      5  O   UNL     1      -4.133   2.939  23.268  0.00  0.00    -0.388 OA
ATOM     35  H   UNL     1      -3.372   3.348  23.714  0.00  0.00    +0.210 HD
ENDBRANCH  15   5
BRANCH  14  19
ATOM     19  C   UNL     1      -2.075   3.169  25.763  0.00  0.00    +0.137 C 
BRANCH  19  10
ATOM      7  O   UNL     1       0.690   2.449  25.475  0.00  0.00    -0.270 OA
ATOM     10  N   UNL     1      -1.098   3.094  26.808  0.00  0.00    -0.309 N 
ATOM     24  C   UNL     1       0.228   2.734  26.578  0.00  0.00    +0.247 C 
ATOM     36  H   UNL     1      -1.403   3.292  27.755  0.00  0.00    +0.149 HD
BRANCH  24  29
ATOM     11  N   UNL     1       1.897   2.279  29.769  0.00  0.00    -0.274 N 
ATOM     12  N   UNL     1       2.900   2.941  29.167  0.00  0.00    -0.179 NA
ATOM     29  C   UNL     1       1.111   2.677  27.771  0.00  0.00    +0.074 A 
ATOM     32  C   UNL     1       0.803   2.096  28.977  0.00  0.00    +0.121 A 
ATOM     33  C   UNL     1       2.413   3.181  27.946  0.00  0.00    +0.147 A 
ATOM     34  C   UNL     1       2.049   1.838  31.135  0.00  0.00    +0.172 C 
ENDBRANCH  24  29
ENDBRANCH  19  10
ENDBRANCH  14  19
BRANCH  16  22
ATOM     22  C   UNL     1      -6.209   3.977  24.881  0.00  0.00    +0.190 C 
BRANCH  22   6
ATOM      6  O   UNL     1      -6.382   4.812  26.015  0.00  0.00    -0.392 OA
ATOM     37  H   UNL     1      -7.204   5.314  25.878  0.00  0.00    +0.210 HD
ENDBRANCH  22   6
ENDBRANCH  16  22
TORSDOF 9
ENDMDL
MODEL 4
REMARK VINA RESULT:       5.2      1.713      2.153
REMARK  Name = 51136981
REMARK  10 active torsions:
REMARK  status: ('A' for Active; 'I' for Inactive)
REMARK    1  A    between atoms: O_5  and  C_15
REMARK    2  A    between atoms: O_6  and  C_22
REMARK    3  A    between atoms: N_8  and  C_13
REMARK    4  A    between atoms: N_9  and  C_23
REMARK    5  A    between atoms: N_10  and  C_19
REMARK    6  A    between atoms: N_11  and  C_34
REMARK    7  A    between atoms: C_14  and  C_19
REMARK    8  A    between atoms: C_16  and  C_22
REMARK    9  A    between atoms: C_24  and  C_29
REMARK   10  A    between atoms: C_27  and  C_31
REMARK                            x       y       z     vdW  Elec       q    Type
REMARK                         _______ _______ _______ _____ _____    ______ ____
ROOT
ATOM      4  O   UNL     1      -5.713   3.408  24.864  0.00  0.00    -0.365 OA
ATOM     13  C   UNL     1      -3.551   2.943  23.983  0.00  0.00    +0.118 C 
ATOM     14  C   UNL     1      -4.915   2.330  24.327  0.00  0.00    +0.155 C 
ATOM     15  C   UNL     1      -3.459   4.127  24.931  0.00  0.00    +0.165 C 
ATOM     16  C   UNL     1      -4.907   4.601  24.931  0.00  0.00    +0.174 C 
ENDROOT
BRANCH  13   8
ATOM      8  N   UNL     1      -2.416   2.037  24.010  0.00  0.00    -0.292 NA
ATOM      9  N   UNL     1       0.136   1.030  23.213  0.00  0.00    -0.327 N 
ATOM     17  C   UNL     1      -2.252   1.377  22.709  0.00  0.00    +0.104 C 
ATOM     18  C   UNL     1      -1.188   2.762  24.361  0.00  0.00    +0.104 C 
ATOM     20  C   UNL     1      -1.093   0.378  22.743  0.00  0.00    +0.120 C 
ATOM     21  C   UNL     1       0.007   1.809  24.449  0.00  0.00    +0.120 C 
BRANCH   9  23
ATOM     23  C   UNL     1       1.360   0.433  22.893  0.00  0.00    +0.030 A 
ATOM     25  C   UNL     1       2.533   0.872  23.507  0.00  0.00    +0.035 A 
ATOM     26  C   UNL     1       1.408  -0.602  21.958  0.00  0.00    +0.023 A 
ATOM     27  C   UNL     1       3.753   0.277  23.187  0.00  0.00    +0.057 A 
ATOM     28  C   UNL     1       2.628  -1.197  21.638  0.00  0.00    +0.002 A 
ATOM     30  C   UNL     1       3.801  -0.757  22.252  0.00  0.00    +0.012 A 
BRANCH  27  31
ATOM      1  F   UNL     1       6.096   0.005  23.488  0.00  0.00    -0.166 F 
ATOM      2  F   UNL     1       5.330   2.040  23.547  0.00  0.00    -0.166 F 
ATOM      3  F   UNL     1       4.961   0.695  25.209  0.00  0.00    -0.166 F 
ATOM     31  C   UNL     1       5.007   0.747  23.845  0.00  0.00    +0.417 C 
ENDBRANCH  27  31
ENDBRANCH   9  23
ENDBRANCH  13   8
BRANCH  15   5
ATOM      5  O   UNL     1      -3.070   3.721  26.236  0.00  0.00    -0.388 OA
ATOM     35  H   UNL     1      -3.797   3.943  26.843  0.00  0.00    +0.210 HD
ENDBRANCH  15   5
BRANCH  14  19
ATOM     19  C   UNL     1      -4.920   1.207  25.358  0.00  0.00    +0.137 C 
BRANCH  19  10
ATOM      7  O   UNL     1      -4.930  -1.474  24.331  0.00  0.00    -0.270 OA
ATOM     10  N   UNL     1      -3.785   0.351  25.195  0.00  0.00    -0.309 N 
ATOM     24  C   UNL     1      -3.881  -0.943  24.687  0.00  0.00    +0.247 C 
ATOM     36  H   UNL     1      -2.879   0.704  25.488  0.00  0.00    +0.149 HD
BRANCH  24  29
ATOM     11  N   UNL     1      -0.570  -2.412  24.928  0.00  0.00    -0.274 N 
ATOM     12  N   UNL     1      -1.047  -3.265  24.005  0.00  0.00    -0.179 NA
ATOM     29  C   UNL     1      -2.614  -1.714  24.605  0.00  0.00    +0.074 A 
ATOM     32  C   UNL     1      -1.468  -1.464  25.321  0.00  0.00    +0.121 A 
ATOM     33  C   UNL     1      -2.296  -2.833  23.812  0.00  0.00    +0.147 A 
ATOM     34  C   UNL     1       0.784  -2.559  25.408  0.00  0.00    +0.172 C 
ENDBRANCH  24  29
ENDBRANCH  19  10
ENDBRANCH  14  19
BRANCH  16  22
ATOM     22  C   UNL     1      -5.327   5.420  26.138  0.00  0.00    +0.190 C 
BRANCH  22   6
ATOM      6  O   UNL     1      -6.744   5.486  26.178  0.00  0.00    -0.392 OA
ATOM     37  H   UNL     1      -6.989   6.424  26.107  0.00  0.00    +0.210 HD
ENDBRANCH  22   6
ENDBRANCH  16  22
TORSDOF 9
ENDMDL
MODEL 5
REMARK VINA RESULT:       5.2      1.877      4.441
REMARK  Name = 51136981
REMARK  10 active torsions:
REMARK  status: ('A' for Active; 'I' for Inactive)
REMARK    1  A    between atoms: O_5  and  C_15
REMARK    2  A    between atoms: O_6  and  C_22
REMARK    3  A    between atoms: N_8  and  C_13
REMARK    4  A    between atoms: N_9  and  C_23
REMARK    5  A    between atoms: N_10  and  C_19
REMARK    6  A    between atoms: N_11  and  C_34
REMARK    7  A    between atoms: C_14  and  C_19
REMARK    8  A    between atoms: C_16  and  C_22
REMARK    9  A    between atoms: C_24  and  C_29
REMARK   10  A    between atoms: C_27  and  C_31
REMARK                            x       y       z     vdW  Elec       q    Type
REMARK                         _______ _______ _______ _____ _____    ______ ____
ROOT
ATOM      4  O   UNL     1      -4.617  -0.336  25.919  0.00  0.00    -0.365 OA
ATOM     13  C   UNL     1      -3.215  -0.954  24.098  0.00  0.00    +0.118 C 
ATOM     14  C   UNL     1      -3.344  -0.953  25.626  0.00  0.00    +0.155 C 
ATOM     15  C   UNL     1      -4.089   0.216  23.679  0.00  0.00    +0.165 C 
ATOM     16  C   UNL     1      -5.226   0.092  24.685  0.00  0.00    +0.174 C 
ENDROOT
BRANCH  13   8
ATOM      8  N   UNL     1      -1.863  -0.939  23.568  0.00  0.00    -0.292 NA
ATOM      9  N   UNL     1       0.872  -0.126  23.421  0.00  0.00    -0.327 N 
ATOM     17  C   UNL     1      -1.512   0.405  23.090  0.00  0.00    +0.104 C 
ATOM     18  C   UNL     1      -0.903  -1.371  24.591  0.00  0.00    +0.104 C 
ATOM     20  C   UNL     1      -0.110   0.420  22.476  0.00  0.00    +0.120 C 
ATOM     21  C   UNL     1       0.520  -1.414  24.028  0.00  0.00    +0.120 C 
BRANCH   9  23
ATOM     23  C   UNL     1       2.218   0.210  23.239  0.00  0.00    +0.030 A 
ATOM     25  C   UNL     1       3.220  -0.655  23.676  0.00  0.00    +0.035 A 
ATOM     26  C   UNL     1       2.557   1.413  22.618  0.00  0.00    +0.023 A 
ATOM     27  C   UNL     1       4.561  -0.319  23.493  0.00  0.00    +0.057 A 
ATOM     28  C   UNL     1       3.899   1.749  22.435  0.00  0.00    +0.002 A 
ATOM     30  C   UNL     1       4.901   0.884  22.873  0.00  0.00    +0.012 A 
BRANCH  27  31
ATOM      1  F   UNL     1       6.764  -1.167  23.201  0.00  0.00    -0.166 F 
ATOM      2  F   UNL     1       6.036  -1.013  25.245  0.00  0.00    -0.166 F 
ATOM      3  F   UNL     1       5.266  -2.562  23.936  0.00  0.00    -0.166 F 
ATOM     31  C   UNL     1       5.632  -1.246  23.961  0.00  0.00    +0.417 C 
ENDBRANCH  27  31
ENDBRANCH   9  23
ENDBRANCH  13   8
BRANCH  15   5
ATOM      5  O   UNL     1      -3.414   1.456  23.844  0.00  0.00    -0.388 OA
ATOM     35  H   UNL     1      -2.640   1.451  23.256  0.00  0.00    +0.210 HD
ENDBRANCH  15   5
BRANCH  14  19
ATOM     19  C   UNL     1      -2.281  -0.182  26.402  0.00  0.00    +0.137 C 
BRANCH  19  10
ATOM      7  O   UNL     1       0.056   1.472  26.608  0.00  0.00    -0.270 OA
ATOM     10  N   UNL     1      -2.125   1.144  25.886  0.00  0.00    -0.309 N 
ATOM     24  C   UNL     1      -0.951   1.879  26.033  0.00  0.00    +0.247 C 
ATOM     36  H   UNL     1      -2.920   1.565  25.416  0.00  0.00    +0.149 HD
BRANCH  24  29
ATOM     11  N   UNL     1      -1.489   5.320  25.009  0.00  0.00    -0.274 N 
ATOM     12  N   UNL     1      -0.395   5.108  24.257  0.00  0.00    -0.179 NA
ATOM     29  C   UNL     1      -0.957   3.251  25.464  0.00  0.00    +0.074 A 
ATOM     32  C   UNL     1      -1.868   4.239  25.750  0.00  0.00    +0.121 A 
ATOM     33  C   UNL     1      -0.075   3.842  24.541  0.00  0.00    +0.147 A 
ATOM     34  C   UNL     1      -2.143   6.606  24.975  0.00  0.00    +0.172 C 
ENDBRANCH  24  29
ENDBRANCH  19  10
ENDBRANCH  14  19
BRANCH  16  22
ATOM     22  C   UNL     1      -6.020   1.362  24.934  0.00  0.00    +0.190 C 
BRANCH  22   6
ATOM      6  O   UNL     1      -5.235   2.249  25.715  0.00  0.00    -0.392 OA
ATOM     37  H   UNL     1      -5.742   2.446  26.521  0.00  0.00    +0.210 HD
ENDBRANCH  22   6
ENDBRANCH  16  22
TORSDOF 9
ENDMDL
MODEL 6
REMARK VINA RESULT:       6.2      4.482      7.584
REMARK  Name = 51136981
REMARK  10 active torsions:
REMARK  status: ('A' for Active; 'I' for Inactive)
REMARK    1  A    between atoms: O_5  and  C_15
REMARK    2  A    between atoms: O_6  and  C_22
REMARK    3  A    between atoms: N_8  and  C_13
REMARK    4  A    between atoms: N_9  and  C_23
REMARK    5  A    between atoms: N_10  and  C_19
REMARK    6  A    between atoms: N_11  and  C_34
REMARK    7  A    between atoms: C_14  and  C_19
REMARK    8  A    between atoms: C_16  and  C_22
REMARK    9  A    between atoms: C_24  and  C_29
REMARK   10  A    between atoms: C_27  and  C_31
REMARK                            x       y       z     vdW  Elec       q    Type
REMARK                         _______ _______ _______ _____ _____    ______ ____
ROOT
ATOM      4  O   UNL     1       3.483  -0.972  23.191  0.00  0.00    -0.365 OA
ATOM     13  C   UNL     1       2.387   0.868  24.229  0.00  0.00    +0.118 C 
ATOM     14  C   UNL     1       2.185  -0.539  23.655  0.00  0.00    +0.155 C 
ATOM     15  C   UNL     1       3.605   1.375  23.474  0.00  0.00    +0.165 C 
ATOM     16  C   UNL     1       4.430   0.097  23.382  0.00  0.00    +0.174 C 
ENDROOT
BRANCH  13   8
ATOM      8  N   UNL     1       1.231   1.746  24.200  0.00  0.00    -0.292 NA
ATOM      9  N   UNL     1      -1.476   2.511  24.696  0.00  0.00    -0.327 N 
ATOM     17  C   UNL     1       0.134   1.129  23.442  0.00  0.00    +0.104 C 
ATOM     18  C   UNL     1       0.784   2.055  25.563  0.00  0.00    +0.104 C 
ATOM     20  C   UNL     1      -1.070   2.070  23.355  0.00  0.00    +0.120 C 
ATOM     21  C   UNL     1      -0.400   3.026  25.548  0.00  0.00    +0.120 C 
BRANCH   9  23
ATOM     23  C   UNL     1      -2.782   2.985  24.864  0.00  0.00    +0.030 A 
ATOM     25  C   UNL     1      -3.848   2.089  24.929  0.00  0.00    +0.035 A 
ATOM     26  C   UNL     1      -3.017   4.357  24.966  0.00  0.00    +0.023 A 
ATOM     27  C   UNL     1      -5.149   2.563  25.096  0.00  0.00    +0.057 A 
ATOM     28  C   UNL     1      -4.318   4.831  25.134  0.00  0.00    +0.002 A 
ATOM     30  C   UNL     1      -5.385   3.934  25.198  0.00  0.00    +0.012 A 
BRANCH  27  31
ATOM      1  F   UNL     1      -6.789   1.473  26.429  0.00  0.00    -0.166 F 
ATOM      2  F   UNL     1      -7.352   1.957  24.384  0.00  0.00    -0.166 F 
ATOM      3  F   UNL     1      -5.962   0.336  24.770  0.00  0.00    -0.166 F 
ATOM     31  C   UNL     1      -6.289   1.603  25.165  0.00  0.00    +0.417 C 
ENDBRANCH  27  31
ENDBRANCH   9  23
ENDBRANCH  13   8
BRANCH  15   5
ATOM      5  O   UNL     1       3.259   1.836  22.175  0.00  0.00    -0.388 OA
ATOM     35  H   UNL     1       2.628   1.201  21.796  0.00  0.00    +0.210 HD
ENDBRANCH  15   5
BRANCH  14  19
ATOM     19  C   UNL     1       1.221  -0.667  22.481  0.00  0.00    +0.137 C 
BRANCH  19  10
ATOM      7  O   UNL     1       0.461  -1.788  25.013  0.00  0.00    -0.270 OA
ATOM     10  N   UNL     1      -0.112  -0.930  22.934  0.00  0.00    -0.309 N 
ATOM     24  C   UNL     1      -0.391  -1.479  24.184  0.00  0.00    +0.247 C 
ATOM     36  H   UNL     1      -0.877  -0.724  22.298  0.00  0.00    +0.149 HD
BRANCH  24  29
ATOM     11  N   UNL     1      -3.912  -2.344  24.365  0.00  0.00    -0.274 N 
ATOM     12  N   UNL     1      -3.844  -1.737  25.563  0.00  0.00    -0.179 NA
ATOM     29  C   UNL     1      -1.825  -1.715  24.494  0.00  0.00    +0.074 A 
ATOM     32  C   UNL     1      -2.731  -2.357  23.685  0.00  0.00    +0.121 A 
ATOM     33  C   UNL     1      -2.565  -1.355  25.635  0.00  0.00    +0.147 A 
ATOM     34  C   UNL     1      -5.165  -2.904  23.918  0.00  0.00    +0.172 C 
ENDBRANCH  24  29
ENDBRANCH  19  10
ENDBRANCH  14  19
BRANCH  16  22
ATOM     22  C   UNL     1       5.457   0.061  22.264  0.00  0.00    +0.190 C 
BRANCH  22   6
ATOM      6  O   UNL     1       6.710  -0.330  22.803  0.00  0.00    -0.392 OA
ATOM     37  H   UNL     1       7.311   0.429  22.709  0.00  0.00    +0.210 HD
ENDBRANCH  22   6
ENDBRANCH  16  22
TORSDOF 9
ENDMDL
