MODEL 1
REMARK VINA RESULT:       0.7      0.000      0.000
REMARK  Name = 71693482
REMARK  11 active torsions:
REMARK  status: ('A' for Active; 'I' for Inactive)
REMARK    1  A    between atoms: O_2  and  C_12
REMARK    2  A    between atoms: O_6  and  C_26
REMARK    3  A    between atoms: O_6  and  C_27
REMARK    4  A    between atoms: N_7  and  C_15
REMARK    5  A    between atoms: N_8  and  C_23
REMARK    6  A    between atoms: N_8  and  C_24
REMARK    7  A    between atoms: N_9  and  C_22
REMARK    8  A    between atoms: C_10  and  C_12
REMARK    9  A    between atoms: C_11  and  C_13
REMARK   10  A    between atoms: C_15  and  C_19
REMARK   11  A    between atoms: C_25  and  C_26
REMARK                            x       y       z     vdW  Elec       q    Type
REMARK                         _______ _______ _______ _____ _____    ______ ____
ROOT
ATOM      1  O   UNL     1      -1.894  -0.571  24.544  0.00  0.00    -0.361 OA
ATOM      3  O   UNL     1      -5.379   0.020  24.989  0.00  0.00    -0.273 OA
ATOM      7  N   UNL     1      -3.762   1.427  24.073  0.00  0.00    -0.283 N 
ATOM     10  C   UNL     1      -2.334   1.649  23.742  0.00  0.00    +0.135 C 
ATOM     11  C   UNL     1      -1.612   0.317  23.462  0.00  0.00    +0.171 C 
ATOM     14  C   UNL     1      -4.232   0.214  24.581  0.00  0.00    +0.242 C 
ATOM     16  C   UNL     1      -3.252  -0.942  24.547  0.00  0.00    +0.256 C 
ENDROOT
BRANCH  11  13
ATOM     13  C   UNL     1      -0.105   0.434  23.365  0.00  0.00    -0.017 A 
ATOM     17  C   UNL     1       0.612  -0.448  22.557  0.00  0.00    +0.008 A 
ATOM     18  C   UNL     1       0.564   1.424  24.084  0.00  0.00    +0.008 A 
ATOM     20  C   UNL     1       2.000  -0.339  22.468  0.00  0.00    +0.023 A 
ATOM     21  C   UNL     1       1.952   1.533  23.995  0.00  0.00    +0.023 A 
ATOM     22  C   UNL     1       2.670   0.651  23.187  0.00  0.00    +0.033 A 
BRANCH  22   9
ATOM      5  O   UNL     1       4.839  -1.219  24.107  0.00  0.00    -0.273 OA
ATOM      9  N   UNL     1       4.058   0.760  23.097  0.00  0.00    -0.284 N 
ATOM     25  C   UNL     1       5.028  -0.147  23.541  0.00  0.00    +0.243 C 
ATOM     29  H   UNL     1       4.399   1.608  22.648  0.00  0.00    +0.155 HD
BRANCH  25  26
ATOM     26  C   UNL     1       6.435   0.334  23.257  0.00  0.00    +0.255 C 
BRANCH  26   6
ATOM      6  O   UNL     1       7.107  -0.647  22.496  0.00  0.00    -0.374 OA
ATOM     27  C   UNL     1       8.508  -0.649  22.752  0.00  0.00    +0.194 C 
ENDBRANCH  26   6
ENDBRANCH  25  26
ENDBRANCH  22   9
ENDBRANCH  11  13
BRANCH  10  12
ATOM     12  C   UNL     1      -2.147   2.622  22.568  0.00  0.00    +0.181 C 
BRANCH  12   2
ATOM      2  O   UNL     1      -2.428   1.926  21.370  0.00  0.00    -0.393 OA
ATOM     28  H   UNL     1      -3.385   1.762  21.349  0.00  0.00    +0.209 HD
ENDBRANCH  12   2
ENDBRANCH  10  12
BRANCH   7  15
ATOM     15  C   UNL     1      -4.652   2.585  24.094  0.00  0.00    +0.204 C 
BRANCH  15  19
ATOM      4  O   UNL     1      -5.711   2.886  26.223  0.00  0.00    -0.274 OA
ATOM      8  N   UNL     1      -3.676   3.953  25.908  0.00  0.00    -0.306 N 
ATOM     19  C   UNL     1      -4.743   3.144  25.503  0.00  0.00    +0.232 C 
ATOM     23  C   UNL     1      -3.616   4.566  27.232  0.00  0.00    +0.131 C 
ATOM     24  C   UNL     1      -2.543   4.244  25.038  0.00  0.00    +0.131 C 
ENDBRANCH  15  19
ENDBRANCH   7  15
TORSDOF 8
ENDMDL
MODEL 2
REMARK VINA RESULT:       1.8      1.518      2.039
REMARK  Name = 71693482
REMARK  11 active torsions:
REMARK  status: ('A' for Active; 'I' for Inactive)
REMARK    1  A    between atoms: O_2  and  C_12
REMARK    2  A    between atoms: O_6  and  C_26
REMARK    3  A    between atoms: O_6  and  C_27
REMARK    4  A    between atoms: N_7  and  C_15
REMARK    5  A    between atoms: N_8  and  C_23
REMARK    6  A    between atoms: N_8  and  C_24
REMARK    7  A    between atoms: N_9  and  C_22
REMARK    8  A    between atoms: C_10  and  C_12
REMARK    9  A    between atoms: C_11  and  C_13
REMARK   10  A    between atoms: C_15  and  C_19
REMARK   11  A    between atoms: C_25  and  C_26
REMARK                            x       y       z     vdW  Elec       q    Type
REMARK                         _______ _______ _______ _____ _____    ______ ____
ROOT
ATOM      1  O   UNL     1      -2.879  -0.192  25.288  0.00  0.00    -0.361 OA
ATOM      3  O   UNL     1      -6.087   1.163  26.041  0.00  0.00    -0.273 OA
ATOM      7  N   UNL     1      -4.355   2.106  24.796  0.00  0.00    -0.283 N 
ATOM     10  C   UNL     1      -2.967   1.989  24.287  0.00  0.00    +0.135 C 
ATOM     11  C   UNL     1      -2.569   0.514  24.087  0.00  0.00    +0.171 C 
ATOM     14  C   UNL     1      -4.988   1.072  25.491  0.00  0.00    +0.242 C 
ATOM     16  C   UNL     1      -4.271  -0.264  25.483  0.00  0.00    +0.256 C 
ENDROOT
BRANCH  11  13
ATOM     13  C   UNL     1      -1.096   0.299  23.813  0.00  0.00    -0.017 A 
ATOM     17  C   UNL     1      -0.184   1.326  24.052  0.00  0.00    +0.008 A 
ATOM     18  C   UNL     1      -0.650  -0.928  23.321  0.00  0.00    +0.008 A 
ATOM     20  C   UNL     1       1.173   1.127  23.800  0.00  0.00    +0.023 A 
ATOM     21  C   UNL     1       0.707  -1.128  23.069  0.00  0.00    +0.023 A 
ATOM     22  C   UNL     1       1.619  -0.100  23.308  0.00  0.00    +0.033 A 
BRANCH  22   9
ATOM      5  O   UNL     1       3.811   1.882  22.741  0.00  0.00    -0.273 OA
ATOM      9  N   UNL     1       2.977  -0.299  23.057  0.00  0.00    -0.284 N 
ATOM     25  C   UNL     1       3.960   0.665  22.801  0.00  0.00    +0.243 C 
ATOM     29  H   UNL     1       3.282  -1.270  23.066  0.00  0.00    +0.155 HD
BRANCH  25  26
ATOM     26  C   UNL     1       5.323   0.047  22.577  0.00  0.00    +0.255 C 
BRANCH  26   6
ATOM      6  O   UNL     1       5.591  -0.858  23.628  0.00  0.00    -0.374 OA
ATOM     27  C   UNL     1       5.673  -0.197  24.888  0.00  0.00    +0.194 C 
ENDBRANCH  26   6
ENDBRANCH  25  26
ENDBRANCH  22   9
ENDBRANCH  11  13
BRANCH  10  12
ATOM     12  C   UNL     1      -2.746   2.789  22.996  0.00  0.00    +0.181 C 
BRANCH  12   2
ATOM      2  O   UNL     1      -2.883   1.906  21.900  0.00  0.00    -0.393 OA
ATOM     28  H   UNL     1      -3.014   2.450  21.106  0.00  0.00    +0.209 HD
ENDBRANCH  12   2
ENDBRANCH  10  12
BRANCH   7  15
ATOM     15  C   UNL     1      -4.985   3.423  24.780  0.00  0.00    +0.204 C 
BRANCH  15  19
ATOM      4  O   UNL     1      -3.994   5.135  23.427  0.00  0.00    -0.274 OA
ATOM      8  N   UNL     1      -2.966   4.681  25.457  0.00  0.00    -0.306 N 
ATOM     19  C   UNL     1      -3.949   4.491  24.479  0.00  0.00    +0.232 C 
ATOM     23  C   UNL     1      -1.900   5.669  25.314  0.00  0.00    +0.131 C 
ATOM     24  C   UNL     1      -2.935   3.907  26.692  0.00  0.00    +0.131 C 
ENDBRANCH  15  19
ENDBRANCH   7  15
TORSDOF 8
ENDMDL
MODEL 3
REMARK VINA RESULT:       2.0      1.676      3.467
REMARK  Name = 71693482
REMARK  11 active torsions:
REMARK  status: ('A' for Active; 'I' for Inactive)
REMARK    1  A    between atoms: O_2  and  C_12
REMARK    2  A    between atoms: O_6  and  C_26
REMARK    3  A    between atoms: O_6  and  C_27
REMARK    4  A    between atoms: N_7  and  C_15
REMARK    5  A    between atoms: N_8  and  C_23
REMARK    6  A    between atoms: N_8  and  C_24
REMARK    7  A    between atoms: N_9  and  C_22
REMARK    8  A    between atoms: C_10  and  C_12
REMARK    9  A    between atoms: C_11  and  C_13
REMARK   10  A    between atoms: C_15  and  C_19
REMARK   11  A    between atoms: C_25  and  C_26
REMARK                            x       y       z     vdW  Elec       q    Type
REMARK                         _______ _______ _______ _____ _____    ______ ____
ROOT
ATOM      1  O   UNL     1      -1.871   1.977  22.789  0.00  0.00    -0.361 OA
ATOM      3  O   UNL     1      -5.240   2.081  23.944  0.00  0.00    -0.273 OA
ATOM      7  N   UNL     1      -3.419   0.939  24.846  0.00  0.00    -0.283 N 
ATOM     10  C   UNL     1      -1.986   0.572  24.732  0.00  0.00    +0.135 C 
ATOM     11  C   UNL     1      -1.186   1.667  24.002  0.00  0.00    +0.171 C 
ATOM     14  C   UNL     1      -4.032   1.840  23.972  0.00  0.00    +0.242 C 
ATOM     16  C   UNL     1      -3.100   2.608  23.055  0.00  0.00    +0.256 C 
ENDROOT
BRANCH  11  13
ATOM     13  C   UNL     1       0.223   1.261  23.624  0.00  0.00    -0.017 A 
ATOM     17  C   UNL     1       1.287   2.133  23.855  0.00  0.00    +0.008 A 
ATOM     18  C   UNL     1       0.457   0.013  23.046  0.00  0.00    +0.008 A 
ATOM     20  C   UNL     1       2.585   1.758  23.507  0.00  0.00    +0.023 A 
ATOM     21  C   UNL     1       1.755  -0.362  22.698  0.00  0.00    +0.023 A 
ATOM     22  C   UNL     1       2.819   0.510  22.929  0.00  0.00    +0.033 A 
BRANCH  22   9
ATOM      5  O   UNL     1       5.328   0.403  24.585  0.00  0.00    -0.273 OA
ATOM      9  N   UNL     1       4.117   0.135  22.582  0.00  0.00    -0.284 N 
ATOM     25  C   UNL     1       5.255   0.099  23.398  0.00  0.00    +0.243 C 
ATOM     29  H   UNL     1       4.242  -0.150  21.612  0.00  0.00    +0.155 HD
BRANCH  25  26
ATOM     26  C   UNL     1       6.483  -0.368  22.648  0.00  0.00    +0.255 C 
BRANCH  26   6
ATOM      6  O   UNL     1       7.599  -0.294  23.510  0.00  0.00    -0.374 OA
ATOM     27  C   UNL     1       8.827  -0.299  22.789  0.00  0.00    +0.194 C 
ENDBRANCH  26   6
ENDBRANCH  25  26
ENDBRANCH  22   9
ENDBRANCH  11  13
BRANCH  10  12
ATOM     12  C   UNL     1      -1.351   0.256  26.095  0.00  0.00    +0.181 C 
BRANCH  12   2
ATOM      2  O   UNL     1      -0.628  -0.953  25.975  0.00  0.00    -0.393 OA
ATOM     28  H   UNL     1      -0.980  -1.566  26.641  0.00  0.00    +0.209 HD
ENDBRANCH  12   2
ENDBRANCH  10  12
BRANCH   7  15
ATOM     15  C   UNL     1      -4.262   0.154  25.743  0.00  0.00    +0.204 C 
BRANCH  15  19
ATOM      4  O   UNL     1      -3.222  -1.666  26.906  0.00  0.00    -0.274 OA
ATOM      8  N   UNL     1      -3.838  -2.050  24.703  0.00  0.00    -0.306 N 
ATOM     19  C   UNL     1      -3.724  -1.262  25.854  0.00  0.00    +0.232 C 
ATOM     23  C   UNL     1      -3.367  -3.431  24.650  0.00  0.00    +0.131 C 
ATOM     24  C   UNL     1      -4.436  -1.549  23.471  0.00  0.00    +0.131 C 
ENDBRANCH  15  19
ENDBRANCH   7  15
TORSDOF 8
ENDMDL
MODEL 4
REMARK VINA RESULT:       4.2      1.390      2.341
REMARK  Name = 71693482
REMARK  11 active torsions:
REMARK  status: ('A' for Active; 'I' for Inactive)
REMARK    1  A    between atoms: O_2  and  C_12
REMARK    2  A    between atoms: O_6  and  C_26
REMARK    3  A    between atoms: O_6  and  C_27
REMARK    4  A    between atoms: N_7  and  C_15
REMARK    5  A    between atoms: N_8  and  C_23
REMARK    6  A    between atoms: N_8  and  C_24
REMARK    7  A    between atoms: N_9  and  C_22
REMARK    8  A    between atoms: C_10  and  C_12
REMARK    9  A    between atoms: C_11  and  C_13
REMARK   10  A    between atoms: C_15  and  C_19
REMARK   11  A    between atoms: C_25  and  C_26
REMARK                            x       y       z     vdW  Elec       q    Type
REMARK                         _______ _______ _______ _____ _____    ______ ____
ROOT
ATOM      1  O   UNL     1      -1.538   1.766  22.205  0.00  0.00    -0.361 OA
ATOM      3  O   UNL     1      -4.939   2.486  22.982  0.00  0.00    -0.273 OA
ATOM      7  N   UNL     1      -3.312   1.488  24.321  0.00  0.00    -0.283 N 
ATOM     10  C   UNL     1      -1.924   0.980  24.440  0.00  0.00    +0.135 C 
ATOM     11  C   UNL     1      -0.966   1.751  23.513  0.00  0.00    +0.171 C 
ATOM     14  C   UNL     1      -3.769   2.157  23.182  0.00  0.00    +0.242 C 
ATOM     16  C   UNL     1      -2.705   2.552  22.177  0.00  0.00    +0.256 C 
ENDROOT
BRANCH  11  13
ATOM     13  C   UNL     1       0.411   1.132  23.388  0.00  0.00    -0.017 A 
ATOM     17  C   UNL     1       1.547   1.937  23.471  0.00  0.00    +0.008 A 
ATOM     18  C   UNL     1       0.542  -0.242  23.190  0.00  0.00    +0.008 A 
ATOM     20  C   UNL     1       2.815   1.366  23.357  0.00  0.00    +0.023 A 
ATOM     21  C   UNL     1       1.810  -0.812  23.076  0.00  0.00    +0.023 A 
ATOM     22  C   UNL     1       2.947  -0.008  23.159  0.00  0.00    +0.033 A 
BRANCH  22   9
ATOM      5  O   UNL     1       5.535   0.703  24.518  0.00  0.00    -0.273 OA
ATOM      9  N   UNL     1       4.215  -0.578  23.046  0.00  0.00    -0.284 N 
ATOM     25  C   UNL     1       5.393  -0.208  23.708  0.00  0.00    +0.243 C 
ATOM     29  H   UNL     1       4.282  -1.363  22.400  0.00  0.00    +0.155 HD
BRANCH  25  26
ATOM     26  C   UNL     1       6.568  -1.077  23.314  0.00  0.00    +0.255 C 
BRANCH  26   6
ATOM      6  O   UNL     1       7.448  -0.316  22.514  0.00  0.00    -0.374 OA
ATOM     27  C   UNL     1       8.739  -0.204  23.106  0.00  0.00    +0.194 C 
ENDBRANCH  26   6
ENDBRANCH  25  26
ENDBRANCH  22   9
ENDBRANCH  11  13
BRANCH  10  12
ATOM     12  C   UNL     1      -1.413   1.005  25.888  0.00  0.00    +0.181 C 
BRANCH  12   2
ATOM      2  O   UNL     1      -1.024  -0.307  26.242  0.00  0.00    -0.393 OA
ATOM     28  H   UNL     1      -0.832  -0.783  25.417  0.00  0.00    +0.209 HD
ENDBRANCH  12   2
ENDBRANCH  10  12
BRANCH   7  15
ATOM     15  C   UNL     1      -4.290   1.064  25.319  0.00  0.00    +0.204 C 
BRANCH  15  19
ATOM      4  O   UNL     1      -6.586   1.717  25.110  0.00  0.00    -0.274 OA
ATOM      8  N   UNL     1      -5.087   3.363  25.762  0.00  0.00    -0.306 N 
ATOM     19  C   UNL     1      -5.433   2.061  25.383  0.00  0.00    +0.232 C 
ATOM     23  C   UNL     1      -6.073   4.435  25.868  0.00  0.00    +0.131 C 
ATOM     24  C   UNL     1      -3.717   3.745  26.080  0.00  0.00    +0.131 C 
ENDBRANCH  15  19
ENDBRANCH   7  15
TORSDOF 8
ENDMDL
