MODEL 1
REMARK VINA RESULT:       3.2      0.000      0.000
REMARK  Name = 51136915
REMARK  4 active torsions:
REMARK  status: ('A' for Active; 'I' for Inactive)
REMARK    1  A    between atoms: N_3  and  C_9
REMARK    2  A    between atoms: C_10  and  C_18
REMARK    3  A    between atoms: C_19  and  C_20
REMARK    4  A    between atoms: C_24  and  C_25
REMARK                            x       y       z     vdW  Elec       q    Type
REMARK                         _______ _______ _______ _____ _____    ______ ____
ROOT
ATOM      2  O   UNL     1      -2.531   3.128  23.637  0.00  0.00    -0.336 OA
ATOM      4  N   UNL     1      -1.982   0.986  23.992  0.00  0.00    -0.190 NA
ATOM      5  N   UNL     1      -1.147   3.042  23.434  0.00  0.00    -0.056 NA
ATOM     18  C   UNL     1      -2.943   1.875  23.963  0.00  0.00    +0.245 A 
ATOM     19  C   UNL     1      -0.900   1.748  23.661  0.00  0.00    +0.204 A 
ENDROOT
BRANCH  19  20
ATOM      6  N   UNL     1       2.810   1.524  23.544  0.00  0.00    -0.254 NA
ATOM     20  C   UNL     1       0.416   1.186  23.567  0.00  0.00    +0.041 A 
ATOM     21  C   UNL     1       0.601  -0.184  23.414  0.00  0.00    +0.015 A 
ATOM     22  C   UNL     1       1.543   1.989  23.627  0.00  0.00    +0.123 A 
ATOM     23  C   UNL     1       1.889  -0.700  23.325  0.00  0.00    +0.029 A 
ATOM     24  C   UNL     1       2.950   0.188  23.395  0.00  0.00    +0.074 A 
BRANCH  24  25
ATOM      7  N   UNL     1       5.956  -1.993  23.697  0.00  0.00    -0.243 NA
ATOM      8  N   UNL     1       6.610   0.098  22.692  0.00  0.00    -0.243 NA
ATOM     25  C   UNL     1       4.314  -0.277  23.311  0.00  0.00    +0.037 A 
ATOM     26  C   UNL     1       4.692  -1.527  23.757  0.00  0.00    +0.124 A 
ATOM     27  C   UNL     1       5.325   0.500  22.783  0.00  0.00    +0.124 A 
ATOM     28  C   UNL     1       6.852  -1.141  23.161  0.00  0.00    +0.221 A 
ENDBRANCH  24  25
ENDBRANCH  19  20
BRANCH  18  10
ATOM      3  N   UNL     1      -4.687   0.963  25.485  0.00  0.00    -0.288 NA
ATOM     10  C   UNL     1      -4.422   1.702  24.234  0.00  0.00    +0.146 C 
ATOM     11  C   UNL     1      -5.971   1.450  25.990  0.00  0.00    +0.085 C 
ATOM     12  C   UNL     1      -5.156   3.044  24.410  0.00  0.00    +0.030 C 
ATOM     13  C   UNL     1      -5.852   2.944  25.760  0.00  0.00    +0.017 C 
BRANCH   3   9
ATOM      1  O   UNL     1      -3.367  -2.842  24.300  0.00  0.00    -0.380 OA
ATOM      9  C   UNL     1      -4.680  -0.487  25.310  0.00  0.00    +0.062 C 
ATOM     14  C   UNL     1      -3.476  -1.122  26.013  0.00  0.00    +0.047 C 
ATOM     15  C   UNL     1      -4.664  -0.843  23.820  0.00  0.00    +0.047 C 
ATOM     16  C   UNL     1      -3.411  -2.615  25.709  0.00  0.00    +0.161 C 
ATOM     17  C   UNL     1      -4.533  -2.351  23.637  0.00  0.00    +0.161 C 
ENDBRANCH   3   9
ENDBRANCH  18  10
TORSDOF 4
ENDMDL
MODEL 2
REMARK VINA RESULT:       6.4      1.805      3.706
REMARK  Name = 51136915
REMARK  4 active torsions:
REMARK  status: ('A' for Active; 'I' for Inactive)
REMARK    1  A    between atoms: N_3  and  C_9
REMARK    2  A    between atoms: C_10  and  C_18
REMARK    3  A    between atoms: C_19  and  C_20
REMARK    4  A    between atoms: C_24  and  C_25
REMARK                            x       y       z     vdW  Elec       q    Type
REMARK                         _______ _______ _______ _____ _____    ______ ____
ROOT
ATOM      2  O   UNL     1      -4.011  -0.525  24.601  0.00  0.00    -0.336 OA
ATOM      4  N   UNL     1      -2.452   1.053  24.908  0.00  0.00    -0.190 NA
ATOM      5  N   UNL     1      -2.789  -1.111  24.245  0.00  0.00    -0.056 NA
ATOM     18  C   UNL     1      -3.723   0.748  24.979  0.00  0.00    +0.245 A 
ATOM     19  C   UNL     1      -1.919  -0.118  24.454  0.00  0.00    +0.204 A 
ENDROOT
BRANCH  19  20
ATOM      6  N   UNL     1       1.574   0.724  23.495  0.00  0.00    -0.254 NA
ATOM     20  C   UNL     1      -0.512  -0.263  24.217  0.00  0.00    +0.041 A 
ATOM     21  C   UNL     1       0.135  -1.469  24.461  0.00  0.00    +0.015 A 
ATOM     22  C   UNL     1       0.246   0.794  23.740  0.00  0.00    +0.123 A 
ATOM     23  C   UNL     1       1.501  -1.580  24.222  0.00  0.00    +0.029 A 
ATOM     24  C   UNL     1       2.168  -0.465  23.743  0.00  0.00    +0.074 A 
BRANCH  24  25
ATOM      7  N   UNL     1       5.548   0.480  22.491  0.00  0.00    -0.243 NA
ATOM      8  N   UNL     1       5.713  -1.616  23.670  0.00  0.00    -0.243 NA
ATOM     25  C   UNL     1       3.585  -0.506  23.474  0.00  0.00    +0.037 A 
ATOM     26  C   UNL     1       4.227   0.487  22.764  0.00  0.00    +0.124 A 
ATOM     27  C   UNL     1       4.387  -1.544  23.906  0.00  0.00    +0.124 A 
ATOM     28  C   UNL     1       6.221  -0.585  22.967  0.00  0.00    +0.221 A 
ENDBRANCH  24  25
ENDBRANCH  19  20
BRANCH  18  10
ATOM      3  N   UNL     1      -5.106   2.768  24.536  0.00  0.00    -0.288 NA
ATOM     10  C   UNL     1      -4.894   1.602  25.417  0.00  0.00    +0.146 C 
ATOM     11  C   UNL     1      -6.539   3.066  24.583  0.00  0.00    +0.085 C 
ATOM     12  C   UNL     1      -6.231   0.839  25.385  0.00  0.00    +0.030 C 
ATOM     13  C   UNL     1      -7.150   1.681  24.512  0.00  0.00    +0.017 C 
BRANCH   3   9
ATOM      1  O   UNL     1      -1.736   4.986  25.697  0.00  0.00    -0.380 OA
ATOM      9  C   UNL     1      -4.292   3.923  24.903  0.00  0.00    +0.062 C 
ATOM     14  C   UNL     1      -3.143   4.126  23.911  0.00  0.00    +0.047 C 
ATOM     15  C   UNL     1      -3.736   3.753  26.321  0.00  0.00    +0.047 C 
ATOM     16  C   UNL     1      -2.227   5.251  24.383  0.00  0.00    +0.161 C 
ATOM     17  C   UNL     1      -2.788   4.897  26.659  0.00  0.00    +0.161 C 
ENDBRANCH   3   9
ENDBRANCH  18  10
TORSDOF 4
ENDMDL
MODEL 3
REMARK VINA RESULT:       6.5      1.732      3.508
REMARK  Name = 51136915
REMARK  4 active torsions:
REMARK  status: ('A' for Active; 'I' for Inactive)
REMARK    1  A    between atoms: N_3  and  C_9
REMARK    2  A    between atoms: C_10  and  C_18
REMARK    3  A    between atoms: C_19  and  C_20
REMARK    4  A    between atoms: C_24  and  C_25
REMARK                            x       y       z     vdW  Elec       q    Type
REMARK                         _______ _______ _______ _____ _____    ______ ____
ROOT
ATOM      2  O   UNL     1      -1.147   0.597  23.114  0.00  0.00    -0.336 OA
ATOM      4  N   UNL     1       0.150  -0.702  24.397  0.00  0.00    -0.190 NA
ATOM      5  N   UNL     1       0.171   0.832  22.700  0.00  0.00    -0.056 NA
ATOM     18  C   UNL     1      -1.070  -0.318  24.115  0.00  0.00    +0.245 A 
ATOM     19  C   UNL     1       0.877   0.030  23.504  0.00  0.00    +0.204 A 
ENDROOT
BRANCH  19  20
ATOM      6  N   UNL     1       4.424   0.990  22.937  0.00  0.00    -0.254 NA
ATOM     20  C   UNL     1       2.306  -0.063  23.440  0.00  0.00    +0.041 A 
ATOM     21  C   UNL     1       2.965  -1.233  23.800  0.00  0.00    +0.015 A 
ATOM     22  C   UNL     1       3.074   1.011  23.020  0.00  0.00    +0.123 A 
ATOM     23  C   UNL     1       4.352  -1.294  23.728  0.00  0.00    +0.029 A 
ATOM     24  C   UNL     1       5.029  -0.166  23.294  0.00  0.00    +0.074 A 
BRANCH  24  25
ATOM      7  N   UNL     1       8.503  -1.092  22.313  0.00  0.00    -0.243 NA
ATOM      8  N   UNL     1       8.593   0.802  23.801  0.00  0.00    -0.243 NA
ATOM     25  C   UNL     1       6.469  -0.156  23.196  0.00  0.00    +0.037 A 
ATOM     26  C   UNL     1       7.159  -1.069  22.426  0.00  0.00    +0.124 A 
ATOM     27  C   UNL     1       7.246   0.766  23.868  0.00  0.00    +0.124 A 
ATOM     28  C   UNL     1       9.148  -0.142  23.016  0.00  0.00    +0.221 A 
ENDBRANCH  24  25
ENDBRANCH  19  20
BRANCH  18  10
ATOM      3  N   UNL     1      -3.536   0.003  24.204  0.00  0.00    -0.288 NA
ATOM     10  C   UNL     1      -2.381  -0.746  24.739  0.00  0.00    +0.146 C 
ATOM     11  C   UNL     1      -4.688  -0.895  24.294  0.00  0.00    +0.085 C 
ATOM     12  C   UNL     1      -2.713  -2.225  24.467  0.00  0.00    +0.030 C 
ATOM     13  C   UNL     1      -4.097  -2.212  23.833  0.00  0.00    +0.017 C 
BRANCH   3   9
ATOM      1  O   UNL     1      -5.144   3.798  25.001  0.00  0.00    -0.380 OA
ATOM      9  C   UNL     1      -3.770   1.269  24.892  0.00  0.00    +0.062 C 
ATOM     14  C   UNL     1      -5.231   1.392  25.337  0.00  0.00    +0.047 C 
ATOM     15  C   UNL     1      -3.399   2.445  23.983  0.00  0.00    +0.047 C 
ATOM     16  C   UNL     1      -5.489   2.772  25.933  0.00  0.00    +0.161 C 
ATOM     17  C   UNL     1      -3.760   3.766  24.652  0.00  0.00    +0.161 C 
ENDBRANCH   3   9
ENDBRANCH  18  10
TORSDOF 4
ENDMDL
MODEL 4
REMARK VINA RESULT:       6.7      1.762      3.657
REMARK  Name = 51136915
REMARK  4 active torsions:
REMARK  status: ('A' for Active; 'I' for Inactive)
REMARK    1  A    between atoms: N_3  and  C_9
REMARK    2  A    between atoms: C_10  and  C_18
REMARK    3  A    between atoms: C_19  and  C_20
REMARK    4  A    between atoms: C_24  and  C_25
REMARK                            x       y       z     vdW  Elec       q    Type
REMARK                         _______ _______ _______ _____ _____    ______ ____
ROOT
ATOM      2  O   UNL     1      -1.185   0.347  22.912  0.00  0.00    -0.336 OA
ATOM      4  N   UNL     1       0.218  -0.599  24.379  0.00  0.00    -0.190 NA
ATOM      5  N   UNL     1       0.107   0.613  22.442  0.00  0.00    -0.056 NA
ATOM     18  C   UNL     1      -1.030  -0.369  24.056  0.00  0.00    +0.245 A 
ATOM     19  C   UNL     1       0.879   0.022  23.360  0.00  0.00    +0.204 A 
ENDROOT
BRANCH  19  20
ATOM      6  N   UNL     1       4.407  -1.121  23.627  0.00  0.00    -0.254 NA
ATOM     20  C   UNL     1       2.311   0.036  23.289  0.00  0.00    +0.041 A 
ATOM     21  C   UNL     1       2.995   1.158  22.834  0.00  0.00    +0.015 A 
ATOM     22  C   UNL     1       3.056  -1.068  23.669  0.00  0.00    +0.123 A 
ATOM     23  C   UNL     1       4.384   1.142  22.775  0.00  0.00    +0.029 A 
ATOM     24  C   UNL     1       5.037  -0.010  23.180  0.00  0.00    +0.074 A 
BRANCH  24  25
ATOM      7  N   UNL     1       8.631   0.721  23.838  0.00  0.00    -0.243 NA
ATOM      8  N   UNL     1       8.482  -1.168  22.348  0.00  0.00    -0.243 NA
ATOM     25  C   UNL     1       6.477  -0.099  23.146  0.00  0.00    +0.037 A 
ATOM     26  C   UNL     1       7.284   0.772  23.849  0.00  0.00    +0.124 A 
ATOM     27  C   UNL     1       7.138  -1.058  22.405  0.00  0.00    +0.124 A 
ATOM     28  C   UNL     1       9.157  -0.259  23.078  0.00  0.00    +0.221 A 
ENDBRANCH  24  25
ENDBRANCH  19  20
BRANCH  18  10
ATOM      3  N   UNL     1      -3.494  -0.086  24.255  0.00  0.00    -0.288 NA
ATOM     10  C   UNL     1      -2.300  -0.787  24.767  0.00  0.00    +0.146 C 
ATOM     11  C   UNL     1      -4.623  -0.997  24.449  0.00  0.00    +0.085 C 
ATOM     12  C   UNL     1      -2.617  -2.283  24.587  0.00  0.00    +0.030 C 
ATOM     13  C   UNL     1      -4.030  -2.326  24.025  0.00  0.00    +0.017 C 
BRANCH   3   9
ATOM      1  O   UNL     1      -5.113   3.729  24.926  0.00  0.00    -0.380 OA
ATOM      9  C   UNL     1      -3.718   1.210  24.890  0.00  0.00    +0.062 C 
ATOM     14  C   UNL     1      -5.164   1.342  25.379  0.00  0.00    +0.047 C 
ATOM     15  C   UNL     1      -3.390   2.344  23.914  0.00  0.00    +0.047 C 
ATOM     16  C   UNL     1      -5.416   2.746  25.917  0.00  0.00    +0.161 C 
ATOM     17  C   UNL     1      -3.741   3.693  24.532  0.00  0.00    +0.161 C 
ENDBRANCH   3   9
ENDBRANCH  18  10
TORSDOF 4
ENDMDL
