MODEL 1
REMARK VINA RESULT:      -3.3      0.000      0.000
REMARK  Name = 40533467
REMARK  4 active torsions:
REMARK  status: ('A' for Active; 'I' for Inactive)
REMARK    1  A    between atoms: N_5  and  C_20
REMARK    2  A    between atoms: C_17  and  C_19
REMARK    3  A    between atoms: C_20  and  C_21
REMARK    4  A    between atoms: C_20  and  C_22
REMARK                            x       y       z     vdW  Elec       q    Type
REMARK                         _______ _______ _______ _____ _____    ______ ____
ROOT
ATOM      1  O   UNL     1      11.904  -6.770  30.279  0.00  0.00    -0.267 OA
ATOM      2  O   UNL     1      16.792 -10.125  29.213  0.00  0.00    -0.253 OA
ATOM      3  N   UNL     1      16.784  -7.822  29.507  0.00  0.00    -0.285 N 
ATOM      4  N   UNL     1      14.109  -6.874  31.028  0.00  0.00    -0.311 N 
ATOM      5  N   UNL     1      16.151  -8.804  27.451  0.00  0.00    -0.297 N 
ATOM      7  C   UNL     1      15.987  -5.487  29.981  0.00  0.00    +0.027 C 
ATOM      8  C   UNL     1      16.488  -7.002  31.847  0.00  0.00    +0.054 C 
ATOM      9  C   UNL     1      16.632  -5.564  31.358  0.00  0.00    +0.018 C 
ATOM     10  C   UNL     1      16.675  -6.448  28.992  0.00  0.00    +0.114 C 
ATOM     11  C   UNL     1      14.490  -5.784  30.121  0.00  0.00    +0.130 C 
ATOM     12  C   UNL     1      17.251  -7.938  30.894  0.00  0.00    +0.119 C 
ATOM     13  C   UNL     1      15.032  -7.419  31.924  0.00  0.00    +0.027 A 
ATOM     14  C   UNL     1      14.635  -8.328  32.829  0.00  0.00    +0.022 A 
ATOM     15  C   UNL     1      12.754  -7.255  31.027  0.00  0.00    +0.259 A 
ATOM     16  C   UNL     1      16.588  -8.996  28.756  0.00  0.00    +0.302 C 
ATOM     17  C   UNL     1      12.347  -8.304  32.027  0.00  0.00    +0.048 A 
ATOM     18  C   UNL     1      13.273  -8.779  32.873  0.00  0.00    +0.015 A 
ATOM     27  H   UNL     1      15.863  -7.895  27.121  0.00  0.00    +0.150 HD
ENDROOT
BRANCH  17  19
ATOM      6  N   UNL     1       9.412 -10.619  31.667  0.00  0.00    -0.263 NA
ATOM     19  C   UNL     1      10.965  -8.813  32.080  0.00  0.00    +0.005 A 
ATOM     23  C   UNL     1       9.929  -8.024  32.568  0.00  0.00    +0.011 A 
ATOM     24  C   UNL     1      10.657 -10.091  31.646  0.00  0.00    +0.119 A 
ATOM     25  C   UNL     1       8.635  -8.531  32.605  0.00  0.00    +0.020 A 
ATOM     26  C   UNL     1       8.431  -9.823  32.147  0.00  0.00    +0.111 A 
ENDBRANCH  17  19
BRANCH   5  20
ATOM     20  C   UNL     1      15.910  -9.910  26.551  0.00  0.00    +0.068 C 
ATOM     21  C   UNL     1      14.897  -9.518  25.482  0.00  0.00    +0.027 C 
ATOM     22  C   UNL     1      17.218 -10.380  25.927  0.00  0.00    +0.027 C 
ENDBRANCH   5  20
TORSDOF 2
ENDMDL
