MODEL 1
REMARK VINA RESULT:      -2.0      0.000      0.000
REMARK  Name = 38030027
REMARK  8 active torsions:
REMARK  status: ('A' for Active; 'I' for Inactive)
REMARK    1  A    between atoms: C_7  and  C_11
REMARK    2  A    between atoms: C_9  and  C_15
REMARK    3  A    between atoms: C_10  and  C_14
REMARK    4  A    between atoms: C_11  and  C_16
REMARK    5  A    between atoms: C_11  and  C_17
REMARK    6  A    between atoms: C_12  and  C_19
REMARK    7  A    between atoms: C_14  and  C_18
REMARK    8  A    between atoms: C_15  and  C_24
REMARK                            x       y       z     vdW  Elec       q    Type
REMARK                         _______ _______ _______ _____ _____    ______ ____
ROOT
ATOM     14  C   UNL     1      14.046  -6.142  29.924  0.00  0.00    +0.103 C 
ENDROOT
BRANCH  14  18
ATOM      1  O   UNL     1      13.651  -4.988  31.961  0.00  0.00    -0.276 OA
ATOM      2  N   UNL     1      12.157  -6.683  31.416  0.00  0.00    -0.298 N 
ATOM      3  N   UNL     1       9.704  -8.149  31.871  0.00  0.00    -0.297 N 
ATOM      5  N   UNL     1       8.450 -10.094  31.597  0.00  0.00    -0.223 NA
ATOM      6  N   UNL     1       7.526  -8.161  32.702  0.00  0.00    -0.223 NA
ATOM     18  C   UNL     1      13.274  -5.877  31.194  0.00  0.00    +0.216 C 
ATOM     20  C   UNL     1      11.711  -7.737  30.502  0.00  0.00    +0.126 C 
ATOM     21  C   UNL     1      11.354  -6.484  32.620  0.00  0.00    +0.126 C 
ATOM     22  C   UNL     1      10.835  -8.784  31.190  0.00  0.00    +0.127 C 
ATOM     23  C   UNL     1       9.877  -6.785  32.378  0.00  0.00    +0.127 C 
ATOM     25  C   UNL     1       8.505  -8.833  32.066  0.00  0.00    +0.218 A 
ATOM     26  C   UNL     1       7.274 -10.726  31.802  0.00  0.00    +0.116 A 
ATOM     27  C   UNL     1       6.380  -8.852  32.873  0.00  0.00    +0.116 A 
ATOM     28  C   UNL     1       6.195 -10.149  32.440  0.00  0.00    +0.039 A 
ENDBRANCH  14  18
BRANCH  14  10
ATOM      7  C   UNL     1      16.482  -6.763  27.916  0.00  0.00    -0.000 C 
ATOM      8  C   UNL     1      16.445  -5.860  29.158  0.00  0.00    +0.012 C 
ATOM      9  C   UNL     1      16.965  -8.185  28.296  0.00  0.00    +0.029 C 
ATOM     10  C   UNL     1      15.517  -6.414  30.255  0.00  0.00    +0.023 C 
ATOM     12  C   UNL     1      15.754  -7.891  30.499  0.00  0.00    -0.073 C 
ATOM     13  C   UNL     1      16.414  -8.664  29.618  0.00  0.00    -0.023 C 
ATOM     19  C   UNL     1      15.252  -8.451  31.801  0.00  0.00    +0.039 C 
BRANCH   7  11
ATOM     11  C   UNL     1      17.368  -6.129  26.839  0.00  0.00    -0.013 C 
ATOM     16  C   UNL     1      17.064  -6.737  25.473  0.00  0.00    +0.007 C 
ATOM     17  C   UNL     1      17.175  -4.617  26.814  0.00  0.00    +0.007 C 
ENDBRANCH   7  11
BRANCH   9  15
ATOM     15  C   UNL     1      16.616  -9.198  27.200  0.00  0.00    +0.126 C 
BRANCH  15  24
ATOM      4  N   UNL     1      14.468 -10.566  27.833  0.00  0.00    -0.197 NA
ATOM     24  C   UNL     1      15.419  -9.959  27.559  0.00  0.00    +0.063 C 
ENDBRANCH  15  24
ENDBRANCH   9  15
ENDBRANCH  14  10
TORSDOF 5
ENDMDL
MODEL 2
REMARK VINA RESULT:      -0.4     16.130     19.746
REMARK  Name = 38030027
REMARK  8 active torsions:
REMARK  status: ('A' for Active; 'I' for Inactive)
REMARK    1  A    between atoms: C_7  and  C_11
REMARK    2  A    between atoms: C_9  and  C_15
REMARK    3  A    between atoms: C_10  and  C_14
REMARK    4  A    between atoms: C_11  and  C_16
REMARK    5  A    between atoms: C_11  and  C_17
REMARK    6  A    between atoms: C_12  and  C_19
REMARK    7  A    between atoms: C_14  and  C_18
REMARK    8  A    between atoms: C_15  and  C_24
REMARK                            x       y       z     vdW  Elec       q    Type
REMARK                         _______ _______ _______ _____ _____    ______ ____
ROOT
ATOM     14  C   UNL     1      -4.139  -0.092  26.066  0.00  0.00    +0.103 C 
ENDROOT
BRANCH  14  18
ATOM      1  O   UNL     1      -4.007  -2.210  25.000  0.00  0.00    -0.276 OA
ATOM      2  N   UNL     1      -2.152  -0.825  24.800  0.00  0.00    -0.298 N 
ATOM      3  N   UNL     1       0.428  -0.185  23.654  0.00  0.00    -0.297 N 
ATOM      5  N   UNL     1       2.451   0.964  23.785  0.00  0.00    -0.223 NA
ATOM      6  N   UNL     1       1.909  -0.393  21.867  0.00  0.00    -0.223 NA
ATOM     18  C   UNL     1      -3.437  -1.143  25.241  0.00  0.00    +0.216 C 
ATOM     20  C   UNL     1      -1.476   0.443  25.087  0.00  0.00    +0.126 C 
ATOM     21  C   UNL     1      -1.409  -1.788  23.991  0.00  0.00    +0.126 C 
ATOM     22  C   UNL     1       0.044   0.343  24.966  0.00  0.00    +0.127 C 
ATOM     23  C   UNL     1      -0.496  -1.100  22.978  0.00  0.00    +0.127 C 
ATOM     25  C   UNL     1       1.652   0.144  23.076  0.00  0.00    +0.218 A 
ATOM     26  C   UNL     1       3.628   1.261  23.195  0.00  0.00    +0.116 A 
ATOM     27  C   UNL     1       3.103  -0.054  21.337  0.00  0.00    +0.116 A 
ATOM     28  C   UNL     1       4.011   0.777  21.961  0.00  0.00    +0.039 A 
ENDBRANCH  14  18
BRANCH  14  10
ATOM      7  C   UNL     1      -3.603   2.369  24.065  0.00  0.00    -0.000 C 
ATOM      8  C   UNL     1      -4.492   1.131  23.875  0.00  0.00    +0.012 C 
ATOM      9  C   UNL     1      -4.429   3.545  24.642  0.00  0.00    +0.029 C 
ATOM     10  C   UNL     1      -5.141   0.672  25.194  0.00  0.00    +0.023 C 
ATOM     12  C   UNL     1      -5.749   1.832  25.957  0.00  0.00    -0.073 C 
ATOM     13  C   UNL     1      -5.428   3.110  25.687  0.00  0.00    -0.023 C 
ATOM     19  C   UNL     1      -6.769   1.491  27.008  0.00  0.00    +0.039 C 
BRANCH   7  11
ATOM     11  C   UNL     1      -2.938   2.739  22.735  0.00  0.00    -0.013 C 
ATOM     16  C   UNL     1      -2.432   1.485  22.027  0.00  0.00    +0.007 C 
ATOM     17  C   UNL     1      -3.913   3.504  21.847  0.00  0.00    +0.007 C 
ENDBRANCH   7  11
BRANCH   9  15
ATOM     15  C   UNL     1      -3.516   4.627  25.228  0.00  0.00    +0.126 C 
BRANCH  15  24
ATOM      4  N   UNL     1      -1.320   3.569  26.197  0.00  0.00    -0.197 NA
ATOM     24  C   UNL     1      -2.295   4.035  25.774  0.00  0.00    +0.063 C 
ENDBRANCH  15  24
ENDBRANCH   9  15
ENDBRANCH  14  10
TORSDOF 5
ENDMDL
MODEL 3
REMARK VINA RESULT:       0.2      1.369      2.117
REMARK  Name = 38030027
REMARK  8 active torsions:
REMARK  status: ('A' for Active; 'I' for Inactive)
REMARK    1  A    between atoms: C_7  and  C_11
REMARK    2  A    between atoms: C_9  and  C_15
REMARK    3  A    between atoms: C_10  and  C_14
REMARK    4  A    between atoms: C_11  and  C_16
REMARK    5  A    between atoms: C_11  and  C_17
REMARK    6  A    between atoms: C_12  and  C_19
REMARK    7  A    between atoms: C_14  and  C_18
REMARK    8  A    between atoms: C_15  and  C_24
REMARK                            x       y       z     vdW  Elec       q    Type
REMARK                         _______ _______ _______ _____ _____    ______ ____
ROOT
ATOM     14  C   UNL     1      14.050  -6.141  29.927  0.00  0.00    +0.103 C 
ENDROOT
BRANCH  14  18
ATOM      1  O   UNL     1      13.641  -4.983  31.959  0.00  0.00    -0.276 OA
ATOM      2  N   UNL     1      12.164  -6.694  31.418  0.00  0.00    -0.298 N 
ATOM      3  N   UNL     1       9.724  -8.181  31.874  0.00  0.00    -0.297 N 
ATOM      5  N   UNL     1       8.489 -10.139  31.606  0.00  0.00    -0.223 NA
ATOM      6  N   UNL     1       7.545  -8.210  32.702  0.00  0.00    -0.223 NA
ATOM     18  C   UNL     1      13.274  -5.878  31.194  0.00  0.00    +0.216 C 
ATOM     20  C   UNL     1      11.730  -7.756  30.508  0.00  0.00    +0.126 C 
ATOM     21  C   UNL     1      11.357  -6.498  32.620  0.00  0.00    +0.126 C 
ATOM     22  C   UNL     1      10.862  -8.808  31.199  0.00  0.00    +0.127 C 
ATOM     23  C   UNL     1       9.883  -6.813  32.376  0.00  0.00    +0.127 C 
ATOM     25  C   UNL     1       8.531  -8.875  32.070  0.00  0.00    +0.218 A 
ATOM     26  C   UNL     1       7.319 -10.781  31.812  0.00  0.00    +0.116 A 
ATOM     27  C   UNL     1       6.405  -8.911  32.873  0.00  0.00    +0.116 A 
ATOM     28  C   UNL     1       6.233 -10.212  32.446  0.00  0.00    +0.039 A 
ENDBRANCH  14  18
BRANCH  14  10
ATOM      7  C   UNL     1      15.884  -8.655  29.108  0.00  0.00    -0.000 C 
ATOM      8  C   UNL     1      16.226  -7.157  29.118  0.00  0.00    +0.012 C 
ATOM      9  C   UNL     1      16.291  -9.311  30.451  0.00  0.00    +0.029 C 
ATOM     10  C   UNL     1      15.522  -6.406  30.263  0.00  0.00    +0.023 C 
ATOM     12  C   UNL     1      15.654  -7.139  31.582  0.00  0.00    -0.073 C 
ATOM     13  C   UNL     1      16.011  -8.434  31.647  0.00  0.00    -0.023 C 
ATOM     19  C   UNL     1      15.409  -6.336  32.830  0.00  0.00    +0.039 C 
BRANCH   7  11
ATOM     11  C   UNL     1      16.561  -9.334  27.913  0.00  0.00    -0.013 C 
ATOM     16  C   UNL     1      15.920 -10.691  27.639  0.00  0.00    +0.007 C 
ATOM     17  C   UNL     1      16.485  -8.441  26.680  0.00  0.00    +0.007 C 
ENDBRANCH   7  11
BRANCH   9  15
ATOM     15  C   UNL     1      15.597 -10.665  30.637  0.00  0.00    +0.126 C 
BRANCH  15  24
ATOM      4  N   UNL     1      13.481 -10.433  32.169  0.00  0.00    -0.197 NA
ATOM     24  C   UNL     1      14.416 -10.530  31.488  0.00  0.00    +0.063 C 
ENDBRANCH  15  24
ENDBRANCH   9  15
ENDBRANCH  14  10
TORSDOF 5
ENDMDL
MODEL 4
REMARK VINA RESULT:       1.3     15.915     19.112
REMARK  Name = 38030027
REMARK  8 active torsions:
REMARK  status: ('A' for Active; 'I' for Inactive)
REMARK    1  A    between atoms: C_7  and  C_11
REMARK    2  A    between atoms: C_9  and  C_15
REMARK    3  A    between atoms: C_10  and  C_14
REMARK    4  A    between atoms: C_11  and  C_16
REMARK    5  A    between atoms: C_11  and  C_17
REMARK    6  A    between atoms: C_12  and  C_19
REMARK    7  A    between atoms: C_14  and  C_18
REMARK    8  A    between atoms: C_15  and  C_24
REMARK                            x       y       z     vdW  Elec       q    Type
REMARK                         _______ _______ _______ _____ _____    ______ ____
ROOT
ATOM     14  C   UNL     1      -3.651   1.800  22.913  0.00  0.00    +0.103 C 
ENDROOT
BRANCH  14  18
ATOM      1  O   UNL     1      -3.703   0.212  24.678  0.00  0.00    -0.276 OA
ATOM      2  N   UNL     1      -1.613   0.738  23.810  0.00  0.00    -0.298 N 
ATOM      3  N   UNL     1       1.238   0.283  23.602  0.00  0.00    -0.297 N 
ATOM      5  N   UNL     1       3.363   1.082  23.078  0.00  0.00    -0.223 NA
ATOM      6  N   UNL     1       3.024  -1.207  23.755  0.00  0.00    -0.223 NA
ATOM     18  C   UNL     1      -3.003   0.842  23.883  0.00  0.00    +0.216 C 
ATOM     20  C   UNL     1      -0.782   1.487  22.865  0.00  0.00    +0.126 C 
ATOM     21  C   UNL     1      -0.911  -0.173  24.712  0.00  0.00    +0.126 C 
ATOM     22  C   UNL     1       0.673   1.604  23.321  0.00  0.00    +0.127 C 
ATOM     23  C   UNL     1       0.333  -0.775  24.062  0.00  0.00    +0.127 C 
ATOM     25  C   UNL     1       2.604   0.042  23.473  0.00  0.00    +0.218 A 
ATOM     26  C   UNL     1       4.681   0.813  22.962  0.00  0.00    +0.116 A 
ATOM     27  C   UNL     1       4.352  -1.404  23.619  0.00  0.00    +0.116 A 
ATOM     28  C   UNL     1       5.237  -0.423  23.222  0.00  0.00    +0.039 A 
ENDBRANCH  14  18
BRANCH  14  10
ATOM      7  C   UNL     1      -2.079   3.856  24.825  0.00  0.00    -0.000 C 
ATOM      8  C   UNL     1      -3.142   4.136  23.751  0.00  0.00    +0.012 C 
ATOM      9  C   UNL     1      -2.743   3.701  26.215  0.00  0.00    +0.029 C 
ATOM     10  C   UNL     1      -4.196   3.017  23.668  0.00  0.00    +0.023 C 
ATOM     12  C   UNL     1      -4.706   2.621  25.039  0.00  0.00    -0.073 C 
ATOM     13  C   UNL     1      -4.051   2.947  26.167  0.00  0.00    -0.023 C 
ATOM     19  C   UNL     1      -6.014   1.879  25.086  0.00  0.00    +0.039 C 
BRANCH   7  11
ATOM     11  C   UNL     1      -1.027   4.969  24.816  0.00  0.00    -0.013 C 
ATOM     16  C   UNL     1      -0.195   4.906  23.538  0.00  0.00    +0.007 C 
ATOM     17  C   UNL     1      -1.694   6.333  24.960  0.00  0.00    +0.007 C 
ENDBRANCH   7  11
BRANCH   9  15
ATOM     15  C   UNL     1      -1.796   3.018  27.207  0.00  0.00    +0.126 C 
BRANCH  15  24
ATOM      4  N   UNL     1       0.536   2.542  26.104  0.00  0.00    -0.197 NA
ATOM     24  C   UNL     1      -0.499   2.752  26.586  0.00  0.00    +0.063 C 
ENDBRANCH  15  24
ENDBRANCH   9  15
ENDBRANCH  14  10
TORSDOF 5
ENDMDL
