MODEL 1
REMARK VINA RESULT:      15.7      0.000      0.000
REMARK  Name = 11883036
REMARK  10 active torsions:
REMARK  status: ('A' for Active; 'I' for Inactive)
REMARK    1  A    between atoms: O_4  and  C_16
REMARK    2  A    between atoms: O_5  and  C_21
REMARK    3  A    between atoms: N_9  and  C_27
REMARK    4  A    between atoms: C_11  and  C_19
REMARK    5  A    between atoms: C_13  and  C_21
REMARK    6  A    between atoms: C_13  and  C_22
REMARK    7  A    between atoms: C_14  and  C_24
REMARK    8  A    between atoms: C_24  and  C_25
REMARK    9  A    between atoms: C_27  and  C_29
REMARK   10  A    between atoms: C_28  and  C_30
REMARK                            x       y       z     vdW  Elec       q    Type
REMARK                         _______ _______ _______ _____ _____    ______ ____
ROOT
ATOM      1  S   UNL     1       0.367   1.976  26.081  0.00  0.00    -0.057 S 
ATOM      7  O   UNL     1       2.221   0.506  22.072  0.00  0.00    -0.270 OA
ATOM      8  N   UNL     1      -0.055   1.689  23.544  0.00  0.00    -0.229 NA
ATOM     10  N   UNL     1       2.089   0.972  24.378  0.00  0.00    -0.261 N 
ATOM     11  C   UNL     1      -3.689   2.825  24.151  0.00  0.00    -0.019 C 
ATOM     12  C   UNL     1      -3.275   3.762  25.371  0.00  0.00    +0.011 C 
ATOM     13  C   UNL     1      -4.445   4.461  26.165  0.00  0.00    +0.021 C 
ATOM     14  C   UNL     1      -2.392   2.591  23.247  0.00  0.00    +0.054 C 
ATOM     15  C   UNL     1      -4.760   3.544  23.290  0.00  0.00    +0.010 C 
ATOM     16  C   UNL     1      -5.448   5.087  25.155  0.00  0.00    +0.123 C 
ATOM     17  C   UNL     1      -2.222   3.072  26.285  0.00  0.00    +0.049 C 
ATOM     18  C   UNL     1      -5.927   4.100  24.095  0.00  0.00    +0.032 C 
ATOM     19  C   UNL     1      -4.253   1.458  24.607  0.00  0.00    +0.012 C 
ATOM     20  C   UNL     1      -1.198   2.238  24.096  0.00  0.00    +0.058 A 
ATOM     22  C   UNL     1      -3.858   5.625  27.013  0.00  0.00    +0.016 C 
ATOM     23  C   UNL     1      -1.136   2.479  25.453  0.00  0.00    +0.015 A 
ATOM     26  C   UNL     1       0.832   1.501  24.497  0.00  0.00    +0.165 A 
ATOM     28  C   UNL     1       2.701   0.514  23.200  0.00  0.00    +0.255 C 
ATOM     44  H   UNL     1       2.602   0.910  25.253  0.00  0.00    +0.157 HD
ENDROOT
BRANCH  28  30
ATOM      2  F   UNL     1       3.290  -2.123  24.009  0.00  0.00    -0.205 F 
ATOM      3  F   UNL     1       4.965   2.128  22.713  0.00  0.00    -0.205 F 
ATOM     30  C   UNL     1       4.093   0.015  23.357  0.00  0.00    +0.107 A 
ATOM     33  C   UNL     1       4.320  -1.301  23.761  0.00  0.00    +0.138 A 
ATOM     34  C   UNL     1       5.171   0.861  23.102  0.00  0.00    +0.138 A 
ATOM     38  C   UNL     1       5.625  -1.771  23.909  0.00  0.00    +0.039 A 
ATOM     39  C   UNL     1       6.476   0.392  23.249  0.00  0.00    +0.039 A 
ATOM     40  C   UNL     1       6.704  -0.923  23.654  0.00  0.00    +0.006 A 
ENDBRANCH  28  30
BRANCH  16   4
ATOM      4  O   UNL     1      -6.585   5.616  25.836  0.00  0.00    -0.391 OA
ATOM     41  H   UNL     1      -6.620   5.204  26.716  0.00  0.00    +0.210 HD
ENDBRANCH  16   4
BRANCH  13  21
ATOM     21  C   UNL     1      -5.176   3.544  27.169  0.00  0.00    +0.165 C 
BRANCH  21   5
ATOM      5  O   UNL     1      -6.203   2.874  26.473  0.00  0.00    -0.394 OA
ATOM     42  H   UNL     1      -6.956   2.783  27.083  0.00  0.00    +0.209 HD
ENDBRANCH  21   5
ENDBRANCH  13  21
BRANCH  14  24
ATOM     24  C   UNL     1      -2.584   1.587  22.103  0.00  0.00    +0.106 C 
BRANCH  24  25
ATOM      6  O   UNL     1      -3.588  -0.525  22.720  0.00  0.00    -0.276 OA
ATOM      9  N   UNL     1      -1.284  -0.260  22.882  0.00  0.00    -0.311 N 
ATOM     25  C   UNL     1      -2.576   0.158  22.595  0.00  0.00    +0.214 C 
ATOM     43  H   UNL     1      -0.502   0.362  22.705  0.00  0.00    +0.149 HD
BRANCH   9  27
ATOM     27  C   UNL     1      -0.975  -1.583  23.374  0.00  0.00    +0.139 C 
BRANCH  27  29
ATOM     29  C   UNL     1      -1.809  -1.947  24.569  0.00  0.00    -0.030 A 
ATOM     31  C   UNL     1      -2.615  -3.085  24.537  0.00  0.00    +0.005 A 
ATOM     32  C   UNL     1      -1.776  -1.147  25.712  0.00  0.00    +0.005 A 
ATOM     35  C   UNL     1      -3.389  -3.424  25.646  0.00  0.00    +0.000 A 
ATOM     36  C   UNL     1      -2.551  -1.486  26.822  0.00  0.00    +0.000 A 
ATOM     37  C   UNL     1      -3.357  -2.623  26.789  0.00  0.00    +0.000 A 
ENDBRANCH  27  29
ENDBRANCH   9  27
ENDBRANCH  24  25
ENDBRANCH  14  24
TORSDOF 8
ENDMDL
MODEL 2
REMARK VINA RESULT:      18.2      2.551      4.249
REMARK  Name = 11883036
REMARK  10 active torsions:
REMARK  status: ('A' for Active; 'I' for Inactive)
REMARK    1  A    between atoms: O_4  and  C_16
REMARK    2  A    between atoms: O_5  and  C_21
REMARK    3  A    between atoms: N_9  and  C_27
REMARK    4  A    between atoms: C_11  and  C_19
REMARK    5  A    between atoms: C_13  and  C_21
REMARK    6  A    between atoms: C_13  and  C_22
REMARK    7  A    between atoms: C_14  and  C_24
REMARK    8  A    between atoms: C_24  and  C_25
REMARK    9  A    between atoms: C_27  and  C_29
REMARK   10  A    between atoms: C_28  and  C_30
REMARK                            x       y       z     vdW  Elec       q    Type
REMARK                         _______ _______ _______ _____ _____    ______ ____
ROOT
ATOM      1  S   UNL     1      -0.931  -0.962  24.234  0.00  0.00    -0.057 S 
ATOM      7  O   UNL     1       2.829   1.746  23.791  0.00  0.00    -0.270 OA
ATOM      8  N   UNL     1      -0.071   1.477  24.306  0.00  0.00    -0.229 NA
ATOM     10  N   UNL     1       1.557  -0.237  23.838  0.00  0.00    -0.261 N 
ATOM     11  C   UNL     1      -3.733   2.621  24.684  0.00  0.00    -0.019 C 
ATOM     12  C   UNL     1      -4.149   1.295  25.462  0.00  0.00    +0.011 C 
ATOM     13  C   UNL     1      -5.678   1.118  25.808  0.00  0.00    +0.021 C 
ATOM     14  C   UNL     1      -2.153   2.802  24.830  0.00  0.00    +0.054 C 
ATOM     15  C   UNL     1      -4.427   3.843  25.342  0.00  0.00    +0.010 C 
ATOM     16  C   UNL     1      -6.224   2.443  26.412  0.00  0.00    +0.123 C 
ATOM     17  C   UNL     1      -3.502   0.033  24.820  0.00  0.00    +0.049 C 
ATOM     18  C   UNL     1      -5.925   3.664  25.548  0.00  0.00    +0.032 C 
ATOM     19  C   UNL     1      -4.112   2.582  23.184  0.00  0.00    +0.012 C 
ATOM     20  C   UNL     1      -1.432   1.508  24.551  0.00  0.00    +0.058 A 
ATOM     22  C   UNL     1      -5.828   0.018  26.898  0.00  0.00    +0.016 C 
ATOM     23  C   UNL     1      -2.052   0.277  24.569  0.00  0.00    +0.015 A 
ATOM     26  C   UNL     1       0.300   0.229  24.116  0.00  0.00    +0.165 A 
ATOM     28  C   UNL     1       2.726   0.528  23.695  0.00  0.00    +0.255 C 
ATOM     44  H   UNL     1       1.613  -1.245  23.720  0.00  0.00    +0.157 HD
ENDROOT
BRANCH  28  30
ATOM      2  F   UNL     1       4.965   1.646  22.391  0.00  0.00    -0.205 F 
ATOM      3  F   UNL     1       3.028  -2.176  24.440  0.00  0.00    -0.205 F 
ATOM     30  C   UNL     1       3.965  -0.246  23.422  0.00  0.00    +0.107 A 
ATOM     33  C   UNL     1       5.040   0.363  22.773  0.00  0.00    +0.138 A 
ATOM     34  C   UNL     1       4.055  -1.581  23.815  0.00  0.00    +0.138 A 
ATOM     38  C   UNL     1       6.203  -0.363  22.516  0.00  0.00    +0.039 A 
ATOM     39  C   UNL     1       5.217  -2.308  23.559  0.00  0.00    +0.039 A 
ATOM     40  C   UNL     1       6.291  -1.699  22.909  0.00  0.00    +0.006 A 
ENDBRANCH  28  30
BRANCH  16   4
ATOM      4  O   UNL     1      -7.634   2.361  26.617  0.00  0.00    -0.391 OA
ATOM     41  H   UNL     1      -7.842   2.841  27.436  0.00  0.00    +0.210 HD
ENDBRANCH  16   4
BRANCH  13  21
ATOM     21  C   UNL     1      -6.553   0.651  24.625  0.00  0.00    +0.165 C 
BRANCH  21   5
ATOM      5  O   UNL     1      -7.416   1.712  24.281  0.00  0.00    -0.394 OA
ATOM     42  H   UNL     1      -6.884   2.525  24.262  0.00  0.00    +0.209 HD
ENDBRANCH  21   5
ENDBRANCH  13  21
BRANCH  14  24
ATOM     24  C   UNL     1      -1.565   3.961  24.013  0.00  0.00    +0.106 C 
BRANCH  24  25
ATOM      6  O   UNL     1      -0.146   5.829  24.605  0.00  0.00    -0.276 OA
ATOM      9  N   UNL     1       0.261   3.739  25.538  0.00  0.00    -0.311 N 
ATOM     25  C   UNL     1      -0.421   4.639  24.732  0.00  0.00    +0.214 C 
ATOM     43  H   UNL     1      -0.067   2.781  25.614  0.00  0.00    +0.149 HD
BRANCH   9  27
ATOM     27  C   UNL     1       1.404   4.110  26.341  0.00  0.00    +0.139 C 
BRANCH  27  29
ATOM     29  C   UNL     1       1.465   3.331  27.624  0.00  0.00    -0.030 A 
ATOM     31  C   UNL     1       2.631   3.338  28.389  0.00  0.00    +0.005 A 
ATOM     32  C   UNL     1       0.356   2.601  28.050  0.00  0.00    +0.005 A 
ATOM     35  C   UNL     1       2.689   2.616  29.581  0.00  0.00    +0.000 A 
ATOM     36  C   UNL     1       0.413   1.878  29.242  0.00  0.00    +0.000 A 
ATOM     37  C   UNL     1       1.579   1.885  30.007  0.00  0.00    +0.000 A 
ENDBRANCH  27  29
ENDBRANCH   9  27
ENDBRANCH  24  25
ENDBRANCH  14  24
TORSDOF 8
ENDMDL
