MODEL 1
REMARK VINA RESULT:      -2.4      0.000      0.000
REMARK  Name = 75537015
REMARK  2 active torsions:
REMARK  status: ('A' for Active; 'I' for Inactive)
REMARK    1  A    between atoms: N_4  and  C_8
REMARK    2  A    between atoms: C_19  and  C_20
REMARK                            x       y       z     vdW  Elec       q    Type
REMARK                         _______ _______ _______ _____ _____    ______ ____
ROOT
ATOM      1  O   UNL     1       0.547  -2.207  24.690  0.00  0.00    -0.252 OA
ATOM      3  O   UNL     1      -5.578   1.039  25.320  0.00  0.00    -0.275 OA
ATOM      4  N   UNL     1       0.954  -0.120  23.668  0.00  0.00    -0.281 N 
ATOM      5  N   UNL     1      -1.038  -0.473  24.646  0.00  0.00    -0.278 N 
ATOM      6  N   UNL     1      -3.526   0.722  24.282  0.00  0.00    -0.298 N 
ATOM      7  C   UNL     1      -1.077   0.918  24.230  0.00  0.00    +0.112 C 
ATOM      9  C   UNL     1       0.185   1.079  23.386  0.00  0.00    +0.133 C 
ATOM     10  C   UNL     1      -2.380   1.219  23.495  0.00  0.00    +0.132 C 
ATOM     13  C   UNL     1      -2.171  -1.046  25.352  0.00  0.00    +0.128 C 
ATOM     14  C   UNL     1       0.198  -1.075  24.378  0.00  0.00    +0.305 C 
ATOM     15  C   UNL     1      -3.466  -0.709  24.616  0.00  0.00    +0.127 C 
ATOM     19  C   UNL     1      -4.620   1.485  24.684  0.00  0.00    +0.219 C 
ENDROOT
BRANCH  19  20
ATOM      2  O   UNL     1      -3.330   4.595  26.298  0.00  0.00    -0.380 OA
ATOM     20  C   UNL     1      -4.601   2.937  24.305  0.00  0.00    +0.079 C 
ATOM     21  C   UNL     1      -3.159   3.427  24.176  0.00  0.00    +0.041 C 
ATOM     22  C   UNL     1      -5.394   3.775  25.307  0.00  0.00    +0.041 C 
ATOM     23  C   UNL     1      -2.524   3.700  25.535  0.00  0.00    +0.160 C 
ATOM     24  C   UNL     1      -4.612   4.042  26.589  0.00  0.00    +0.160 C 
ENDBRANCH  19  20
BRANCH   4   8
ATOM      8  C   UNL     1       2.282  -0.318  23.142  0.00  0.00    +0.078 C 
ATOM     11  C   UNL     1       3.090  -1.241  24.057  0.00  0.00    +0.022 C 
ATOM     12  C   UNL     1       2.990   1.024  22.939  0.00  0.00    +0.022 C 
ATOM     16  C   UNL     1       4.519  -1.424  23.552  0.00  0.00    +0.002 C 
ATOM     17  C   UNL     1       4.418   0.837  22.434  0.00  0.00    +0.002 C 
ATOM     18  C   UNL     1       5.221  -0.085  23.347  0.00  0.00    +0.000 C 
ENDBRANCH   4   8
TORSDOF 2
ENDMDL
MODEL 2
REMARK VINA RESULT:      -1.2     16.934     17.931
REMARK  Name = 75537015
REMARK  2 active torsions:
REMARK  status: ('A' for Active; 'I' for Inactive)
REMARK    1  A    between atoms: N_4  and  C_8
REMARK    2  A    between atoms: C_19  and  C_20
REMARK                            x       y       z     vdW  Elec       q    Type
REMARK                         _______ _______ _______ _____ _____    ______ ____
ROOT
ATOM      1  O   UNL     1      -4.636 -10.330  13.772  0.00  0.00    -0.252 OA
ATOM      3  O   UNL     1     -10.719  -9.908  10.415  0.00  0.00    -0.275 OA
ATOM      4  N   UNL     1      -3.981  -9.820  11.564  0.00  0.00    -0.281 N 
ATOM      5  N   UNL     1      -6.174  -9.879  12.053  0.00  0.00    -0.278 N 
ATOM      6  N   UNL     1      -8.424 -10.253  10.458  0.00  0.00    -0.298 N 
ATOM      7  C   UNL     1      -6.119  -9.430  10.673  0.00  0.00    +0.112 C 
ATOM      9  C   UNL     1      -4.650  -9.600  10.294  0.00  0.00    +0.133 C 
ATOM     10  C   UNL     1      -7.097 -10.226   9.814  0.00  0.00    +0.132 C 
ATOM     13  C   UNL     1      -7.457 -10.006  12.719  0.00  0.00    +0.128 C 
ATOM     14  C   UNL     1      -4.899 -10.042  12.611  0.00  0.00    +0.305 C 
ATOM     15  C   UNL     1      -8.429 -10.781  11.831  0.00  0.00    +0.127 C 
ATOM     19  C   UNL     1      -9.619  -9.852   9.863  0.00  0.00    +0.219 C 
ENDROOT
BRANCH  19  20
ATOM      2  O   UNL     1      -9.332  -6.444   8.366  0.00  0.00    -0.380 OA
ATOM     20  C   UNL     1      -9.525  -9.323   8.462  0.00  0.00    +0.079 C 
ATOM     21  C   UNL     1      -8.199  -8.589   8.265  0.00  0.00    +0.041 C 
ATOM     22  C   UNL     1     -10.719  -8.428   8.134  0.00  0.00    +0.041 C 
ATOM     23  C   UNL     1      -8.225  -7.189   8.868  0.00  0.00    +0.160 C 
ATOM     24  C   UNL     1     -10.580  -7.030   8.730  0.00  0.00    +0.160 C 
ENDBRANCH  19  20
BRANCH   4   8
ATOM      8  C   UNL     1      -2.546  -9.926  11.664  0.00  0.00    +0.078 C 
ATOM     11  C   UNL     1      -2.098  -9.792  13.120  0.00  0.00    +0.022 C 
ATOM     12  C   UNL     1      -1.862  -8.887  10.772  0.00  0.00    +0.022 C 
ATOM     16  C   UNL     1      -0.578  -9.847  13.249  0.00  0.00    +0.002 C 
ATOM     17  C   UNL     1      -0.343  -8.945  10.903  0.00  0.00    +0.002 C 
ATOM     18  C   UNL     1       0.102  -8.812  12.357  0.00  0.00    +0.000 C 
ENDBRANCH   4   8
TORSDOF 2
ENDMDL
MODEL 3
REMARK VINA RESULT:       1.4     16.408     17.401
REMARK  Name = 75537015
REMARK  2 active torsions:
REMARK  status: ('A' for Active; 'I' for Inactive)
REMARK    1  A    between atoms: N_4  and  C_8
REMARK    2  A    between atoms: C_19  and  C_20
REMARK                            x       y       z     vdW  Elec       q    Type
REMARK                         _______ _______ _______ _____ _____    ______ ____
ROOT
ATOM      1  O   UNL     1      -2.423  -9.795  13.881  0.00  0.00    -0.252 OA
ATOM      3  O   UNL     1      -8.578 -10.242  10.661  0.00  0.00    -0.275 OA
ATOM      4  N   UNL     1      -1.897  -9.191  11.662  0.00  0.00    -0.281 N 
ATOM      5  N   UNL     1      -4.047  -9.565  12.198  0.00  0.00    -0.278 N 
ATOM      6  N   UNL     1      -6.256 -10.254  10.651  0.00  0.00    -0.298 N 
ATOM      7  C   UNL     1      -4.088  -9.109  10.820  0.00  0.00    +0.112 C 
ATOM      9  C   UNL     1      -2.619  -9.066  10.408  0.00  0.00    +0.133 C 
ATOM     10  C   UNL     1      -4.961 -10.036   9.978  0.00  0.00    +0.132 C 
ATOM     13  C   UNL     1      -5.284  -9.877  12.892  0.00  0.00    +0.128 C 
ATOM     14  C   UNL     1      -2.750  -9.545  12.727  0.00  0.00    +0.305 C 
ATOM     15  C   UNL     1      -6.155 -10.781  12.021  0.00  0.00    +0.127 C 
ATOM     19  C   UNL     1      -7.509 -10.027  10.085  0.00  0.00    +0.219 C 
ENDROOT
BRANCH  19  20
ATOM      2  O   UNL     1      -9.052  -7.049   8.444  0.00  0.00    -0.380 OA
ATOM     20  C   UNL     1      -7.523  -9.486   8.685  0.00  0.00    +0.079 C 
ATOM     21  C   UNL     1      -6.874  -8.103   8.649  0.00  0.00    +0.041 C 
ATOM     22  C   UNL     1      -8.945  -9.457   8.124  0.00  0.00    +0.041 C 
ATOM     23  C   UNL     1      -7.816  -7.016   9.155  0.00  0.00    +0.160 C 
ATOM     24  C   UNL     1      -9.753  -8.274   8.649  0.00  0.00    +0.160 C 
ENDBRANCH  19  20
BRANCH   4   8
ATOM      8  C   UNL     1      -0.460  -9.091  11.730  0.00  0.00    +0.078 C 
ATOM     11  C   UNL     1      -0.045  -7.896  12.591  0.00  0.00    +0.022 C 
ATOM     12  C   UNL     1       0.144  -9.003  10.326  0.00  0.00    +0.022 C 
ATOM     16  C   UNL     1       1.472  -7.734  12.636  0.00  0.00    +0.002 C 
ATOM     17  C   UNL     1       1.661  -8.841  10.375  0.00  0.00    +0.002 C 
ATOM     18  C   UNL     1       2.072  -7.650  11.235  0.00  0.00    +0.000 C 
ENDBRANCH   4   8
TORSDOF 2
ENDMDL
