MODEL 1
REMARK VINA RESULT:       3.2      0.000      0.000
REMARK  Name = 45784365
REMARK  17 active torsions:
REMARK  status: ('A' for Active; 'I' for Inactive)
REMARK    1  A    between atoms: O_1  and  C_11
REMARK    2  A    between atoms: O_4  and  C_28
REMARK    3  A    between atoms: O_4  and  C_35
REMARK    4  A    between atoms: O_5  and  C_29
REMARK    5  A    between atoms: O_5  and  C_36
REMARK    6  A    between atoms: N_6  and  C_15
REMARK    7  A    between atoms: N_7  and  C_25
REMARK    8  A    between atoms: N_7  and  C_26
REMARK    9  A    between atoms: C_8  and  C_18
REMARK   10  A    between atoms: C_10  and  C_20
REMARK   11  A    between atoms: C_13  and  C_19
REMARK   12  A    between atoms: C_19  and  C_21
REMARK   13  A    between atoms: C_19  and  C_22
REMARK   14  A    between atoms: C_23  and  C_24
REMARK   15  A    between atoms: C_24  and  C_27
REMARK   16  A    between atoms: C_25  and  C_28
REMARK   17  A    between atoms: C_26  and  C_29
REMARK                            x       y       z     vdW  Elec       q    Type
REMARK                         _______ _______ _______ _____ _____    ______ ____
ROOT
ATOM      8  C   UNL     1      -2.114  -0.759  25.244  0.00  0.00    -0.027 C 
ATOM      9  C   UNL     1      -2.251   0.360  24.159  0.00  0.00    +0.028 C 
ATOM     10  C   UNL     1      -0.838   0.861  23.690  0.00  0.00    +0.012 C 
ATOM     11  C   UNL     1      -3.236   1.474  24.620  0.00  0.00    +0.122 C 
ATOM     12  C   UNL     1      -3.516  -1.307  25.600  0.00  0.00    +0.007 C 
ATOM     13  C   UNL     1      -4.602   0.910  25.074  0.00  0.00    +0.029 C 
ATOM     14  C   UNL     1      -1.287  -1.928  24.660  0.00  0.00    +0.009 C 
ATOM     15  C   UNL     1       0.013  -0.334  23.176  0.00  0.00    +0.076 C 
ATOM     16  C   UNL     1      -4.471  -0.226  26.089  0.00  0.00    +0.007 C 
ATOM     17  C   UNL     1       0.087  -1.497  24.164  0.00  0.00    +0.023 C 
ATOM     18  C   UNL     1      -1.435  -0.250  26.541  0.00  0.00    +0.011 C 
ATOM     20  C   UNL     1      -0.898   1.945  22.602  0.00  0.00    +0.010 C 
ENDROOT
BRANCH  15   6
ATOM      3  O   UNL     1       1.350  -0.694  20.653  0.00  0.00    -0.275 OA
ATOM      6  N   UNL     1       1.362   0.073  22.844  0.00  0.00    -0.312 N 
ATOM     23  C   UNL     1       1.919  -0.147  21.594  0.00  0.00    +0.218 C 
ATOM     37  H   UNL     1       1.929   0.476  23.584  0.00  0.00    +0.149 HD
BRANCH  23  24
ATOM     24  C   UNL     1       3.338   0.383  21.520  0.00  0.00    +0.130 C 
BRANCH  24  27
ATOM     27  C   UNL     1       4.194  -0.038  22.686  0.00  0.00    -0.039 A 
ATOM     30  C   UNL     1       4.126  -1.347  23.164  0.00  0.00    +0.004 A 
ATOM     31  C   UNL     1       5.053   0.880  23.289  0.00  0.00    +0.004 A 
ATOM     32  C   UNL     1       4.918  -1.737  24.244  0.00  0.00    +0.000 A 
ATOM     33  C   UNL     1       5.845   0.490  24.369  0.00  0.00    +0.000 A 
ATOM     34  C   UNL     1       5.777  -0.819  24.846  0.00  0.00    +0.000 A 
ENDBRANCH  24  27
ENDBRANCH  23  24
ENDBRANCH  15   6
BRANCH  11   1
ATOM      1  O   UNL     1      -3.501   2.357  23.530  0.00  0.00    -0.391 OA
ATOM     38  H   UNL     1      -4.241   1.991  23.017  0.00  0.00    +0.210 HD
ENDBRANCH  11   1
BRANCH  13  19
ATOM     19  C   UNL     1      -5.509   2.006  25.647  0.00  0.00    +0.078 C 
ATOM     21  C   UNL     1      -6.926   1.832  25.098  0.00  0.00    +0.017 C 
BRANCH  19  22
ATOM      2  O   UNL     1      -5.463   4.034  24.375  0.00  0.00    -0.275 OA
ATOM      7  N   UNL     1      -3.842   3.845  26.015  0.00  0.00    -0.297 N 
ATOM     22  C   UNL     1      -4.946   3.383  25.290  0.00  0.00    +0.219 C 
BRANCH   7  25
ATOM     25  C   UNL     1      -3.268   5.144  25.684  0.00  0.00    +0.136 C 
BRANCH  25  28
ATOM     28  C   UNL     1      -2.334   5.055  24.491  0.00  0.00    +0.178 C 
BRANCH  28   4
ATOM      4  O   UNL     1      -1.045   5.523  24.864  0.00  0.00    -0.381 OA
ATOM     35  C   UNL     1      -0.033   4.995  24.017  0.00  0.00    +0.194 C 
ENDBRANCH  28   4
ENDBRANCH  25  28
ENDBRANCH   7  25
BRANCH   7  26
ATOM     26  C   UNL     1      -3.195   3.157  27.130  0.00  0.00    +0.136 C 
BRANCH  26  29
ATOM     29  C   UNL     1      -1.721   3.506  27.221  0.00  0.00    +0.178 C 
BRANCH  29   5
ATOM      5  O   UNL     1      -0.976   2.634  26.381  0.00  0.00    -0.381 OA
ATOM     36  C   UNL     1       0.409   2.661  26.698  0.00  0.00    +0.194 C 
ENDBRANCH  29   5
ENDBRANCH  26  29
ENDBRANCH   7  26
ENDBRANCH  19  22
ENDBRANCH  13  19
TORSDOF 12
ENDMDL
MODEL 2
REMARK VINA RESULT:       4.3      1.094      1.470
REMARK  Name = 45784365
REMARK  17 active torsions:
REMARK  status: ('A' for Active; 'I' for Inactive)
REMARK    1  A    between atoms: O_1  and  C_11
REMARK    2  A    between atoms: O_4  and  C_28
REMARK    3  A    between atoms: O_4  and  C_35
REMARK    4  A    between atoms: O_5  and  C_29
REMARK    5  A    between atoms: O_5  and  C_36
REMARK    6  A    between atoms: N_6  and  C_15
REMARK    7  A    between atoms: N_7  and  C_25
REMARK    8  A    between atoms: N_7  and  C_26
REMARK    9  A    between atoms: C_8  and  C_18
REMARK   10  A    between atoms: C_10  and  C_20
REMARK   11  A    between atoms: C_13  and  C_19
REMARK   12  A    between atoms: C_19  and  C_21
REMARK   13  A    between atoms: C_19  and  C_22
REMARK   14  A    between atoms: C_23  and  C_24
REMARK   15  A    between atoms: C_24  and  C_27
REMARK   16  A    between atoms: C_25  and  C_28
REMARK   17  A    between atoms: C_26  and  C_29
REMARK                            x       y       z     vdW  Elec       q    Type
REMARK                         _______ _______ _______ _____ _____    ______ ____
ROOT
ATOM      8  C   UNL     1      -1.878  -1.147  25.555  0.00  0.00    -0.027 C 
ATOM      9  C   UNL     1      -2.114   0.003  24.520  0.00  0.00    +0.028 C 
ATOM     10  C   UNL     1      -0.748   0.560  23.981  0.00  0.00    +0.012 C 
ATOM     11  C   UNL     1      -3.097   1.071  25.081  0.00  0.00    +0.122 C 
ATOM     12  C   UNL     1      -3.239  -1.748  25.978  0.00  0.00    +0.007 C 
ATOM     13  C   UNL     1      -4.416   0.453  25.600  0.00  0.00    +0.029 C 
ATOM     14  C   UNL     1      -1.058  -2.271  24.880  0.00  0.00    +0.009 C 
ATOM     15  C   UNL     1       0.100  -0.592  23.373  0.00  0.00    +0.076 C 
ATOM     16  C   UNL     1      -4.190  -0.712  26.564  0.00  0.00    +0.007 C 
ATOM     17  C   UNL     1       0.269  -1.785  24.314  0.00  0.00    +0.023 C 
ATOM     18  C   UNL     1      -1.132  -0.662  26.823  0.00  0.00    +0.011 C 
ATOM     20  C   UNL     1      -0.907   1.677  22.937  0.00  0.00    +0.010 C 
ENDROOT
BRANCH  15   6
ATOM      3  O   UNL     1       1.207  -0.647  20.717  0.00  0.00    -0.275 OA
ATOM      6  N   UNL     1       1.414  -0.135  22.972  0.00  0.00    -0.312 N 
ATOM     23  C   UNL     1       1.858  -0.205  21.660  0.00  0.00    +0.218 C 
ATOM     37  H   UNL     1       2.044   0.187  23.700  0.00  0.00    +0.149 HD
BRANCH  23  24
ATOM     24  C   UNL     1       3.264   0.346  21.522  0.00  0.00    +0.130 C 
BRANCH  24  27
ATOM     27  C   UNL     1       4.163  -0.020  22.673  0.00  0.00    -0.039 A 
ATOM     30  C   UNL     1       4.168  -1.325  23.168  0.00  0.00    +0.004 A 
ATOM     31  C   UNL     1       4.993   0.945  23.246  0.00  0.00    +0.004 A 
ATOM     32  C   UNL     1       5.001  -1.664  24.234  0.00  0.00    +0.000 A 
ATOM     33  C   UNL     1       5.825   0.605  24.312  0.00  0.00    +0.000 A 
ATOM     34  C   UNL     1       5.829  -0.699  24.806  0.00  0.00    +0.000 A 
ENDBRANCH  24  27
ENDBRANCH  23  24
ENDBRANCH  15   6
BRANCH  11   1
ATOM      1  O   UNL     1      -3.455   1.982  24.040  0.00  0.00    -0.391 OA
ATOM     38  H   UNL     1      -4.389   1.832  23.816  0.00  0.00    +0.210 HD
ENDBRANCH  11   1
BRANCH  13  19
ATOM     19  C   UNL     1      -5.315   1.502  26.266  0.00  0.00    +0.078 C 
ATOM     21  C   UNL     1      -6.631   0.849  26.692  0.00  0.00    +0.017 C 
BRANCH  19  22
ATOM      2  O   UNL     1      -6.380   2.521  24.380  0.00  0.00    -0.275 OA
ATOM      7  N   UNL     1      -4.832   3.837  25.486  0.00  0.00    -0.297 N 
ATOM     22  C   UNL     1      -5.564   2.660  25.297  0.00  0.00    +0.219 C 
BRANCH   7  25
ATOM     25  C   UNL     1      -5.030   4.952  24.566  0.00  0.00    +0.136 C 
BRANCH  25  28
ATOM     28  C   UNL     1      -4.000   4.947  23.451  0.00  0.00    +0.178 C 
BRANCH  28   4
ATOM      4  O   UNL     1      -4.008   3.680  22.808  0.00  0.00    -0.381 OA
ATOM     35  C   UNL     1      -4.059   3.813  21.394  0.00  0.00    +0.194 C 
ENDBRANCH  28   4
ENDBRANCH  25  28
ENDBRANCH   7  25
BRANCH   7  26
ATOM     26  C   UNL     1      -3.877   4.096  26.562  0.00  0.00    +0.136 C 
BRANCH  26  29
ATOM     29  C   UNL     1      -2.631   4.793  26.047  0.00  0.00    +0.178 C 
BRANCH  29   5
ATOM      5  O   UNL     1      -1.643   3.821  25.731  0.00  0.00    -0.381 OA
ATOM     36  C   UNL     1      -0.598   4.375  24.944  0.00  0.00    +0.194 C 
ENDBRANCH  29   5
ENDBRANCH  26  29
ENDBRANCH   7  26
ENDBRANCH  19  22
ENDBRANCH  13  19
TORSDOF 12
ENDMDL
MODEL 3
REMARK VINA RESULT:       4.9      0.943      1.700
REMARK  Name = 45784365
REMARK  17 active torsions:
REMARK  status: ('A' for Active; 'I' for Inactive)
REMARK    1  A    between atoms: O_1  and  C_11
REMARK    2  A    between atoms: O_4  and  C_28
REMARK    3  A    between atoms: O_4  and  C_35
REMARK    4  A    between atoms: O_5  and  C_29
REMARK    5  A    between atoms: O_5  and  C_36
REMARK    6  A    between atoms: N_6  and  C_15
REMARK    7  A    between atoms: N_7  and  C_25
REMARK    8  A    between atoms: N_7  and  C_26
REMARK    9  A    between atoms: C_8  and  C_18
REMARK   10  A    between atoms: C_10  and  C_20
REMARK   11  A    between atoms: C_13  and  C_19
REMARK   12  A    between atoms: C_19  and  C_21
REMARK   13  A    between atoms: C_19  and  C_22
REMARK   14  A    between atoms: C_23  and  C_24
REMARK   15  A    between atoms: C_24  and  C_27
REMARK   16  A    between atoms: C_25  and  C_28
REMARK   17  A    between atoms: C_26  and  C_29
REMARK                            x       y       z     vdW  Elec       q    Type
REMARK                         _______ _______ _______ _____ _____    ______ ____
ROOT
ATOM      8  C   UNL     1      -2.321  -0.955  25.235  0.00  0.00    -0.027 C 
ATOM      9  C   UNL     1      -2.485   0.106  24.097  0.00  0.00    +0.028 C 
ATOM     10  C   UNL     1      -1.099   0.741  23.719  0.00  0.00    +0.012 C 
ATOM     11  C   UNL     1      -3.615   1.123  24.434  0.00  0.00    +0.122 C 
ATOM     12  C   UNL     1      -3.682  -1.638  25.504  0.00  0.00    +0.007 C 
ATOM     13  C   UNL     1      -4.947   0.430  24.803  0.00  0.00    +0.029 C 
ATOM     14  C   UNL     1      -1.331  -2.047  24.767  0.00  0.00    +0.009 C 
ATOM     15  C   UNL     1      -0.089  -0.372  23.322  0.00  0.00    +0.076 C 
ATOM     16  C   UNL     1      -4.782  -0.651  25.871  0.00  0.00    +0.007 C 
ATOM     17  C   UNL     1       0.026  -1.488  24.361  0.00  0.00    +0.023 C 
ATOM     18  C   UNL     1      -1.807  -0.333  26.558  0.00  0.00    +0.011 C 
ATOM     20  C   UNL     1      -1.183   1.775  22.585  0.00  0.00    +0.010 C 
ENDROOT
BRANCH  15   6
ATOM      3  O   UNL     1       1.441  -0.589  20.894  0.00  0.00    -0.275 OA
ATOM      6  N   UNL     1       1.234   0.166  23.080  0.00  0.00    -0.312 N 
ATOM     23  C   UNL     1       1.891   0.007  21.870  0.00  0.00    +0.218 C 
ATOM     37  H   UNL     1       1.708   0.619  23.855  0.00  0.00    +0.149 HD
BRANCH  23  24
ATOM     24  C   UNL     1       3.253   0.674  21.889  0.00  0.00    +0.130 C 
BRANCH  24  27
ATOM     27  C   UNL     1       4.203   0.060  22.882  0.00  0.00    -0.039 A 
ATOM     30  C   UNL     1       4.047  -1.273  23.266  0.00  0.00    +0.004 A 
ATOM     31  C   UNL     1       5.240   0.822  23.420  0.00  0.00    +0.004 A 
ATOM     32  C   UNL     1       4.927  -1.842  24.186  0.00  0.00    +0.000 A 
ATOM     33  C   UNL     1       6.120   0.253  24.340  0.00  0.00    +0.000 A 
ATOM     34  C   UNL     1       5.964  -1.079  24.723  0.00  0.00    +0.000 A 
ENDBRANCH  24  27
ENDBRANCH  23  24
ENDBRANCH  15   6
BRANCH  11   1
ATOM      1  O   UNL     1      -3.881   1.935  23.290  0.00  0.00    -0.391 OA
ATOM     38  H   UNL     1      -4.555   2.591  23.536  0.00  0.00    +0.210 HD
ENDBRANCH  11   1
BRANCH  13  19
ATOM     19  C   UNL     1      -6.008   1.441  25.257  0.00  0.00    +0.078 C 
ATOM     21  C   UNL     1      -6.566   2.176  24.038  0.00  0.00    +0.017 C 
BRANCH  19  22
ATOM      2  O   UNL     1      -5.616   2.279  27.465  0.00  0.00    -0.275 OA
ATOM      7  N   UNL     1      -4.609   3.464  25.752  0.00  0.00    -0.297 N 
ATOM     22  C   UNL     1      -5.394   2.422  26.258  0.00  0.00    +0.219 C 
BRANCH   7  25
ATOM     25  C   UNL     1      -4.027   4.429  26.678  0.00  0.00    +0.136 C 
BRANCH  25  28
ATOM     28  C   UNL     1      -2.726   3.919  27.271  0.00  0.00    +0.178 C 
BRANCH  28   4
ATOM      4  O   UNL     1      -2.139   2.978  26.383  0.00  0.00    -0.381 OA
ATOM     35  C   UNL     1      -0.721   2.990  26.471  0.00  0.00    +0.194 C 
ENDBRANCH  28   4
ENDBRANCH  25  28
ENDBRANCH   7  25
BRANCH   7  26
ATOM     26  C   UNL     1      -4.269   3.683  24.348  0.00  0.00    +0.136 C 
BRANCH  26  29
ATOM     29  C   UNL     1      -3.511   4.984  24.155  0.00  0.00    +0.178 C 
BRANCH  29   5
ATOM      5  O   UNL     1      -2.130   4.702  23.967  0.00  0.00    -0.381 OA
ATOM     36  C   UNL     1      -1.308   5.656  24.625  0.00  0.00    +0.194 C 
ENDBRANCH  29   5
ENDBRANCH  26  29
ENDBRANCH   7  26
ENDBRANCH  19  22
ENDBRANCH  13  19
TORSDOF 12
ENDMDL
MODEL 4
REMARK VINA RESULT:       7.1      1.500      2.387
REMARK  Name = 45784365
REMARK  17 active torsions:
REMARK  status: ('A' for Active; 'I' for Inactive)
REMARK    1  A    between atoms: O_1  and  C_11
REMARK    2  A    between atoms: O_4  and  C_28
REMARK    3  A    between atoms: O_4  and  C_35
REMARK    4  A    between atoms: O_5  and  C_29
REMARK    5  A    between atoms: O_5  and  C_36
REMARK    6  A    between atoms: N_6  and  C_15
REMARK    7  A    between atoms: N_7  and  C_25
REMARK    8  A    between atoms: N_7  and  C_26
REMARK    9  A    between atoms: C_8  and  C_18
REMARK   10  A    between atoms: C_10  and  C_20
REMARK   11  A    between atoms: C_13  and  C_19
REMARK   12  A    between atoms: C_19  and  C_21
REMARK   13  A    between atoms: C_19  and  C_22
REMARK   14  A    between atoms: C_23  and  C_24
REMARK   15  A    between atoms: C_24  and  C_27
REMARK   16  A    between atoms: C_25  and  C_28
REMARK   17  A    between atoms: C_26  and  C_29
REMARK                            x       y       z     vdW  Elec       q    Type
REMARK                         _______ _______ _______ _____ _____    ______ ____
ROOT
ATOM      8  C   UNL     1      -3.321  -1.070  25.030  0.00  0.00    -0.027 C 
ATOM      9  C   UNL     1      -2.451   0.173  24.648  0.00  0.00    +0.028 C 
ATOM     10  C   UNL     1      -0.920  -0.151  24.788  0.00  0.00    +0.012 C 
ATOM     11  C   UNL     1      -2.934   1.450  25.395  0.00  0.00    +0.122 C 
ATOM     12  C   UNL     1      -4.813  -0.753  24.774  0.00  0.00    +0.007 C 
ATOM     13  C   UNL     1      -4.449   1.704  25.220  0.00  0.00    +0.029 C 
ATOM     14  C   UNL     1      -2.929  -2.258  24.121  0.00  0.00    +0.009 C 
ATOM     15  C   UNL     1      -0.553  -1.393  23.928  0.00  0.00    +0.076 C 
ATOM     16  C   UNL     1      -5.300   0.473  25.534  0.00  0.00    +0.007 C 
ATOM     17  C   UNL     1      -1.449  -2.603  24.194  0.00  0.00    +0.023 C 
ATOM     18  C   UNL     1      -3.148  -1.484  26.513  0.00  0.00    +0.011 C 
ATOM     20  C   UNL     1      -0.004   1.021  24.400  0.00  0.00    +0.010 C 
ENDROOT
BRANCH  15   6
ATOM      3  O   UNL     1       1.709  -0.616  22.327  0.00  0.00    -0.275 OA
ATOM      6  N   UNL     1       0.826  -1.792  24.123  0.00  0.00    -0.312 N 
ATOM     23  C   UNL     1       1.849  -1.362  23.293  0.00  0.00    +0.218 C 
ATOM     37  H   UNL     1       1.023  -2.460  24.862  0.00  0.00    +0.149 HD
BRANCH  23  24
ATOM     24  C   UNL     1       3.188  -1.925  23.729  0.00  0.00    +0.130 C 
BRANCH  24  27
ATOM     27  C   UNL     1       4.293  -0.902  23.729  0.00  0.00    -0.039 A 
ATOM     30  C   UNL     1       4.059   0.378  23.224  0.00  0.00    +0.004 A 
ATOM     31  C   UNL     1       5.551  -1.233  24.232  0.00  0.00    +0.004 A 
ATOM     32  C   UNL     1       5.084   1.325  23.223  0.00  0.00    +0.000 A 
ATOM     33  C   UNL     1       6.575  -0.286  24.230  0.00  0.00    +0.000 A 
ATOM     34  C   UNL     1       6.341   0.993  23.727  0.00  0.00    +0.000 A 
ENDBRANCH  24  27
ENDBRANCH  23  24
ENDBRANCH  15   6
BRANCH  11   1
ATOM      1  O   UNL     1      -2.265   2.595  24.864  0.00  0.00    -0.391 OA
ATOM     38  H   UNL     1      -2.587   3.380  25.339  0.00  0.00    +0.210 HD
ENDBRANCH  11   1
BRANCH  13  19
ATOM     19  C   UNL     1      -4.930   2.889  26.068  0.00  0.00    +0.078 C 
ATOM     21  C   UNL     1      -6.348   3.275  25.645  0.00  0.00    +0.017 C 
BRANCH  19  22
ATOM      2  O   UNL     1      -3.403   4.533  26.900  0.00  0.00    -0.275 OA
ATOM      7  N   UNL     1      -3.779   4.582  24.618  0.00  0.00    -0.297 N 
ATOM     22  C   UNL     1      -3.967   4.066  25.905  0.00  0.00    +0.219 C 
BRANCH   7  25
ATOM     25  C   UNL     1      -2.884   5.718  24.432  0.00  0.00    +0.136 C 
BRANCH  25  28
ATOM     28  C   UNL     1      -1.638   5.595  25.290  0.00  0.00    +0.178 C 
BRANCH  28   4
ATOM      4  O   UNL     1      -0.821   4.546  24.787  0.00  0.00    -0.381 OA
ATOM     35  C   UNL     1      -0.173   4.922  23.580  0.00  0.00    +0.194 C 
ENDBRANCH  28   4
ENDBRANCH  25  28
ENDBRANCH   7  25
BRANCH   7  26
ATOM     26  C   UNL     1      -4.378   4.068  23.387  0.00  0.00    +0.136 C 
BRANCH  26  29
ATOM     29  C   UNL     1      -3.318   3.653  22.383  0.00  0.00    +0.178 C 
BRANCH  29   5
ATOM      5  O   UNL     1      -3.404   2.253  22.157  0.00  0.00    -0.381 OA
ATOM     36  C   UNL     1      -2.221   1.748  21.552  0.00  0.00    +0.194 C 
ENDBRANCH  29   5
ENDBRANCH  26  29
ENDBRANCH   7  26
ENDBRANCH  19  22
ENDBRANCH  13  19
TORSDOF 12
ENDMDL
