MODEL 1
REMARK VINA RESULT:      -3.9      0.000      0.000
REMARK  Name = 45784189
REMARK  4 active torsions:
REMARK  status: ('A' for Active; 'I' for Inactive)
REMARK    1  A    between atoms: N_3  and  C_9
REMARK    2  A    between atoms: C_5  and  C_10
REMARK    3  A    between atoms: C_9  and  C_11
REMARK    4  A    between atoms: C_18  and  C_23
REMARK                            x       y       z     vdW  Elec       q    Type
REMARK                         _______ _______ _______ _____ _____    ______ ____
ROOT
ATOM      3  N   UNL     1       0.853  -0.531  23.655  0.00  0.00    -0.297 NA
ATOM      5  C   UNL     1      -0.953   0.056  25.031  0.00  0.00    +0.090 C 
ATOM      6  C   UNL     1      -1.249  -1.285  24.337  0.00  0.00    +0.029 C 
ATOM      7  C   UNL     1       0.218   0.652  24.239  0.00  0.00    +0.097 C 
ATOM      8  C   UNL     1      -0.257  -1.360  23.184  0.00  0.00    +0.085 C 
ENDROOT
BRANCH   5  10
ATOM      2  O   UNL     1      -3.362   0.404  25.137  0.00  0.00    -0.439 OA
ATOM      4  N   UNL     1      -2.132   2.305  25.211  0.00  0.00    -0.213 NA
ATOM     10  C   UNL     1      -2.134   0.994  25.131  0.00  0.00    +0.201 A 
ATOM     12  C   UNL     1      -3.468   2.621  25.277  0.00  0.00    +0.110 A 
ATOM     13  C   UNL     1      -4.225   1.459  25.233  0.00  0.00    +0.155 A 
ATOM     16  C   UNL     1      -4.127   3.855  25.377  0.00  0.00    +0.035 A 
ATOM     17  C   UNL     1      -5.612   1.415  25.279  0.00  0.00    +0.049 A 
ATOM     18  C   UNL     1      -5.528   3.851  25.425  0.00  0.00    -0.048 A 
ATOM     19  C   UNL     1      -6.254   2.654  25.378  0.00  0.00    +0.007 A 
ATOM     23  C   UNL     1      -6.259   5.149  25.531  0.00  0.00    +0.044 C 
ENDBRANCH   5  10
BRANCH   3   9
ATOM      9  C   UNL     1       1.783  -0.192  22.587  0.00  0.00    +0.122 C 
BRANCH   9  11
ATOM      1  F   UNL     1       3.527   2.039  22.498  0.00  0.00    -0.205 F 
ATOM     11  C   UNL     1       3.214  -0.248  23.053  0.00  0.00    +0.002 A 
ATOM     14  C   UNL     1       4.018   0.889  22.981  0.00  0.00    +0.128 A 
ATOM     15  C   UNL     1       3.735  -1.439  23.557  0.00  0.00    +0.008 A 
ATOM     20  C   UNL     1       5.344   0.835  23.413  0.00  0.00    +0.038 A 
ATOM     21  C   UNL     1       5.060  -1.493  23.990  0.00  0.00    +0.000 A 
ATOM     22  C   UNL     1       5.865  -0.357  23.917  0.00  0.00    +0.003 A 
ENDBRANCH   9  11
ENDBRANCH   3   9
TORSDOF 3
ENDMDL
MODEL 2
REMARK VINA RESULT:      -2.6      2.812      7.470
REMARK  Name = 45784189
REMARK  4 active torsions:
REMARK  status: ('A' for Active; 'I' for Inactive)
REMARK    1  A    between atoms: N_3  and  C_9
REMARK    2  A    between atoms: C_5  and  C_10
REMARK    3  A    between atoms: C_9  and  C_11
REMARK    4  A    between atoms: C_18  and  C_23
REMARK                            x       y       z     vdW  Elec       q    Type
REMARK                         _______ _______ _______ _____ _____    ______ ____
ROOT
ATOM      3  N   UNL     1      -3.847   1.756  25.036  0.00  0.00    -0.297 NA
ATOM      5  C   UNL     1      -1.662   2.401  24.478  0.00  0.00    +0.090 C 
ATOM      6  C   UNL     1      -2.621   2.797  23.342  0.00  0.00    +0.029 C 
ATOM      7  C   UNL     1      -2.456   1.397  25.325  0.00  0.00    +0.097 C 
ATOM      8  C   UNL     1      -3.884   1.983  23.592  0.00  0.00    +0.085 C 
ENDROOT
BRANCH   5  10
ATOM      2  O   UNL     1      -0.378   0.819  23.141  0.00  0.00    -0.439 OA
ATOM      4  N   UNL     1       0.878   2.257  24.362  0.00  0.00    -0.213 NA
ATOM     10  C   UNL     1      -0.327   1.858  24.021  0.00  0.00    +0.201 A 
ATOM     12  C   UNL     1       1.702   1.417  23.653  0.00  0.00    +0.110 A 
ATOM     13  C   UNL     1       0.937   0.536  22.903  0.00  0.00    +0.155 A 
ATOM     16  C   UNL     1       3.100   1.330  23.581  0.00  0.00    +0.035 A 
ATOM     17  C   UNL     1       1.452  -0.449  22.069  0.00  0.00    +0.049 A 
ATOM     18  C   UNL     1       3.658   0.348  22.750  0.00  0.00    -0.048 A 
ATOM     19  C   UNL     1       2.848  -0.522  22.010  0.00  0.00    +0.007 A 
ATOM     23  C   UNL     1       5.143   0.230  22.653  0.00  0.00    +0.044 C 
ENDBRANCH   5  10
BRANCH   3   9
ATOM      9  C   UNL     1      -4.784   0.726  25.460  0.00  0.00    +0.122 C 
BRANCH   9  11
ATOM      1  F   UNL     1      -3.356  -1.002  27.194  0.00  0.00    -0.205 F 
ATOM     11  C   UNL     1      -4.326  -0.650  25.055  0.00  0.00    +0.002 A 
ATOM     14  C   UNL     1      -3.626  -1.449  25.959  0.00  0.00    +0.128 A 
ATOM     15  C   UNL     1      -4.603  -1.125  23.774  0.00  0.00    +0.008 A 
ATOM     20  C   UNL     1      -3.204  -2.724  25.582  0.00  0.00    +0.038 A 
ATOM     21  C   UNL     1      -4.180  -2.399  23.396  0.00  0.00    +0.000 A 
ATOM     22  C   UNL     1      -3.480  -3.199  24.300  0.00  0.00    +0.003 A 
ENDBRANCH   9  11
ENDBRANCH   3   9
TORSDOF 3
ENDMDL
MODEL 3
REMARK VINA RESULT:      -1.7      2.521      7.542
REMARK  Name = 45784189
REMARK  4 active torsions:
REMARK  status: ('A' for Active; 'I' for Inactive)
REMARK    1  A    between atoms: N_3  and  C_9
REMARK    2  A    between atoms: C_5  and  C_10
REMARK    3  A    between atoms: C_9  and  C_11
REMARK    4  A    between atoms: C_18  and  C_23
REMARK                            x       y       z     vdW  Elec       q    Type
REMARK                         _______ _______ _______ _____ _____    ______ ____
ROOT
ATOM      3  N   UNL     1      -2.987   0.180  24.607  0.00  0.00    -0.297 NA
ATOM      5  C   UNL     1      -1.049  -0.796  23.715  0.00  0.00    +0.090 C 
ATOM      6  C   UNL     1      -1.512  -1.599  24.943  0.00  0.00    +0.029 C 
ATOM      7  C   UNL     1      -1.808   0.535  23.814  0.00  0.00    +0.097 C 
ATOM      8  C   UNL     1      -2.477  -0.677  25.677  0.00  0.00    +0.085 C 
ENDROOT
BRANCH   5  10
ATOM      2  O   UNL     1       0.865   0.588  23.113  0.00  0.00    -0.439 OA
ATOM      4  N   UNL     1       1.400  -1.463  23.916  0.00  0.00    -0.213 NA
ATOM     10  C   UNL     1       0.447  -0.613  23.603  0.00  0.00    +0.201 A 
ATOM     12  C   UNL     1       2.550  -0.775  23.611  0.00  0.00    +0.110 A 
ATOM     13  C   UNL     1       2.226   0.481  23.120  0.00  0.00    +0.155 A 
ATOM     16  C   UNL     1       3.902  -1.133  23.718  0.00  0.00    +0.035 A 
ATOM     17  C   UNL     1       3.151   1.436  22.716  0.00  0.00    +0.049 A 
ATOM     18  C   UNL     1       4.865  -0.195  23.319  0.00  0.00    -0.048 A 
ATOM     19  C   UNL     1       4.494   1.063  22.828  0.00  0.00    +0.007 A 
ATOM     23  C   UNL     1       6.313  -0.547  23.420  0.00  0.00    +0.044 C 
ENDBRANCH   5  10
BRANCH   3   9
ATOM      9  C   UNL     1      -3.684   1.351  25.118  0.00  0.00    +0.122 C 
BRANCH   9  11
ATOM      1  F   UNL     1      -4.592   3.933  24.386  0.00  0.00    -0.205 F 
ATOM     11  C   UNL     1      -2.798   2.568  25.132  0.00  0.00    +0.002 A 
ATOM     14  C   UNL     1      -3.311   3.811  24.760  0.00  0.00    +0.128 A 
ATOM     15  C   UNL     1      -1.464   2.452  25.520  0.00  0.00    +0.008 A 
ATOM     20  C   UNL     1      -2.488   4.937  24.774  0.00  0.00    +0.038 A 
ATOM     21  C   UNL     1      -0.641   3.578  25.534  0.00  0.00    +0.000 A 
ATOM     22  C   UNL     1      -1.153   4.821  25.161  0.00  0.00    +0.003 A 
ENDBRANCH   9  11
ENDBRANCH   3   9
TORSDOF 3
ENDMDL
MODEL 4
REMARK VINA RESULT:      -1.7      2.774      7.731
REMARK  Name = 45784189
REMARK  4 active torsions:
REMARK  status: ('A' for Active; 'I' for Inactive)
REMARK    1  A    between atoms: N_3  and  C_9
REMARK    2  A    between atoms: C_5  and  C_10
REMARK    3  A    between atoms: C_9  and  C_11
REMARK    4  A    between atoms: C_18  and  C_23
REMARK                            x       y       z     vdW  Elec       q    Type
REMARK                         _______ _______ _______ _____ _____    ______ ____
ROOT
ATOM      3  N   UNL     1      -4.639  -0.611  24.724  0.00  0.00    -0.297 NA
ATOM      5  C   UNL     1      -2.449  -1.304  24.248  0.00  0.00    +0.090 C 
ATOM      6  C   UNL     1      -2.737  -1.500  25.747  0.00  0.00    +0.029 C 
ATOM      7  C   UNL     1      -3.565  -0.371  23.757  0.00  0.00    +0.097 C 
ATOM      8  C   UNL     1      -3.972  -0.653  26.025  0.00  0.00    +0.085 C 
ENDROOT
BRANCH   5  10
ATOM      2  O   UNL     1      -0.888   0.559  24.068  0.00  0.00    -0.439 OA
ATOM      4  N   UNL     1      -0.009  -1.460  23.536  0.00  0.00    -0.213 NA
ATOM     10  C   UNL     1      -1.065  -0.784  23.930  0.00  0.00    +0.201 A 
ATOM     12  C   UNL     1       0.954  -0.491  23.399  0.00  0.00    +0.110 A 
ATOM     13  C   UNL     1       0.420   0.747  23.725  0.00  0.00    +0.155 A 
ATOM     16  C   UNL     1       2.299  -0.566  23.008  0.00  0.00    +0.035 A 
ATOM     17  C   UNL     1       1.122   1.946  23.695  0.00  0.00    +0.049 A 
ATOM     18  C   UNL     1       3.041   0.623  22.965  0.00  0.00    -0.048 A 
ATOM     19  C   UNL     1       2.461   1.853  23.302  0.00  0.00    +0.007 A 
ATOM     23  C   UNL     1       4.475   0.575  22.552  0.00  0.00    +0.044 C 
ENDBRANCH   5  10
BRANCH   3   9
ATOM      9  C   UNL     1      -5.676   0.408  24.664  0.00  0.00    +0.122 C 
BRANCH   9  11
ATOM      1  F   UNL     1      -6.312   2.181  26.782  0.00  0.00    -0.205 F 
ATOM     11  C   UNL     1      -5.103   1.797  24.774  0.00  0.00    +0.002 A 
ATOM     14  C   UNL     1      -5.459   2.618  25.845  0.00  0.00    +0.128 A 
ATOM     15  C   UNL     1      -4.215   2.261  23.805  0.00  0.00    +0.008 A 
ATOM     20  C   UNL     1      -4.927   3.904  25.944  0.00  0.00    +0.038 A 
ATOM     21  C   UNL     1      -3.683   3.546  23.905  0.00  0.00    +0.000 A 
ATOM     22  C   UNL     1      -4.039   4.368  24.974  0.00  0.00    +0.003 A 
ENDBRANCH   9  11
ENDBRANCH   3   9
TORSDOF 3
ENDMDL
MODEL 5
REMARK VINA RESULT:      -0.2      2.795      7.743
REMARK  Name = 45784189
REMARK  4 active torsions:
REMARK  status: ('A' for Active; 'I' for Inactive)
REMARK    1  A    between atoms: N_3  and  C_9
REMARK    2  A    between atoms: C_5  and  C_10
REMARK    3  A    between atoms: C_9  and  C_11
REMARK    4  A    between atoms: C_18  and  C_23
REMARK                            x       y       z     vdW  Elec       q    Type
REMARK                         _______ _______ _______ _____ _____    ______ ____
ROOT
ATOM      3  N   UNL     1      -3.348   1.713  24.485  0.00  0.00    -0.297 NA
ATOM      5  C   UNL     1      -1.087   2.082  23.982  0.00  0.00    +0.090 C 
ATOM      6  C   UNL     1      -1.927   2.204  22.698  0.00  0.00    +0.029 C 
ATOM      7  C   UNL     1      -2.012   1.380  24.985  0.00  0.00    +0.097 C 
ATOM      8  C   UNL     1      -3.258   1.547  23.034  0.00  0.00    +0.085 C 
ENDROOT
BRANCH   5  10
ATOM      2  O   UNL     1       1.275   2.150  23.385  0.00  0.00    -0.439 OA
ATOM      4  N   UNL     1       0.521   0.107  24.011  0.00  0.00    -0.213 NA
ATOM     10  C   UNL     1       0.238   1.374  23.808  0.00  0.00    +0.201 A 
ATOM     12  C   UNL     1       1.856   0.027  23.699  0.00  0.00    +0.110 A 
ATOM     13  C   UNL     1       2.322   1.276  23.315  0.00  0.00    +0.155 A 
ATOM     16  C   UNL     1       2.750  -1.054  23.712  0.00  0.00    +0.035 A 
ATOM     17  C   UNL     1       3.629   1.552  22.934  0.00  0.00    +0.049 A 
ATOM     18  C   UNL     1       4.079  -0.816  23.333  0.00  0.00    -0.048 A 
ATOM     19  C   UNL     1       4.507   0.463  22.952  0.00  0.00    +0.007 A 
ATOM     23  C   UNL     1       5.054  -1.947  23.336  0.00  0.00    +0.044 C 
ENDBRANCH   5  10
BRANCH   3   9
ATOM      9  C   UNL     1      -4.384   0.880  25.076  0.00  0.00    +0.122 C 
BRANCH   9  11
ATOM      1  F   UNL     1      -2.953  -0.700  26.943  0.00  0.00    -0.205 F 
ATOM     11  C   UNL     1      -4.109  -0.587  24.872  0.00  0.00    +0.002 A 
ATOM     14  C   UNL     1      -3.397  -1.305  25.833  0.00  0.00    +0.128 A 
ATOM     15  C   UNL     1      -4.567  -1.226  23.721  0.00  0.00    +0.008 A 
ATOM     20  C   UNL     1      -3.143  -2.664  25.642  0.00  0.00    +0.038 A 
ATOM     21  C   UNL     1      -4.313  -2.585  23.530  0.00  0.00    +0.000 A 
ATOM     22  C   UNL     1      -3.601  -3.304  24.490  0.00  0.00    +0.003 A 
ENDBRANCH   9  11
ENDBRANCH   3   9
TORSDOF 3
ENDMDL
