MODEL 1
REMARK VINA RESULT:      10.6      0.000      0.000
REMARK  Name = 11867459
REMARK  14 active torsions:
REMARK  status: ('A' for Active; 'I' for Inactive)
REMARK    1  A    between atoms: O_2  and  C_15
REMARK    2  A    between atoms: O_3  and  C_20
REMARK    3  A    between atoms: N_7  and  C_26
REMARK    4  A    between atoms: C_10  and  C_18
REMARK    5  A    between atoms: C_12  and  C_20
REMARK    6  A    between atoms: C_12  and  C_21
REMARK    7  A    between atoms: C_13  and  C_23
REMARK    8  A    between atoms: C_23  and  C_24
REMARK    9  A    between atoms: C_26  and  C_29
REMARK   10  A    between atoms: C_27  and  C_28
REMARK   11  A    between atoms: C_28  and  C_30
REMARK   12  A    between atoms: C_30  and  C_31
REMARK   13  A    between atoms: C_30  and  C_32
REMARK   14  A    between atoms: C_30  and  C_33
REMARK                            x       y       z     vdW  Elec       q    Type
REMARK                         _______ _______ _______ _____ _____    ______ ____
ROOT
ATOM      1  S   UNL     1      -0.491  -0.897  23.422  0.00  0.00    -0.057 S 
ATOM      5  O   UNL     1       3.175   1.965  23.122  0.00  0.00    -0.275 OA
ATOM      6  N   UNL     1       0.322   1.530  23.804  0.00  0.00    -0.229 NA
ATOM      8  N   UNL     1       1.943  -0.041  22.958  0.00  0.00    -0.265 N 
ATOM     10  C   UNL     1      -3.322   2.484  24.629  0.00  0.00    -0.019 C 
ATOM     11  C   UNL     1      -3.648   1.043  25.221  0.00  0.00    +0.011 C 
ATOM     12  C   UNL     1      -5.141   0.766  25.649  0.00  0.00    +0.021 C 
ATOM     13  C   UNL     1      -1.738   2.691  24.681  0.00  0.00    +0.054 C 
ATOM     14  C   UNL     1      -3.986   3.569  25.517  0.00  0.00    +0.010 C 
ATOM     15  C   UNL     1      -5.664   1.966  26.488  0.00  0.00    +0.123 C 
ATOM     16  C   UNL     1      -3.027  -0.085  24.345  0.00  0.00    +0.049 C 
ATOM     17  C   UNL     1      -5.458   3.313  25.804  0.00  0.00    +0.032 C 
ATOM     18  C   UNL     1      -3.816   2.663  23.173  0.00  0.00    +0.012 C 
ATOM     19  C   UNL     1      -1.015   1.479  24.153  0.00  0.00    +0.058 A 
ATOM     21  C   UNL     1      -5.182  -0.490  26.563  0.00  0.00    +0.016 C 
ATOM     22  C   UNL     1      -1.607   0.239  24.027  0.00  0.00    +0.015 A 
ATOM     25  C   UNL     1       0.703   0.338  23.398  0.00  0.00    +0.165 A 
ATOM     27  C   UNL     1       3.084   0.772  22.846  0.00  0.00    +0.219 C 
ATOM     41  H   UNL     1       2.020  -1.018  22.687  0.00  0.00    +0.157 HD
ENDROOT
BRANCH  15   2
ATOM      2  O   UNL     1      -7.051   1.807  26.783  0.00  0.00    -0.391 OA
ATOM     38  H   UNL     1      -7.426   1.207  26.115  0.00  0.00    +0.210 HD
ENDBRANCH  15   2
BRANCH  12  20
ATOM     20  C   UNL     1      -6.097   0.457  24.476  0.00  0.00    +0.165 C 
BRANCH  20   3
ATOM      3  O   UNL     1      -7.014   1.524  24.373  0.00  0.00    -0.394 OA
ATOM     39  H   UNL     1      -7.843   1.159  24.021  0.00  0.00    +0.209 HD
ENDBRANCH  20   3
ENDBRANCH  12  20
BRANCH  13  23
ATOM     23  C   UNL     1      -1.240   3.979  24.011  0.00  0.00    +0.106 C 
BRANCH  23  24
ATOM      4  O   UNL     1       0.106   5.853  24.740  0.00  0.00    -0.276 OA
ATOM      7  N   UNL     1       0.483   3.748  25.649  0.00  0.00    -0.311 N 
ATOM     24  C   UNL     1      -0.158   4.657  24.820  0.00  0.00    +0.214 C 
ATOM     40  H   UNL     1       0.184   2.777  25.647  0.00  0.00    +0.149 HD
BRANCH   7  26
ATOM     26  C   UNL     1       1.564   4.114  26.536  0.00  0.00    +0.141 C 
BRANCH  26  29
ATOM      9  N   UNL     1       2.760   2.437  29.708  0.00  0.00    -0.263 NA
ATOM     29  C   UNL     1       1.554   3.302  27.798  0.00  0.00    -0.012 A 
ATOM     34  C   UNL     1       0.394   2.672  28.236  0.00  0.00    +0.008 A 
ATOM     35  C   UNL     1       2.700   3.155  28.563  0.00  0.00    +0.115 A 
ATOM     36  C   UNL     1       0.416   1.925  29.408  0.00  0.00    +0.020 A 
ATOM     37  C   UNL     1       1.614   1.839  30.101  0.00  0.00    +0.111 A 
ENDBRANCH  26  29
ENDBRANCH   7  26
ENDBRANCH  23  24
ENDBRANCH  13  23
BRANCH  27  28
ATOM     28  C   UNL     1       4.295   0.016  22.311  0.00  0.00    +0.102 C 
BRANCH  28  30
ATOM     30  C   UNL     1       5.315  -0.420  23.390  0.00  0.00    -0.029 C 
ATOM     31  C   UNL     1       4.797  -1.720  24.039  0.00  0.00    +0.011 C 
ATOM     32  C   UNL     1       5.452   0.649  24.488  0.00  0.00    +0.011 C 
ATOM     33  C   UNL     1       6.697  -0.701  22.781  0.00  0.00    +0.011 C 
ENDBRANCH  28  30
ENDBRANCH  27  28
TORSDOF 9
ENDMDL
MODEL 2
REMARK VINA RESULT:      13.5      1.894      3.336
REMARK  Name = 11867459
REMARK  14 active torsions:
REMARK  status: ('A' for Active; 'I' for Inactive)
REMARK    1  A    between atoms: O_2  and  C_15
REMARK    2  A    between atoms: O_3  and  C_20
REMARK    3  A    between atoms: N_7  and  C_26
REMARK    4  A    between atoms: C_10  and  C_18
REMARK    5  A    between atoms: C_12  and  C_20
REMARK    6  A    between atoms: C_12  and  C_21
REMARK    7  A    between atoms: C_13  and  C_23
REMARK    8  A    between atoms: C_23  and  C_24
REMARK    9  A    between atoms: C_26  and  C_29
REMARK   10  A    between atoms: C_27  and  C_28
REMARK   11  A    between atoms: C_28  and  C_30
REMARK   12  A    between atoms: C_30  and  C_31
REMARK   13  A    between atoms: C_30  and  C_32
REMARK   14  A    between atoms: C_30  and  C_33
REMARK                            x       y       z     vdW  Elec       q    Type
REMARK                         _______ _______ _______ _____ _____    ______ ____
ROOT
ATOM      1  S   UNL     1       0.445   2.748  23.900  0.00  0.00    -0.057 S 
ATOM      5  O   UNL     1       2.833  -1.040  22.607  0.00  0.00    -0.275 OA
ATOM      6  N   UNL     1       0.269   0.212  23.417  0.00  0.00    -0.229 NA
ATOM      8  N   UNL     1       2.443   1.221  23.158  0.00  0.00    -0.265 N 
ATOM     10  C   UNL     1      -3.381   0.361  24.651  0.00  0.00    -0.019 C 
ATOM     11  C   UNL     1      -3.569   1.863  24.157  0.00  0.00    +0.011 C 
ATOM     12  C   UNL     1      -4.934   2.568  24.514  0.00  0.00    +0.021 C 
ATOM     13  C   UNL     1      -2.170  -0.280  23.828  0.00  0.00    +0.054 C 
ATOM     14  C   UNL     1      -4.666  -0.449  24.340  0.00  0.00    +0.010 C 
ATOM     15  C   UNL     1      -6.110   1.605  24.186  0.00  0.00    +0.123 C 
ATOM     16  C   UNL     1      -2.314   2.728  24.475  0.00  0.00    +0.049 C 
ATOM     17  C   UNL     1      -5.948   0.224  24.810  0.00  0.00    +0.032 C 
ATOM     18  C   UNL     1      -3.084   0.258  26.166  0.00  0.00    +0.012 C 
ATOM     19  C   UNL     1      -0.987   0.653  23.788  0.00  0.00    +0.058 A 
ATOM     21  C   UNL     1      -5.104   3.828  23.620  0.00  0.00    +0.016 C 
ATOM     22  C   UNL     1      -1.077   2.002  24.064  0.00  0.00    +0.015 A 
ATOM     25  C   UNL     1       1.104   1.228  23.447  0.00  0.00    +0.165 A 
ATOM     27  C   UNL     1       3.216   0.116  22.763  0.00  0.00    +0.219 C 
ATOM     41  H   UNL     1       2.904   2.123  23.248  0.00  0.00    +0.157 HD
ENDROOT
BRANCH  15   2
ATOM      2  O   UNL     1      -7.351   2.162  24.617  0.00  0.00    -0.391 OA
ATOM     38  H   UNL     1      -7.502   2.975  24.106  0.00  0.00    +0.210 HD
ENDBRANCH  15   2
BRANCH  12  20
ATOM     20  C   UNL     1      -5.030   3.077  25.970  0.00  0.00    +0.165 C 
BRANCH  20   3
ATOM      3  O   UNL     1      -6.033   4.067  26.016  0.00  0.00    -0.394 OA
ATOM     39  H   UNL     1      -6.890   3.609  26.058  0.00  0.00    +0.209 HD
ENDBRANCH  20   3
ENDBRANCH  12  20
BRANCH  13  23
ATOM     23  C   UNL     1      -1.761  -1.687  24.286  0.00  0.00    +0.106 C 
BRANCH  23  24
ATOM      4  O   UNL     1       0.285  -2.274  25.436  0.00  0.00    -0.276 OA
ATOM      7  N   UNL     1      -1.214  -0.811  26.440  0.00  0.00    -0.311 N 
ATOM     24  C   UNL     1      -0.769  -1.645  25.426  0.00  0.00    +0.214 C 
ATOM     40  H   UNL     1      -2.101  -0.327  26.332  0.00  0.00    +0.149 HD
BRANCH   7  26
ATOM     26  C   UNL     1      -0.470  -0.580  27.658  0.00  0.00    +0.141 C 
BRANCH  26  29
ATOM      9  N   UNL     1       1.419   2.453  28.896  0.00  0.00    -0.263 NA
ATOM     29  C   UNL     1       0.091   0.810  27.718  0.00  0.00    -0.012 A 
ATOM     34  C   UNL     1      -0.172   1.734  26.712  0.00  0.00    +0.008 A 
ATOM     35  C   UNL     1       0.884   1.216  28.779  0.00  0.00    +0.115 A 
ATOM     36  C   UNL     1       0.359   3.016  26.796  0.00  0.00    +0.020 A 
ATOM     37  C   UNL     1       1.141   3.322  27.899  0.00  0.00    +0.111 A 
ENDBRANCH  26  29
ENDBRANCH   7  26
ENDBRANCH  23  24
ENDBRANCH  13  23
BRANCH  27  28
ATOM     28  C   UNL     1       4.679   0.475  22.531  0.00  0.00    +0.102 C 
BRANCH  28  30
ATOM     30  C   UNL     1       5.667  -0.143  23.548  0.00  0.00    -0.029 C 
ATOM     31  C   UNL     1       5.809   0.836  24.730  0.00  0.00    +0.011 C 
ATOM     32  C   UNL     1       7.056  -0.349  22.918  0.00  0.00    +0.011 C 
ATOM     33  C   UNL     1       5.153  -1.486  24.091  0.00  0.00    +0.011 C 
ENDBRANCH  28  30
ENDBRANCH  27  28
TORSDOF 9
ENDMDL
MODEL 3
REMARK VINA RESULT:      14.3      2.752      4.177
REMARK  Name = 11867459
REMARK  14 active torsions:
REMARK  status: ('A' for Active; 'I' for Inactive)
REMARK    1  A    between atoms: O_2  and  C_15
REMARK    2  A    between atoms: O_3  and  C_20
REMARK    3  A    between atoms: N_7  and  C_26
REMARK    4  A    between atoms: C_10  and  C_18
REMARK    5  A    between atoms: C_12  and  C_20
REMARK    6  A    between atoms: C_12  and  C_21
REMARK    7  A    between atoms: C_13  and  C_23
REMARK    8  A    between atoms: C_23  and  C_24
REMARK    9  A    between atoms: C_26  and  C_29
REMARK   10  A    between atoms: C_27  and  C_28
REMARK   11  A    between atoms: C_28  and  C_30
REMARK   12  A    between atoms: C_30  and  C_31
REMARK   13  A    between atoms: C_30  and  C_32
REMARK   14  A    between atoms: C_30  and  C_33
REMARK                            x       y       z     vdW  Elec       q    Type
REMARK                         _______ _______ _______ _____ _____    ______ ____
ROOT
ATOM      1  S   UNL     1       1.023   2.329  25.416  0.00  0.00    -0.057 S 
ATOM      5  O   UNL     1       2.501   0.556  21.368  0.00  0.00    -0.275 OA
ATOM      6  N   UNL     1       0.298   1.642  23.030  0.00  0.00    -0.229 NA
ATOM      8  N   UNL     1       2.619   1.321  23.597  0.00  0.00    -0.265 N 
ATOM     10  C   UNL     1      -3.342   2.394  24.058  0.00  0.00    -0.019 C 
ATOM     11  C   UNL     1      -2.901   3.534  25.078  0.00  0.00    +0.011 C 
ATOM     12  C   UNL     1      -4.037   4.187  25.957  0.00  0.00    +0.021 C 
ATOM     13  C   UNL     1      -2.162   2.198  22.998  0.00  0.00    +0.054 C 
ATOM     14  C   UNL     1      -4.614   2.847  23.296  0.00  0.00    +0.010 C 
ATOM     15  C   UNL     1      -5.250   4.536  25.049  0.00  0.00    +0.123 C 
ATOM     16  C   UNL     1      -1.641   3.113  25.892  0.00  0.00    +0.049 C 
ATOM     17  C   UNL     1      -5.724   3.360  24.202  0.00  0.00    +0.032 C 
ATOM     18  C   UNL     1      -3.635   1.043  24.756  0.00  0.00    +0.012 C 
ATOM     19  C   UNL     1      -0.823   2.118  23.684  0.00  0.00    +0.058 A 
ATOM     21  C   UNL     1      -3.510   5.520  26.558  0.00  0.00    +0.016 C 
ATOM     22  C   UNL     1      -0.607   2.550  24.977  0.00  0.00    +0.015 A 
ATOM     25  C   UNL     1       1.327   1.701  23.847  0.00  0.00    +0.165 A 
ATOM     27  C   UNL     1       3.124   0.782  22.401  0.00  0.00    +0.219 C 
ATOM     41  H   UNL     1       3.260   1.449  24.375  0.00  0.00    +0.157 HD
ENDROOT
BRANCH  15   2
ATOM      2  O   UNL     1      -6.344   5.009  25.832  0.00  0.00    -0.391 OA
ATOM     38  H   UNL     1      -6.825   4.232  26.166  0.00  0.00    +0.210 HD
ENDBRANCH  15   2
BRANCH  12  20
ATOM     20  C   UNL     1      -4.481   3.334  27.165  0.00  0.00    +0.165 C 
BRANCH  20   3
ATOM      3  O   UNL     1      -5.711   2.726  26.837  0.00  0.00    -0.394 OA
ATOM     39  H   UNL     1      -6.140   2.471  27.670  0.00  0.00    +0.209 HD
ENDBRANCH  20   3
ENDBRANCH  12  20
BRANCH  13  23
ATOM     23  C   UNL     1      -2.366   1.029  22.025  0.00  0.00    +0.106 C 
BRANCH  23  24
ATOM      4  O   UNL     1      -3.571  -0.835  22.987  0.00  0.00    -0.276 OA
ATOM      7  N   UNL     1      -1.251  -0.793  23.093  0.00  0.00    -0.311 N 
ATOM     24  C   UNL     1      -2.497  -0.292  22.746  0.00  0.00    +0.214 C 
ATOM     40  H   UNL     1      -0.417  -0.269  22.840  0.00  0.00    +0.149 HD
BRANCH   7  26
ATOM     26  C   UNL     1      -1.069  -2.043  23.796  0.00  0.00    +0.141 C 
BRANCH  26  29
ATOM      9  N   UNL     1      -1.805  -1.146  27.395  0.00  0.00    -0.263 NA
ATOM     29  C   UNL     1      -1.725  -2.030  25.145  0.00  0.00    -0.012 A 
ATOM     34  C   UNL     1      -2.818  -2.845  25.419  0.00  0.00    +0.008 A 
ATOM     35  C   UNL     1      -1.261  -1.206  26.158  0.00  0.00    +0.115 A 
ATOM     36  C   UNL     1      -3.405  -2.813  26.679  0.00  0.00    +0.020 A 
ATOM     37  C   UNL     1      -2.865  -1.953  27.623  0.00  0.00    +0.111 A 
ENDBRANCH  26  29
ENDBRANCH   7  26
ENDBRANCH  23  24
ENDBRANCH  13  23
BRANCH  27  28
ATOM     28  C   UNL     1       4.613   0.467  22.481  0.00  0.00    +0.102 C 
BRANCH  28  30
ATOM     30  C   UNL     1       5.024  -0.419  23.681  0.00  0.00    -0.029 C 
ATOM     31  C   UNL     1       6.386  -1.063  23.354  0.00  0.00    +0.011 C 
ATOM     32  C   UNL     1       4.000  -1.542  23.918  0.00  0.00    +0.011 C 
ATOM     33  C   UNL     1       5.176   0.407  24.968  0.00  0.00    +0.011 C 
ENDBRANCH  28  30
ENDBRANCH  27  28
TORSDOF 9
ENDMDL
