MODEL 1
REMARK VINA RESULT:       4.4      0.000      0.000
REMARK  Name = 9421714
REMARK  2 active torsions:
REMARK  status: ('A' for Active; 'I' for Inactive)
REMARK    1  A    between atoms: N_5  and  C_24
REMARK    2  A    between atoms: C_13  and  C_14
REMARK                            x       y       z     vdW  Elec       q    Type
REMARK                         _______ _______ _______ _____ _____    ______ ____
ROOT
ATOM      1  O   UNL     1       0.214   2.240  26.084  0.00  0.00    -0.267 OA
ATOM      2  O   UNL     1      -4.610   0.259  26.582  0.00  0.00    -0.252 OA
ATOM      3  N   UNL     1      -1.659   2.998  24.915  0.00  0.00    -0.312 N 
ATOM      4  N   UNL     1      -4.706   2.073  25.149  0.00  0.00    -0.284 N 
ATOM      5  N   UNL     1      -4.706  -0.127  24.298  0.00  0.00    -0.269 N 
ATOM      6  C   UNL     1      -3.638   4.139  26.069  0.00  0.00    +0.027 C 
ATOM      7  C   UNL     1      -3.689   3.774  23.640  0.00  0.00    +0.054 C 
ATOM      8  C   UNL     1      -3.843   4.832  24.728  0.00  0.00    +0.018 C 
ATOM      9  C   UNL     1      -2.204   3.602  26.138  0.00  0.00    +0.130 C 
ATOM     10  C   UNL     1      -4.683   3.028  26.262  0.00  0.00    +0.114 C 
ATOM     11  C   UNL     1      -2.311   3.136  23.688  0.00  0.00    +0.027 A 
ATOM     12  C   UNL     1      -4.770   2.685  23.810  0.00  0.00    +0.119 C 
ATOM     14  C   UNL     1       0.199   1.841  23.755  0.00  0.00    +0.020 A 
ATOM     15  C   UNL     1      -0.404   2.368  25.026  0.00  0.00    +0.255 A 
ATOM     16  C   UNL     1      -1.738   2.676  22.564  0.00  0.00    +0.022 A 
ATOM     19  C   UNL     1      -0.463   2.019  22.605  0.00  0.00    +0.011 A 
ATOM     23  C   UNL     1      -4.663   0.690  25.427  0.00  0.00    +0.306 C 
ATOM     30  H   UNL     1      -5.174   0.223  23.469  0.00  0.00    +0.156 HD
ENDROOT
BRANCH  14  13
ATOM     13  C   UNL     1       1.526   1.148  23.843  0.00  0.00    +0.024 C 
ATOM     17  C   UNL     1       1.410  -0.314  23.389  0.00  0.00    +0.008 C 
ATOM     18  C   UNL     1       2.585   1.892  23.019  0.00  0.00    +0.008 C 
ATOM     20  C   UNL     1       2.761  -1.025  23.424  0.00  0.00    +0.001 C 
ATOM     21  C   UNL     1       3.935   1.177  23.055  0.00  0.00    +0.001 C 
ATOM     22  C   UNL     1       3.812  -0.278  22.610  0.00  0.00    +0.000 C 
ENDBRANCH  14  13
BRANCH   5  24
ATOM     24  C   UNL     1      -4.207  -1.448  24.176  0.00  0.00    +0.035 A 
ATOM     25  C   UNL     1      -4.961  -2.414  23.517  0.00  0.00    +0.023 A 
ATOM     26  C   UNL     1      -2.964  -1.769  24.715  0.00  0.00    +0.023 A 
ATOM     27  C   UNL     1      -4.468  -3.714  23.395  0.00  0.00    +0.002 A 
ATOM     28  C   UNL     1      -2.472  -3.069  24.594  0.00  0.00    +0.002 A 
ATOM     29  C   UNL     1      -3.224  -4.041  23.934  0.00  0.00    +0.000 A 
ENDBRANCH   5  24
TORSDOF 2
ENDMDL
MODEL 2
REMARK VINA RESULT:       4.7      1.988      5.280
REMARK  Name = 9421714
REMARK  2 active torsions:
REMARK  status: ('A' for Active; 'I' for Inactive)
REMARK    1  A    between atoms: N_5  and  C_24
REMARK    2  A    between atoms: C_13  and  C_14
REMARK                            x       y       z     vdW  Elec       q    Type
REMARK                         _______ _______ _______ _____ _____    ______ ____
ROOT
ATOM      1  O   UNL     1      -0.235  -1.260  21.939  0.00  0.00    -0.267 OA
ATOM      2  O   UNL     1      -4.184   1.834  23.448  0.00  0.00    -0.252 OA
ATOM      3  N   UNL     1      -1.519  -1.588  23.861  0.00  0.00    -0.312 N 
ATOM      4  N   UNL     1      -4.052   0.047  24.912  0.00  0.00    -0.284 N 
ATOM      5  N   UNL     1      -3.171   2.152  25.508  0.00  0.00    -0.269 N 
ATOM      6  C   UNL     1      -4.006  -2.181  23.777  0.00  0.00    +0.027 C 
ATOM      7  C   UNL     1      -2.894  -1.899  25.949  0.00  0.00    +0.054 C 
ATOM      8  C   UNL     1      -3.751  -2.851  25.121  0.00  0.00    +0.018 C 
ATOM      9  C   UNL     1      -2.670  -2.001  23.048  0.00  0.00    +0.130 C 
ATOM     10  C   UNL     1      -4.743  -0.846  23.976  0.00  0.00    +0.114 C 
ATOM     11  C   UNL     1      -1.574  -1.608  25.257  0.00  0.00    +0.027 A 
ATOM     12  C   UNL     1      -3.657  -0.578  26.187  0.00  0.00    +0.119 C 
ATOM     14  C   UNL     1       0.871  -0.950  24.003  0.00  0.00    +0.020 A 
ATOM     15  C   UNL     1      -0.334  -1.273  23.167  0.00  0.00    +0.255 A 
ATOM     16  C   UNL     1      -0.475  -1.339  25.979  0.00  0.00    +0.022 A 
ATOM     19  C   UNL     1       0.764  -1.004  25.337  0.00  0.00    +0.011 A 
ATOM     23  C   UNL     1      -3.819   1.389  24.539  0.00  0.00    +0.306 C 
ATOM     30  H   UNL     1      -3.290   1.896  26.483  0.00  0.00    +0.156 HD
ENDROOT
BRANCH  14  13
ATOM     13  C   UNL     1       2.142  -0.593  23.293  0.00  0.00    +0.024 C 
ATOM     17  C   UNL     1       2.354   0.928  23.285  0.00  0.00    +0.008 C 
ATOM     18  C   UNL     1       3.342  -1.306  23.930  0.00  0.00    +0.008 C 
ATOM     20  C   UNL     1       3.669   1.311  22.609  0.00  0.00    +0.001 C 
ATOM     21  C   UNL     1       4.656  -0.919  23.253  0.00  0.00    +0.001 C 
ATOM     22  C   UNL     1       4.857   0.594  23.240  0.00  0.00    +0.000 C 
ENDBRANCH  14  13
BRANCH   5  24
ATOM     24  C   UNL     1      -2.380   3.310  25.301  0.00  0.00    +0.035 A 
ATOM     25  C   UNL     1      -1.071   3.182  24.849  0.00  0.00    +0.023 A 
ATOM     26  C   UNL     1      -2.921   4.569  25.548  0.00  0.00    +0.023 A 
ATOM     27  C   UNL     1      -0.293   4.323  24.643  0.00  0.00    +0.002 A 
ATOM     28  C   UNL     1      -2.144   5.709  25.342  0.00  0.00    +0.002 A 
ATOM     29  C   UNL     1      -0.830   5.586  24.890  0.00  0.00    +0.000 A 
ENDBRANCH   5  24
TORSDOF 2
ENDMDL
