MODEL 1
REMARK VINA RESULT:      -4.8      0.000      0.000
REMARK  Name = 25313511
REMARK  8 active torsions:
REMARK  status: ('A' for Active; 'I' for Inactive)
REMARK    1  A    between atoms: N_5  and  C_18
REMARK    2  A    between atoms: N_5  and  C_19
REMARK    3  A    between atoms: C_7  and  C_13
REMARK    4  A    between atoms: C_8  and  C_12
REMARK    5  A    between atoms: C_12  and  C_14
REMARK    6  A    between atoms: C_13  and  C_15
REMARK    7  A    between atoms: C_17  and  C_20
REMARK    8  A    between atoms: C_18  and  C_21
REMARK                            x       y       z     vdW  Elec       q    Type
REMARK                         _______ _______ _______ _____ _____    ______ ____
ROOT
ATOM      4  N   UNL     1      13.956  -9.503  29.735  0.00  0.00    -0.316 NA
ATOM      7  C   UNL     1      15.013  -6.774  29.354  0.00  0.00    +0.004 C 
ATOM      8  C   UNL     1      15.494  -7.983  28.516  0.00  0.00    +0.012 C 
ATOM      9  C   UNL     1      13.599  -7.063  29.885  0.00  0.00    +0.019 C 
ATOM     10  C   UNL     1      15.333  -9.307  29.281  0.00  0.00    +0.085 C 
ATOM     11  C   UNL     1      13.507  -8.412  30.597  0.00  0.00    +0.081 C 
ATOM     28  H   UNL     1      13.890 -10.383  30.244  0.00  0.00    +0.122 HD
ENDROOT
BRANCH   8  12
ATOM     12  C   UNL     1      16.928  -7.827  28.008  0.00  0.00    +0.064 C 
BRANCH  12  14
ATOM      3  O   UNL     1      17.030  -6.455  24.681  0.00  0.00    -0.354 OA
ATOM      6  N   UNL     1      16.969  -7.521  25.570  0.00  0.00    -0.083 NA
ATOM     14  C   UNL     1      16.984  -6.961  26.783  0.00  0.00    +0.085 A 
ATOM     16  C   UNL     1      17.054  -5.558  26.722  0.00  0.00    +0.076 A 
ATOM     17  C   UNL     1      17.080  -5.292  25.378  0.00  0.00    +0.167 A 
BRANCH  17  20
ATOM      1  F   UNL     1      17.348  -0.654  22.318  0.00  0.00    -0.205 F 
ATOM     20  C   UNL     1      17.148  -4.096  24.589  0.00  0.00    +0.020 A 
ATOM     22  C   UNL     1      17.338  -4.181  23.209  0.00  0.00    +0.014 A 
ATOM     23  C   UNL     1      17.026  -2.849  25.201  0.00  0.00    +0.014 A 
ATOM     24  C   UNL     1      17.405  -3.018  22.442  0.00  0.00    +0.039 A 
ATOM     25  C   UNL     1      17.093  -1.686  24.434  0.00  0.00    +0.039 A 
ATOM     26  C   UNL     1      17.283  -1.770  23.054  0.00  0.00    +0.123 A 
ENDBRANCH  17  20
ENDBRANCH  12  14
ENDBRANCH   8  12
BRANCH   7  13
ATOM     13  C   UNL     1      15.960  -6.396  30.501  0.00  0.00    +0.100 C 
BRANCH  13  15
ATOM      2  O   UNL     1      16.734  -4.228  29.833  0.00  0.00    -0.276 OA
ATOM      5  N   UNL     1      15.483  -4.335  31.785  0.00  0.00    -0.293 N 
ATOM     15  C   UNL     1      16.103  -4.892  30.661  0.00  0.00    +0.216 C 
ATOM     19  C   UNL     1      15.531  -2.907  32.076  0.00  0.00    +0.133 C 
BRANCH   5  18
ATOM     18  C   UNL     1      14.741  -5.142  32.751  0.00  0.00    +0.196 C 
BRANCH  18  21
ATOM     21  C   UNL     1      13.300  -4.946  32.605  0.00  0.00    -0.086 C 
ATOM     27  C   UNL     1      12.116  -4.783  32.482  0.00  0.00    +0.005 C 
ENDBRANCH  18  21
ENDBRANCH   5  18
ENDBRANCH  13  15
ENDBRANCH   7  13
TORSDOF 7
ENDMDL
MODEL 2
REMARK VINA RESULT:      -3.3     17.289     18.746
REMARK  Name = 25313511
REMARK  8 active torsions:
REMARK  status: ('A' for Active; 'I' for Inactive)
REMARK    1  A    between atoms: N_5  and  C_18
REMARK    2  A    between atoms: N_5  and  C_19
REMARK    3  A    between atoms: C_7  and  C_13
REMARK    4  A    between atoms: C_8  and  C_12
REMARK    5  A    between atoms: C_12  and  C_14
REMARK    6  A    between atoms: C_13  and  C_15
REMARK    7  A    between atoms: C_17  and  C_20
REMARK    8  A    between atoms: C_18  and  C_21
REMARK                            x       y       z     vdW  Elec       q    Type
REMARK                         _______ _______ _______ _____ _____    ______ ____
ROOT
ATOM      4  N   UNL     1      -2.211  -2.545  24.470  0.00  0.00    -0.316 NA
ATOM      7  C   UNL     1      -4.146  -0.359  24.038  0.00  0.00    +0.004 C 
ATOM      8  C   UNL     1      -2.695  -0.312  23.501  0.00  0.00    +0.012 C 
ATOM      9  C   UNL     1      -4.562  -1.827  24.226  0.00  0.00    +0.019 C 
ATOM     10  C   UNL     1      -1.744  -1.164  24.357  0.00  0.00    +0.085 C 
ATOM     11  C   UNL     1      -3.550  -2.620  25.052  0.00  0.00    +0.081 C 
ATOM     28  H   UNL     1      -1.562  -3.076  25.050  0.00  0.00    +0.122 HD
ENDROOT
BRANCH   8  12
ATOM     12  C   UNL     1      -2.157   1.113  23.356  0.00  0.00    +0.064 C 
BRANCH  12  14
ATOM      3  O   UNL     1       1.243   1.870  24.266  0.00  0.00    -0.354 OA
ATOM      6  N   UNL     1      -0.123   2.121  24.298  0.00  0.00    -0.083 NA
ATOM     14  C   UNL     1      -0.668   1.158  23.549  0.00  0.00    +0.085 A 
ATOM     16  C   UNL     1       0.296   0.278  23.025  0.00  0.00    +0.076 A 
ATOM     17  C   UNL     1       1.480   0.771  23.506  0.00  0.00    +0.167 A 
BRANCH  17  20
ATOM      1  F   UNL     1       6.819  -0.715  23.023  0.00  0.00    -0.205 F 
ATOM     20  C   UNL     1       2.857   0.387  23.380  0.00  0.00    +0.020 A 
ATOM     22  C   UNL     1       3.258  -0.901  23.739  0.00  0.00    +0.014 A 
ATOM     23  C   UNL     1       3.794   1.302  22.902  0.00  0.00    +0.014 A 
ATOM     24  C   UNL     1       4.596  -1.273  23.618  0.00  0.00    +0.039 A 
ATOM     25  C   UNL     1       5.133   0.929  22.780  0.00  0.00    +0.039 A 
ATOM     26  C   UNL     1       5.534  -0.358  23.139  0.00  0.00    +0.123 A 
ENDBRANCH  17  20
ENDBRANCH  12  14
ENDBRANCH   8  12
BRANCH   7  13
ATOM     13  C   UNL     1      -4.359   0.439  25.330  0.00  0.00    +0.100 C 
BRANCH  13  15
ATOM      2  O   UNL     1      -6.320   1.602  24.591  0.00  0.00    -0.276 OA
ATOM      5  N   UNL     1      -4.634   2.890  25.531  0.00  0.00    -0.293 N 
ATOM     15  C   UNL     1      -5.202   1.682  25.111  0.00  0.00    +0.216 C 
ATOM     19  C   UNL     1      -5.320   4.168  25.388  0.00  0.00    +0.133 C 
BRANCH   5  18
ATOM     18  C   UNL     1      -3.309   2.960  26.143  0.00  0.00    +0.196 C 
BRANCH  18  21
ATOM     21  C   UNL     1      -2.551   4.101  25.630  0.00  0.00    -0.086 C 
ATOM     27  C   UNL     1      -1.925   5.035  25.209  0.00  0.00    +0.005 C 
ENDBRANCH  18  21
ENDBRANCH   5  18
ENDBRANCH  13  15
ENDBRANCH   7  13
TORSDOF 7
ENDMDL
MODEL 3
REMARK VINA RESULT:      -2.8      1.796      3.723
REMARK  Name = 25313511
REMARK  8 active torsions:
REMARK  status: ('A' for Active; 'I' for Inactive)
REMARK    1  A    between atoms: N_5  and  C_18
REMARK    2  A    between atoms: N_5  and  C_19
REMARK    3  A    between atoms: C_7  and  C_13
REMARK    4  A    between atoms: C_8  and  C_12
REMARK    5  A    between atoms: C_12  and  C_14
REMARK    6  A    between atoms: C_13  and  C_15
REMARK    7  A    between atoms: C_17  and  C_20
REMARK    8  A    between atoms: C_18  and  C_21
REMARK                            x       y       z     vdW  Elec       q    Type
REMARK                         _______ _______ _______ _____ _____    ______ ____
ROOT
ATOM      4  N   UNL     1      15.909  -3.172  30.857  0.00  0.00    -0.316 NA
ATOM      7  C   UNL     1      16.796  -5.797  31.871  0.00  0.00    +0.004 C 
ATOM      8  C   UNL     1      17.114  -5.302  30.440  0.00  0.00    +0.012 C 
ATOM      9  C   UNL     1      16.554  -4.581  32.780  0.00  0.00    +0.019 C 
ATOM     10  C   UNL     1      16.061  -4.300  29.938  0.00  0.00    +0.085 C 
ATOM     11  C   UNL     1      15.527  -3.611  32.197  0.00  0.00    +0.081 C 
ATOM     28  H   UNL     1      15.198  -2.536  30.496  0.00  0.00    +0.122 HD
ENDROOT
BRANCH   8  12
ATOM     12  C   UNL     1      17.291  -6.442  29.437  0.00  0.00    +0.064 C 
BRANCH  12  14
ATOM      3  O   UNL     1      17.386  -5.999  25.865  0.00  0.00    -0.354 OA
ATOM      6  N   UNL     1      17.367  -6.793  27.006  0.00  0.00    -0.083 NA
ATOM     14  C   UNL     1      17.324  -5.930  28.026  0.00  0.00    +0.085 A 
ATOM     16  C   UNL     1      17.312  -4.593  27.594  0.00  0.00    +0.076 A 
ATOM     17  C   UNL     1      17.353  -4.692  26.228  0.00  0.00    +0.167 A 
BRANCH  17  20
ATOM      1  F   UNL     1      17.405  -1.027  22.043  0.00  0.00    -0.205 F 
ATOM     20  C   UNL     1      17.368  -3.747  25.149  0.00  0.00    +0.020 A 
ATOM     22  C   UNL     1      17.391  -2.378  25.420  0.00  0.00    +0.014 A 
ATOM     23  C   UNL     1      17.358  -4.196  23.829  0.00  0.00    +0.014 A 
ATOM     24  C   UNL     1      17.404  -1.459  24.371  0.00  0.00    +0.039 A 
ATOM     25  C   UNL     1      17.371  -3.277  22.779  0.00  0.00    +0.039 A 
ATOM     26  C   UNL     1      17.394  -1.908  23.050  0.00  0.00    +0.123 A 
ENDBRANCH  17  20
ENDBRANCH  12  14
ENDBRANCH   8  12
BRANCH   7  13
ATOM     13  C   UNL     1      15.617  -6.776  31.944  0.00  0.00    +0.100 C 
BRANCH  13  15
ATOM      2  O   UNL     1      17.021  -8.516  32.807  0.00  0.00    -0.276 OA
ATOM      5  N   UNL     1      15.347  -9.159  31.334  0.00  0.00    -0.293 N 
ATOM     15  C   UNL     1      16.070  -8.219  32.078  0.00  0.00    +0.216 C 
ATOM     19  C   UNL     1      15.661 -10.582  31.358  0.00  0.00    +0.133 C 
BRANCH   5  18
ATOM     18  C   UNL     1      14.225  -8.784  30.477  0.00  0.00    +0.196 C 
BRANCH  18  21
ATOM     21  C   UNL     1      12.950  -9.171  31.079  0.00  0.00    -0.086 C 
ATOM     27  C   UNL     1      11.905  -9.491  31.576  0.00  0.00    +0.005 C 
ENDBRANCH  18  21
ENDBRANCH   5  18
ENDBRANCH  13  15
ENDBRANCH   7  13
TORSDOF 7
ENDMDL
MODEL 4
REMARK VINA RESULT:      -1.5     17.291     18.937
REMARK  Name = 25313511
REMARK  8 active torsions:
REMARK  status: ('A' for Active; 'I' for Inactive)
REMARK    1  A    between atoms: N_5  and  C_18
REMARK    2  A    between atoms: N_5  and  C_19
REMARK    3  A    between atoms: C_7  and  C_13
REMARK    4  A    between atoms: C_8  and  C_12
REMARK    5  A    between atoms: C_12  and  C_14
REMARK    6  A    between atoms: C_13  and  C_15
REMARK    7  A    between atoms: C_17  and  C_20
REMARK    8  A    between atoms: C_18  and  C_21
REMARK                            x       y       z     vdW  Elec       q    Type
REMARK                         _______ _______ _______ _____ _____    ______ ____
ROOT
ATOM      4  N   UNL     1      -0.472   5.128  24.615  0.00  0.00    -0.316 NA
ATOM      7  C   UNL     1      -2.622   3.265  25.399  0.00  0.00    +0.004 C 
ATOM      8  C   UNL     1      -1.344   2.804  24.658  0.00  0.00    +0.012 C 
ATOM      9  C   UNL     1      -2.320   4.568  26.156  0.00  0.00    +0.019 C 
ATOM     10  C   UNL     1      -0.738   3.935  23.811  0.00  0.00    +0.085 C 
ATOM     11  C   UNL     1      -1.684   5.630  25.260  0.00  0.00    +0.081 C 
ATOM     28  H   UNL     1      -0.081   5.857  24.019  0.00  0.00    +0.122 HD
ENDROOT
BRANCH   8  12
ATOM     12  C   UNL     1      -1.563   1.553  23.805  0.00  0.00    +0.064 C 
BRANCH  12  14
ATOM      3  O   UNL     1       1.075  -0.630  22.694  0.00  0.00    -0.354 OA
ATOM      6  N   UNL     1      -0.263  -0.267  22.788  0.00  0.00    -0.083 NA
ATOM     14  C   UNL     1      -0.265   0.863  23.501  0.00  0.00    +0.085 A 
ATOM     16  C   UNL     1       1.030   1.258  23.880  0.00  0.00    +0.076 A 
ATOM     17  C   UNL     1       1.835   0.285  23.347  0.00  0.00    +0.167 A 
BRANCH  17  20
ATOM      1  F   UNL     1       7.318  -0.656  23.309  0.00  0.00    -0.205 F 
ATOM     20  C   UNL     1       3.249   0.042  23.336  0.00  0.00    +0.020 A 
ATOM     22  C   UNL     1       3.749  -1.187  23.768  0.00  0.00    +0.014 A 
ATOM     23  C   UNL     1       4.124   1.035  22.895  0.00  0.00    +0.014 A 
ATOM     24  C   UNL     1       5.123  -1.423  23.758  0.00  0.00    +0.039 A 
ATOM     25  C   UNL     1       5.499   0.799  22.885  0.00  0.00    +0.039 A 
ATOM     26  C   UNL     1       5.998  -0.430  23.318  0.00  0.00    +0.123 A 
ENDBRANCH  17  20
ENDBRANCH  12  14
ENDBRANCH   8  12
BRANCH   7  13
ATOM     13  C   UNL     1      -3.844   3.433  24.487  0.00  0.00    +0.100 C 
BRANCH  13  15
ATOM      2  O   UNL     1      -5.800   3.890  25.794  0.00  0.00    -0.276 OA
ATOM      5  N   UNL     1      -5.518   1.705  25.066  0.00  0.00    -0.293 N 
ATOM     15  C   UNL     1      -5.140   3.048  25.178  0.00  0.00    +0.216 C 
ATOM     19  C   UNL     1      -6.735   1.183  25.674  0.00  0.00    +0.133 C 
BRANCH   5  18
ATOM     18  C   UNL     1      -4.720   0.726  24.331  0.00  0.00    +0.196 C 
BRANCH  18  21
ATOM     21  C   UNL     1      -4.100  -0.237  25.240  0.00  0.00    -0.086 C 
ATOM     27  C   UNL     1      -3.588  -1.026  25.987  0.00  0.00    +0.005 C 
ENDBRANCH  18  21
ENDBRANCH   5  18
ENDBRANCH  13  15
ENDBRANCH   7  13
TORSDOF 7
ENDMDL
MODEL 5
REMARK VINA RESULT:      -1.1     17.295     18.836
REMARK  Name = 25313511
REMARK  8 active torsions:
REMARK  status: ('A' for Active; 'I' for Inactive)
REMARK    1  A    between atoms: N_5  and  C_18
REMARK    2  A    between atoms: N_5  and  C_19
REMARK    3  A    between atoms: C_7  and  C_13
REMARK    4  A    between atoms: C_8  and  C_12
REMARK    5  A    between atoms: C_12  and  C_14
REMARK    6  A    between atoms: C_13  and  C_15
REMARK    7  A    between atoms: C_17  and  C_20
REMARK    8  A    between atoms: C_18  and  C_21
REMARK                            x       y       z     vdW  Elec       q    Type
REMARK                         _______ _______ _______ _____ _____    ______ ____
ROOT
ATOM      4  N   UNL     1      -6.191   0.890  24.650  0.00  0.00    -0.316 NA
ATOM      7  C   UNL     1      -3.414   1.835  24.334  0.00  0.00    +0.004 C 
ATOM      8  C   UNL     1      -3.785   0.334  24.401  0.00  0.00    +0.012 C 
ATOM      9  C   UNL     1      -4.635   2.632  23.847  0.00  0.00    +0.019 C 
ATOM     10  C   UNL     1      -5.083   0.104  25.192  0.00  0.00    +0.085 C 
ATOM     11  C   UNL     1      -5.895   2.321  24.654  0.00  0.00    +0.081 C 
ATOM     28  H   UNL     1      -7.030   0.718  25.204  0.00  0.00    +0.122 HD
ENDROOT
BRANCH   8  12
ATOM     12  C   UNL     1      -2.656  -0.538  24.954  0.00  0.00    +0.064 C 
BRANCH  12  14
ATOM      3  O   UNL     1       0.010   0.585  22.811  0.00  0.00    -0.354 OA
ATOM      6  N   UNL     1      -1.332   0.500  23.163  0.00  0.00    -0.083 NA
ATOM     14  C   UNL     1      -1.350  -0.236  24.278  0.00  0.00    +0.085 A 
ATOM     16  C   UNL     1      -0.062  -0.639  24.673  0.00  0.00    +0.076 A 
ATOM     17  C   UNL     1       0.756  -0.097  23.717  0.00  0.00    +0.167 A 
BRANCH  17  20
ATOM      1  F   UNL     1       6.245  -0.102  22.811  0.00  0.00    -0.205 F 
ATOM     20  C   UNL     1       2.171  -0.099  23.482  0.00  0.00    +0.020 A 
ATOM     22  C   UNL     1       2.929  -1.226  23.799  0.00  0.00    +0.014 A 
ATOM     23  C   UNL     1       2.788   1.027  22.938  0.00  0.00    +0.014 A 
ATOM     24  C   UNL     1       4.305  -1.227  23.572  0.00  0.00    +0.039 A 
ATOM     25  C   UNL     1       4.165   1.026  22.711  0.00  0.00    +0.039 A 
ATOM     26  C   UNL     1       4.923  -0.101  23.028  0.00  0.00    +0.123 A 
ENDBRANCH  17  20
ENDBRANCH  12  14
ENDBRANCH   8  12
BRANCH   7  13
ATOM     13  C   UNL     1      -2.882   2.404  25.656  0.00  0.00    +0.100 C 
BRANCH  13  15
ATOM      2  O   UNL     1      -3.714   4.620  26.033  0.00  0.00    -0.276 OA
ATOM      5  N   UNL     1      -1.579   4.444  25.143  0.00  0.00    -0.293 N 
ATOM     15  C   UNL     1      -2.779   3.919  25.634  0.00  0.00    +0.216 C 
ATOM     19  C   UNL     1      -1.329   5.878  25.059  0.00  0.00    +0.133 C 
BRANCH   5  18
ATOM     18  C   UNL     1      -0.486   3.595  24.676  0.00  0.00    +0.196 C 
BRANCH  18  21
ATOM     21  C   UNL     1       0.141   2.883  25.788  0.00  0.00    -0.086 C 
ATOM     27  C   UNL     1       0.653   2.299  26.704  0.00  0.00    +0.005 C 
ENDBRANCH  18  21
ENDBRANCH   5  18
ENDBRANCH  13  15
ENDBRANCH   7  13
TORSDOF 7
ENDMDL
