MODEL 1
REMARK VINA RESULT:      -1.1      0.000      0.000
REMARK  Name = 44715968
REMARK  8 active torsions:
REMARK  status: ('A' for Active; 'I' for Inactive)
REMARK    1  A    between atoms: O_2  and  C_26
REMARK    2  A    between atoms: N_4  and  C_15
REMARK    3  A    between atoms: N_5  and  C_17
REMARK    4  A    between atoms: N_5  and  C_19
REMARK    5  A    between atoms: C_9  and  C_16
REMARK    6  A    between atoms: C_10  and  C_15
REMARK    7  A    between atoms: C_17  and  C_21
REMARK    8  A    between atoms: C_20  and  C_22
REMARK                            x       y       z     vdW  Elec       q    Type
REMARK                         _______ _______ _______ _____ _____    ______ ____
ROOT
ATOM      3  N   UNL     1      -3.884  -0.895  24.489  0.00  0.00    -0.297 NA
ATOM      8  C   UNL     1      -2.969   1.529  24.736  0.00  0.00    +0.005 C 
ATOM      9  C   UNL     1      -4.254   1.326  25.566  0.00  0.00    +0.092 C 
ATOM     10  C   UNL     1      -2.586  -0.907  25.217  0.00  0.00    +0.078 C 
ATOM     11  C   UNL     1      -1.939   0.497  25.232  0.00  0.00    +0.025 C 
ATOM     12  C   UNL     1      -3.253   1.188  23.262  0.00  0.00    +0.020 C 
ATOM     13  C   UNL     1      -4.844  -0.064  25.260  0.00  0.00    +0.097 C 
ATOM     14  C   UNL     1      -3.726  -0.269  23.155  0.00  0.00    +0.085 C 
ENDROOT
BRANCH   9  16
ATOM      1  O   UNL     1      -6.346   2.120  24.812  0.00  0.00    -0.275 OA
ATOM      5  N   UNL     1      -4.873   3.710  25.651  0.00  0.00    -0.301 N 
ATOM     16  C   UNL     1      -5.254   2.412  25.307  0.00  0.00    +0.220 C 
ATOM     19  C   UNL     1      -5.748   4.858  25.453  0.00  0.00    +0.132 C 
BRANCH   5  17
ATOM     17  C   UNL     1      -3.568   4.011  26.234  0.00  0.00    +0.134 C 
BRANCH  17  21
ATOM     21  C   UNL     1      -2.770   4.809  25.256  0.00  0.00    -0.016 C 
ATOM     23  C   UNL     1      -1.434   4.787  25.191  0.00  0.00    +0.005 C 
ENDBRANCH  17  21
ENDBRANCH   5  17
ENDBRANCH   9  16
BRANCH  10  15
ATOM     15  C   UNL     1      -1.627  -1.967  24.671  0.00  0.00    +0.164 C 
BRANCH  15   4
ATOM      4  N   UNL     1      -0.463  -1.342  23.957  0.00  0.00    -0.250 N 
ATOM      6  N   UNL     1      -0.623  -0.770  22.752  0.00  0.00    -0.065 NA
ATOM      7  N   UNL     1       0.564  -0.309  22.373  0.00  0.00    -0.130 NA
ATOM     18  C   UNL     1       0.828  -1.262  24.381  0.00  0.00    +0.138 A 
ATOM     20  C   UNL     1       1.463  -0.602  23.359  0.00  0.00    +0.113 A 
BRANCH  20  22
ATOM     22  C   UNL     1       2.851  -0.266  23.320  0.00  0.00    +0.007 A 
ATOM     24  C   UNL     1       3.798  -1.155  23.832  0.00  0.00    +0.055 A 
ATOM     25  C   UNL     1       3.259   0.949  22.771  0.00  0.00    +0.010 A 
ATOM     26  C   UNL     1       5.154  -0.826  23.793  0.00  0.00    +0.117 A 
ATOM     27  C   UNL     1       4.613   1.277  22.734  0.00  0.00    +0.004 A 
ATOM     28  C   UNL     1       5.561   0.390  23.244  0.00  0.00    +0.045 A 
BRANCH  26   2
ATOM      2  O   UNL     1       6.077  -1.691  24.292  0.00  0.00    -0.507 OA
ATOM     29  H   UNL     1       6.294  -1.433  25.205  0.00  0.00    +0.292 HD
ENDBRANCH  26   2
ENDBRANCH  20  22
ENDBRANCH  15   4
ENDBRANCH  10  15
TORSDOF 7
ENDMDL
MODEL 2
REMARK VINA RESULT:       2.7      1.330      1.731
REMARK  Name = 44715968
REMARK  8 active torsions:
REMARK  status: ('A' for Active; 'I' for Inactive)
REMARK    1  A    between atoms: O_2  and  C_26
REMARK    2  A    between atoms: N_4  and  C_15
REMARK    3  A    between atoms: N_5  and  C_17
REMARK    4  A    between atoms: N_5  and  C_19
REMARK    5  A    between atoms: C_9  and  C_16
REMARK    6  A    between atoms: C_10  and  C_15
REMARK    7  A    between atoms: C_17  and  C_21
REMARK    8  A    between atoms: C_20  and  C_22
REMARK                            x       y       z     vdW  Elec       q    Type
REMARK                         _______ _______ _______ _____ _____    ______ ____
ROOT
ATOM      3  N   UNL     1      -4.157  -0.794  23.952  0.00  0.00    -0.297 NA
ATOM      8  C   UNL     1      -2.891   1.289  24.865  0.00  0.00    +0.005 C 
ATOM      9  C   UNL     1      -4.323   1.208  25.433  0.00  0.00    +0.092 C 
ATOM     10  C   UNL     1      -3.041  -1.219  24.839  0.00  0.00    +0.078 C 
ATOM     11  C   UNL     1      -2.170  -0.014  25.261  0.00  0.00    +0.025 C 
ATOM     12  C   UNL     1      -2.951   1.303  23.328  0.00  0.00    +0.020 C 
ATOM     13  C   UNL     1      -5.082   0.060  24.741  0.00  0.00    +0.097 C 
ATOM     14  C   UNL     1      -3.645   0.027  22.830  0.00  0.00    +0.085 C 
ENDROOT
BRANCH   9  16
ATOM      1  O   UNL     1      -6.207   2.509  24.854  0.00  0.00    -0.275 OA
ATOM      5  N   UNL     1      -4.352   3.663  25.644  0.00  0.00    -0.301 N 
ATOM     16  C   UNL     1      -5.050   2.511  25.282  0.00  0.00    +0.220 C 
ATOM     19  C   UNL     1      -4.938   4.993  25.547  0.00  0.00    +0.132 C 
BRANCH   5  17
ATOM     17  C   UNL     1      -2.981   3.620  26.146  0.00  0.00    +0.134 C 
BRANCH  17  21
ATOM     21  C   UNL     1      -2.178   4.678  25.464  0.00  0.00    -0.016 C 
ATOM     23  C   UNL     1      -0.946   4.485  24.980  0.00  0.00    +0.005 C 
ENDBRANCH  17  21
ENDBRANCH   5  17
ENDBRANCH   9  16
BRANCH  10  15
ATOM     15  C   UNL     1      -2.199  -2.334  24.214  0.00  0.00    +0.164 C 
BRANCH  15   4
ATOM      4  N   UNL     1      -0.729  -2.085  24.398  0.00  0.00    -0.250 N 
ATOM      6  N   UNL     1      -0.061  -2.644  25.420  0.00  0.00    -0.065 NA
ATOM      7  N   UNL     1       1.205  -2.249  25.327  0.00  0.00    -0.130 NA
ATOM     18  C   UNL     1       0.088  -1.318  23.624  0.00  0.00    +0.138 A 
ATOM     20  C   UNL     1       1.312  -1.437  24.233  0.00  0.00    +0.113 A 
BRANCH  20  22
ATOM     22  C   UNL     1       2.521  -0.812  23.800  0.00  0.00    +0.007 A 
ATOM     24  C   UNL     1       2.486   0.469  23.250  0.00  0.00    +0.055 A 
ATOM     25  C   UNL     1       3.736  -1.484  23.927  0.00  0.00    +0.010 A 
ATOM     26  C   UNL     1       3.668   1.079  22.827  0.00  0.00    +0.117 A 
ATOM     27  C   UNL     1       4.917  -0.875  23.503  0.00  0.00    +0.004 A 
ATOM     28  C   UNL     1       4.883   0.406  22.954  0.00  0.00    +0.045 A 
BRANCH  26   2
ATOM      2  O   UNL     1       3.634   2.328  22.289  0.00  0.00    -0.507 OA
ATOM     29  H   UNL     1       3.307   2.953  22.959  0.00  0.00    +0.292 HD
ENDBRANCH  26   2
ENDBRANCH  20  22
ENDBRANCH  15   4
ENDBRANCH  10  15
TORSDOF 7
ENDMDL
MODEL 3
REMARK VINA RESULT:       2.8      1.280      2.029
REMARK  Name = 44715968
REMARK  8 active torsions:
REMARK  status: ('A' for Active; 'I' for Inactive)
REMARK    1  A    between atoms: O_2  and  C_26
REMARK    2  A    between atoms: N_4  and  C_15
REMARK    3  A    between atoms: N_5  and  C_17
REMARK    4  A    between atoms: N_5  and  C_19
REMARK    5  A    between atoms: C_9  and  C_16
REMARK    6  A    between atoms: C_10  and  C_15
REMARK    7  A    between atoms: C_17  and  C_21
REMARK    8  A    between atoms: C_20  and  C_22
REMARK                            x       y       z     vdW  Elec       q    Type
REMARK                         _______ _______ _______ _____ _____    ______ ____
ROOT
ATOM      3  N   UNL     1      -3.317   0.358  23.882  0.00  0.00    -0.297 NA
ATOM      8  C   UNL     1      -1.815   2.040  25.182  0.00  0.00    +0.005 C 
ATOM      9  C   UNL     1      -3.264   2.057  25.710  0.00  0.00    +0.092 C 
ATOM     10  C   UNL     1      -2.301  -0.374  24.686  0.00  0.00    +0.078 C 
ATOM     11  C   UNL     1      -1.292   0.600  25.335  0.00  0.00    +0.025 C 
ATOM     12  C   UNL     1      -1.816   2.345  23.673  0.00  0.00    +0.020 C 
ATOM     13  C   UNL     1      -4.146   1.173  24.808  0.00  0.00    +0.097 C 
ATOM     14  C   UNL     1      -2.659   1.292  22.939  0.00  0.00    +0.085 C 
ENDROOT
BRANCH   9  16
ATOM      1  O   UNL     1      -3.064   4.360  26.194  0.00  0.00    -0.275 OA
ATOM      5  N   UNL     1      -5.131   3.639  25.414  0.00  0.00    -0.301 N 
ATOM     16  C   UNL     1      -3.802   3.455  25.797  0.00  0.00    +0.220 C 
ATOM     19  C   UNL     1      -5.778   4.944  25.450  0.00  0.00    +0.132 C 
BRANCH   5  17
ATOM     17  C   UNL     1      -5.970   2.538  24.950  0.00  0.00    +0.134 C 
BRANCH  17  21
ATOM     21  C   UNL     1      -6.883   2.121  26.055  0.00  0.00    -0.016 C 
ATOM     23  C   UNL     1      -6.460   1.704  27.254  0.00  0.00    +0.005 C 
ENDBRANCH  17  21
ENDBRANCH   5  17
ENDBRANCH   9  16
BRANCH  10  15
ATOM     15  C   UNL     1      -1.596  -1.462  23.872  0.00  0.00    +0.164 C 
BRANCH  15   4
ATOM      4  N   UNL     1      -0.276  -0.983  23.339  0.00  0.00    -0.250 N 
ATOM      6  N   UNL     1      -0.183  -0.467  22.102  0.00  0.00    -0.065 NA
ATOM      7  N   UNL     1       1.090  -0.135  21.908  0.00  0.00    -0.130 NA
ATOM     18  C   UNL     1       0.930  -0.995  23.970  0.00  0.00    +0.138 A 
ATOM     20  C   UNL     1       1.784  -0.451  23.042  0.00  0.00    +0.113 A 
BRANCH  20  22
ATOM     22  C   UNL     1       3.185  -0.243  23.223  0.00  0.00    +0.007 A 
ATOM     24  C   UNL     1       3.985  -1.273  23.718  0.00  0.00    +0.055 A 
ATOM     25  C   UNL     1       3.753   0.990  22.904  0.00  0.00    +0.010 A 
ATOM     26  C   UNL     1       5.355  -1.068  23.894  0.00  0.00    +0.117 A 
ATOM     27  C   UNL     1       5.121   1.194  23.080  0.00  0.00    +0.004 A 
ATOM     28  C   UNL     1       5.922   0.165  23.575  0.00  0.00    +0.045 A 
BRANCH  26   2
ATOM      2  O   UNL     1       6.136  -2.072  24.377  0.00  0.00    -0.507 OA
ATOM     29  H   UNL     1       6.010  -2.136  25.340  0.00  0.00    +0.292 HD
ENDBRANCH  26   2
ENDBRANCH  20  22
ENDBRANCH  15   4
ENDBRANCH  10  15
TORSDOF 7
ENDMDL
