MODEL 1
REMARK VINA RESULT:      -2.1      0.000      0.000
REMARK  Name = 40780260
REMARK  8 active torsions:
REMARK  status: ('A' for Active; 'I' for Inactive)
REMARK    1  A    between atoms: O_1  and  C_20
REMARK    2  A    between atoms: O_1  and  C_22
REMARK    3  A    between atoms: N_4  and  C_14
REMARK    4  A    between atoms: N_5  and  C_15
REMARK    5  A    between atoms: N_6  and  C_23
REMARK    6  A    between atoms: C_8  and  C_14
REMARK    7  A    between atoms: C_10  and  C_15
REMARK    8  A    between atoms: C_16  and  C_20
REMARK                            x       y       z     vdW  Elec       q    Type
REMARK                         _______ _______ _______ _____ _____    ______ ____
ROOT
ATOM      3  N   UNL     1      -4.096   3.339  26.134  0.00  0.00    -0.298 NA
ATOM      7  C   UNL     1      -3.954   3.059  23.551  0.00  0.00    -0.003 C 
ATOM      8  C   UNL     1      -4.243   1.705  24.238  0.00  0.00    +0.020 C 
ATOM      9  C   UNL     1      -2.650   3.650  24.117  0.00  0.00    +0.024 C 
ATOM     10  C   UNL     1      -2.830   3.934  25.625  0.00  0.00    +0.074 C 
ATOM     11  C   UNL     1      -4.172   1.903  25.769  0.00  0.00    +0.089 C 
ATOM     12  C   UNL     1      -5.098   4.014  23.948  0.00  0.00    +0.019 C 
ATOM     13  C   UNL     1      -5.226   4.042  25.480  0.00  0.00    +0.085 C 
ENDROOT
BRANCH   8  14
ATOM     14  C   UNL     1      -3.316   0.584  23.773  0.00  0.00    +0.089 C 
BRANCH  14   4
ATOM      4  N   UNL     1      -3.727  -0.700  24.330  0.00  0.00    -0.297 NA
ATOM     16  C   UNL     1      -2.603  -1.507  24.823  0.00  0.00    +0.082 C 
ATOM     17  C   UNL     1      -4.379  -1.538  23.320  0.00  0.00    +0.085 C 
ATOM     18  C   UNL     1      -3.220  -2.901  24.947  0.00  0.00    +0.022 C 
ATOM     19  C   UNL     1      -4.380  -2.918  23.956  0.00  0.00    +0.017 C 
BRANCH  16  20
ATOM     20  C   UNL     1      -2.045  -1.016  26.153  0.00  0.00    +0.178 C 
BRANCH  20   1
ATOM      1  O   UNL     1      -0.631  -0.974  26.062  0.00  0.00    -0.381 OA
ATOM     22  C   UNL     1      -0.112  -2.118  25.393  0.00  0.00    +0.194 C 
ENDBRANCH  20   1
ENDBRANCH  16  20
ENDBRANCH  14   4
ENDBRANCH   8  14
BRANCH  10  15
ATOM     15  C   UNL     1      -1.611   3.492  26.437  0.00  0.00    +0.124 C 
BRANCH  15   5
ATOM      2  O   UNL     1       0.363   3.443  24.361  0.00  0.00    -0.253 OA
ATOM      5  N   UNL     1      -1.007   2.331  25.858  0.00  0.00    -0.298 N 
ATOM      6  N   UNL     1       0.366   1.097  24.472  0.00  0.00    -0.269 N 
ATOM     21  C   UNL     1      -0.041   2.384  24.838  0.00  0.00    +0.304 C 
ATOM     29  H   UNL     1      -1.293   1.419  26.201  0.00  0.00    +0.150 HD
ATOM     30  H   UNL     1      -0.070   0.325  24.967  0.00  0.00    +0.156 HD
BRANCH   6  23
ATOM     23  C   UNL     1       1.316   0.734  23.490  0.00  0.00    +0.035 A 
ATOM     24  C   UNL     1       2.617   1.235  23.559  0.00  0.00    +0.023 A 
ATOM     25  C   UNL     1       0.954  -0.123  22.451  0.00  0.00    +0.023 A 
ATOM     26  C   UNL     1       3.555   0.877  22.590  0.00  0.00    +0.002 A 
ATOM     27  C   UNL     1       1.891  -0.480  21.482  0.00  0.00    +0.002 A 
ATOM     28  C   UNL     1       3.192   0.020  21.552  0.00  0.00    +0.000 A 
ENDBRANCH   6  23
ENDBRANCH  15   5
ENDBRANCH  10  15
TORSDOF 7
ENDMDL
MODEL 2
REMARK VINA RESULT:      -1.8      1.690      4.341
REMARK  Name = 40780260
REMARK  8 active torsions:
REMARK  status: ('A' for Active; 'I' for Inactive)
REMARK    1  A    between atoms: O_1  and  C_20
REMARK    2  A    between atoms: O_1  and  C_22
REMARK    3  A    between atoms: N_4  and  C_14
REMARK    4  A    between atoms: N_5  and  C_15
REMARK    5  A    between atoms: N_6  and  C_23
REMARK    6  A    between atoms: C_8  and  C_14
REMARK    7  A    between atoms: C_10  and  C_15
REMARK    8  A    between atoms: C_16  and  C_20
REMARK                            x       y       z     vdW  Elec       q    Type
REMARK                         _______ _______ _______ _____ _____    ______ ____
ROOT
ATOM      3  N   UNL     1      -3.473  -1.050  23.495  0.00  0.00    -0.298 NA
ATOM      7  C   UNL     1      -3.422  -0.648  26.065  0.00  0.00    -0.003 C 
ATOM      8  C   UNL     1      -4.628   0.073  25.417  0.00  0.00    +0.020 C 
ATOM      9  C   UNL     1      -2.121  -0.160  25.401  0.00  0.00    +0.024 C 
ATOM     10  C   UNL     1      -2.134  -0.549  23.906  0.00  0.00    +0.074 C 
ATOM     11  C   UNL     1      -4.526  -0.079  23.883  0.00  0.00    +0.089 C 
ATOM     12  C   UNL     1      -3.568  -2.146  25.736  0.00  0.00    +0.019 C 
ATOM     13  C   UNL     1      -3.728  -2.320  24.216  0.00  0.00    +0.085 C 
ENDROOT
BRANCH   8  14
ATOM     14  C   UNL     1      -4.748   1.537  25.832  0.00  0.00    +0.089 C 
BRANCH  14   4
ATOM      4  N   UNL     1      -3.948   2.394  24.964  0.00  0.00    -0.297 NA
ATOM     16  C   UNL     1      -3.373   3.553  25.659  0.00  0.00    +0.082 C 
ATOM     17  C   UNL     1      -4.757   2.965  23.882  0.00  0.00    +0.085 C 
ATOM     18  C   UNL     1      -2.969   4.471  24.504  0.00  0.00    +0.022 C 
ATOM     19  C   UNL     1      -3.881   4.085  23.344  0.00  0.00    +0.017 C 
BRANCH  16  20
ATOM     20  C   UNL     1      -2.183   3.198  26.542  0.00  0.00    +0.178 C 
BRANCH  20   1
ATOM      1  O   UNL     1      -1.014   3.182  25.741  0.00  0.00    -0.381 OA
ATOM     22  C   UNL     1       0.104   2.663  26.452  0.00  0.00    +0.194 C 
ENDBRANCH  20   1
ENDBRANCH  16  20
ENDBRANCH  14   4
ENDBRANCH   8  14
BRANCH  10  15
ATOM     15  C   UNL     1      -1.641   0.595  23.017  0.00  0.00    +0.124 C 
BRANCH  15   5
ATOM      2  O   UNL     1       0.780   0.487  24.544  0.00  0.00    -0.253 OA
ATOM      5  N   UNL     1      -0.327   0.324  22.519  0.00  0.00    -0.298 N 
ATOM      6  N   UNL     1       1.958   0.001  22.572  0.00  0.00    -0.269 N 
ATOM     21  C   UNL     1       0.820   0.288  23.332  0.00  0.00    +0.304 C 
ATOM     29  H   UNL     1      -0.216   0.152  21.525  0.00  0.00    +0.150 HD
ATOM     30  H   UNL     1       1.817  -0.137  21.575  0.00  0.00    +0.156 HD
BRANCH   6  23
ATOM     23  C   UNL     1       3.293  -0.122  23.022  0.00  0.00    +0.035 A 
ATOM     24  C   UNL     1       4.162   0.966  22.931  0.00  0.00    +0.023 A 
ATOM     25  C   UNL     1       3.742  -1.330  23.555  0.00  0.00    +0.023 A 
ATOM     26  C   UNL     1       5.480   0.845  23.373  0.00  0.00    +0.002 A 
ATOM     27  C   UNL     1       5.059  -1.451  23.997  0.00  0.00    +0.002 A 
ATOM     28  C   UNL     1       5.928  -0.363  23.906  0.00  0.00    +0.000 A 
ENDBRANCH   6  23
ENDBRANCH  15   5
ENDBRANCH  10  15
TORSDOF 7
ENDMDL
MODEL 3
REMARK VINA RESULT:      -1.5      1.740      4.745
REMARK  Name = 40780260
REMARK  8 active torsions:
REMARK  status: ('A' for Active; 'I' for Inactive)
REMARK    1  A    between atoms: O_1  and  C_20
REMARK    2  A    between atoms: O_1  and  C_22
REMARK    3  A    between atoms: N_4  and  C_14
REMARK    4  A    between atoms: N_5  and  C_15
REMARK    5  A    between atoms: N_6  and  C_23
REMARK    6  A    between atoms: C_8  and  C_14
REMARK    7  A    between atoms: C_10  and  C_15
REMARK    8  A    between atoms: C_16  and  C_20
REMARK                            x       y       z     vdW  Elec       q    Type
REMARK                         _______ _______ _______ _____ _____    ______ ____
ROOT
ATOM      3  N   UNL     1      -3.983  -1.470  23.829  0.00  0.00    -0.298 NA
ATOM      7  C   UNL     1      -3.684   0.798  25.068  0.00  0.00    -0.003 C 
ATOM      8  C   UNL     1      -3.350   0.942  23.565  0.00  0.00    +0.020 C 
ATOM      9  C   UNL     1      -2.790  -0.293  25.686  0.00  0.00    +0.024 C 
ATOM     10  C   UNL     1      -3.106  -1.650  25.018  0.00  0.00    +0.074 C 
ATOM     11  C   UNL     1      -3.404  -0.457  22.912  0.00  0.00    +0.089 C 
ATOM     12  C   UNL     1      -5.140   0.301  25.157  0.00  0.00    +0.019 C 
ATOM     13  C   UNL     1      -5.296  -0.968  24.301  0.00  0.00    +0.085 C 
ENDROOT
BRANCH   8  14
ATOM     14  C   UNL     1      -2.013   1.632  23.309  0.00  0.00    +0.089 C 
BRANCH  14   4
ATOM      4  N   UNL     1      -1.627   2.464  24.442  0.00  0.00    -0.297 NA
ATOM     16  C   UNL     1      -1.843   3.899  24.211  0.00  0.00    +0.082 C 
ATOM     17  C   UNL     1      -0.196   2.340  24.737  0.00  0.00    +0.085 C 
ATOM     18  C   UNL     1      -1.002   4.547  25.313  0.00  0.00    +0.022 C 
ATOM     19  C   UNL     1       0.077   3.523  25.650  0.00  0.00    +0.017 C 
BRANCH  16  20
ATOM     20  C   UNL     1      -3.306   4.312  24.300  0.00  0.00    +0.178 C 
BRANCH  20   1
ATOM      1  O   UNL     1      -3.771   4.052  25.613  0.00  0.00    -0.381 OA
ATOM     22  C   UNL     1      -5.185   3.891  25.649  0.00  0.00    +0.194 C 
ENDBRANCH  20   1
ENDBRANCH  16  20
ENDBRANCH  14   4
ENDBRANCH   8  14
BRANCH  10  15
ATOM     15  C   UNL     1      -1.832  -2.433  24.690  0.00  0.00    +0.124 C 
BRANCH  15   5
ATOM      2  O   UNL     1       0.987  -2.208  25.144  0.00  0.00    -0.253 OA
ATOM      5  N   UNL     1      -0.910  -1.621  23.956  0.00  0.00    -0.298 N 
ATOM      6  N   UNL     1       1.115  -0.687  23.360  0.00  0.00    -0.269 N 
ATOM     21  C   UNL     1       0.466  -1.561  24.238  0.00  0.00    +0.304 C 
ATOM     29  H   UNL     1      -1.269  -1.056  23.193  0.00  0.00    +0.150 HD
ATOM     30  H   UNL     1       0.534  -0.227  22.664  0.00  0.00    +0.156 HD
BRANCH   6  23
ATOM     23  C   UNL     1       2.489  -0.358  23.320  0.00  0.00    +0.035 A 
ATOM     24  C   UNL     1       3.439  -1.279  23.764  0.00  0.00    +0.023 A 
ATOM     25  C   UNL     1       2.896   0.885  22.837  0.00  0.00    +0.023 A 
ATOM     26  C   UNL     1       4.795  -0.955  23.726  0.00  0.00    +0.002 A 
ATOM     27  C   UNL     1       4.253   1.209  22.798  0.00  0.00    +0.002 A 
ATOM     28  C   UNL     1       5.202   0.288  23.243  0.00  0.00    +0.000 A 
ENDBRANCH   6  23
ENDBRANCH  15   5
ENDBRANCH  10  15
TORSDOF 7
ENDMDL
MODEL 4
REMARK VINA RESULT:      -1.1      2.369      5.435
REMARK  Name = 40780260
REMARK  8 active torsions:
REMARK  status: ('A' for Active; 'I' for Inactive)
REMARK    1  A    between atoms: O_1  and  C_20
REMARK    2  A    between atoms: O_1  and  C_22
REMARK    3  A    between atoms: N_4  and  C_14
REMARK    4  A    between atoms: N_5  and  C_15
REMARK    5  A    between atoms: N_6  and  C_23
REMARK    6  A    between atoms: C_8  and  C_14
REMARK    7  A    between atoms: C_10  and  C_15
REMARK    8  A    between atoms: C_16  and  C_20
REMARK                            x       y       z     vdW  Elec       q    Type
REMARK                         _______ _______ _______ _____ _____    ______ ____
ROOT
ATOM      3  N   UNL     1      -1.761  -2.270  23.831  0.00  0.00    -0.298 NA
ATOM      7  C   UNL     1      -3.956  -2.238  25.227  0.00  0.00    -0.003 C 
ATOM      8  C   UNL     1      -3.834  -0.963  24.360  0.00  0.00    +0.020 C 
ATOM      9  C   UNL     1      -2.720  -2.353  26.139  0.00  0.00    +0.024 C 
ATOM     10  C   UNL     1      -1.455  -2.515  25.266  0.00  0.00    +0.074 C 
ATOM     11  C   UNL     1      -2.453  -0.968  23.668  0.00  0.00    +0.089 C 
ATOM     12  C   UNL     1      -3.925  -3.439  24.263  0.00  0.00    +0.019 C 
ATOM     13  C   UNL     1      -2.677  -3.341  23.369  0.00  0.00    +0.085 C 
ENDROOT
BRANCH   8  14
ATOM     14  C   UNL     1      -4.065   0.325  25.147  0.00  0.00    +0.089 C 
BRANCH  14   4
ATOM      4  N   UNL     1      -3.576   1.483  24.409  0.00  0.00    -0.297 NA
ATOM     16  C   UNL     1      -4.580   2.545  24.260  0.00  0.00    +0.082 C 
ATOM     17  C   UNL     1      -3.198   1.126  23.038  0.00  0.00    +0.085 C 
ATOM     18  C   UNL     1      -3.993   3.408  23.141  0.00  0.00    +0.022 C 
ATOM     19  C   UNL     1      -3.092   2.472  22.342  0.00  0.00    +0.017 C 
BRANCH  16  20
ATOM     20  C   UNL     1      -4.804   3.349  25.535  0.00  0.00    +0.178 C 
BRANCH  20   1
ATOM      1  O   UNL     1      -6.172   3.255  25.894  0.00  0.00    -0.381 OA
ATOM     22  C   UNL     1      -6.456   2.034  26.568  0.00  0.00    +0.194 C 
ENDBRANCH  20   1
ENDBRANCH  16  20
ENDBRANCH  14   4
ENDBRANCH   8  14
BRANCH  10  15
ATOM     15  C   UNL     1      -0.300  -1.649  25.773  0.00  0.00    +0.124 C 
BRANCH  15   5
ATOM      2  O   UNL     1       0.128   0.745  24.258  0.00  0.00    -0.253 OA
ATOM      5  N   UNL     1      -0.756  -0.334  26.104  0.00  0.00    -0.298 N 
ATOM      6  N   UNL     1      -1.072   1.942  25.883  0.00  0.00    -0.269 N 
ATOM     21  C   UNL     1      -0.507   0.799  25.309  0.00  0.00    +0.304 C 
ATOM     29  H   UNL     1      -1.286  -0.211  26.962  0.00  0.00    +0.150 HD
ATOM     30  H   UNL     1      -1.567   1.813  26.761  0.00  0.00    +0.156 HD
BRANCH   6  23
ATOM     23  C   UNL     1      -1.041   3.267  25.389  0.00  0.00    +0.035 A 
ATOM     24  C   UNL     1      -0.148   3.611  24.373  0.00  0.00    +0.023 A 
ATOM     25  C   UNL     1      -1.901   4.229  25.917  0.00  0.00    +0.023 A 
ATOM     26  C   UNL     1      -0.116   4.918  23.886  0.00  0.00    +0.002 A 
ATOM     27  C   UNL     1      -1.868   5.536  25.430  0.00  0.00    +0.002 A 
ATOM     28  C   UNL     1      -0.976   5.880  24.414  0.00  0.00    +0.000 A 
ENDBRANCH   6  23
ENDBRANCH  15   5
ENDBRANCH  10  15
TORSDOF 7
ENDMDL
MODEL 5
REMARK VINA RESULT:      -1.0     14.739     17.761
REMARK  Name = 40780260
REMARK  8 active torsions:
REMARK  status: ('A' for Active; 'I' for Inactive)
REMARK    1  A    between atoms: O_1  and  C_20
REMARK    2  A    between atoms: O_1  and  C_22
REMARK    3  A    between atoms: N_4  and  C_14
REMARK    4  A    between atoms: N_5  and  C_15
REMARK    5  A    between atoms: N_6  and  C_23
REMARK    6  A    between atoms: C_8  and  C_14
REMARK    7  A    between atoms: C_10  and  C_15
REMARK    8  A    between atoms: C_16  and  C_20
REMARK                            x       y       z     vdW  Elec       q    Type
REMARK                         _______ _______ _______ _____ _____    ______ ____
ROOT
ATOM      3  N   UNL     1      -5.122  -8.543  11.751  0.00  0.00    -0.298 NA
ATOM      7  C   UNL     1      -5.426  -8.530   9.167  0.00  0.00    -0.003 C 
ATOM      8  C   UNL     1      -6.732  -8.961   9.874  0.00  0.00    +0.020 C 
ATOM      9  C   UNL     1      -4.285  -9.474   9.586  0.00  0.00    +0.024 C 
ATOM     10  C   UNL     1      -4.043  -9.341  11.106  0.00  0.00    +0.074 C 
ATOM     11  C   UNL     1      -6.452  -9.090  11.388  0.00  0.00    +0.089 C 
ATOM     12  C   UNL     1      -5.074  -7.126   9.694  0.00  0.00    +0.019 C 
ATOM     13  C   UNL     1      -5.036  -7.156  11.232  0.00  0.00    +0.085 C 
ENDROOT
BRANCH   8  14
ATOM     14  C   UNL     1      -7.333 -10.241   9.302  0.00  0.00    +0.089 C 
BRANCH  14   4
ATOM      4  N   UNL     1      -8.702 -10.431   9.768  0.00  0.00    -0.297 NA
ATOM     16  C   UNL     1      -9.529  -9.222   9.653  0.00  0.00    +0.082 C 
ATOM     17  C   UNL     1      -8.740 -10.781  11.191  0.00  0.00    +0.085 C 
ATOM     18  C   UNL     1     -10.719  -9.543  10.559  0.00  0.00    +0.022 C 
ATOM     19  C   UNL     1     -10.195 -10.560  11.567  0.00  0.00    +0.017 C 
BRANCH  16  20
ATOM     20  C   UNL     1      -9.969  -8.925   8.225  0.00  0.00    +0.178 C 
BRANCH  20   1
ATOM      1  O   UNL     1     -10.273  -7.544   8.124  0.00  0.00    -0.381 OA
ATOM     22  C   UNL     1      -9.149  -6.733   8.446  0.00  0.00    +0.194 C 
ENDBRANCH  20   1
ENDBRANCH  16  20
ENDBRANCH  14   4
ENDBRANCH   8  14
BRANCH  10  15
ATOM     15  C   UNL     1      -3.849 -10.704  11.774  0.00  0.00    +0.124 C 
BRANCH  15   5
ATOM      2  O   UNL     1      -6.006 -10.766  13.657  0.00  0.00    -0.253 OA
ATOM      5  N   UNL     1      -3.748 -10.567  13.194  0.00  0.00    -0.298 N 
ATOM      6  N   UNL     1      -4.454 -10.445  15.389  0.00  0.00    -0.269 N 
ATOM     21  C   UNL     1      -4.856 -10.607  14.060  0.00  0.00    +0.304 C 
ATOM     29  H   UNL     1      -2.828 -10.429  13.599  0.00  0.00    +0.150 HD
ATOM     30  H   UNL     1      -3.458 -10.323  15.551  0.00  0.00    +0.156 HD
BRANCH   6  23
ATOM     23  C   UNL     1      -5.267 -10.429  16.546  0.00  0.00    +0.035 A 
ATOM     24  C   UNL     1      -4.683 -10.521  17.809  0.00  0.00    +0.023 A 
ATOM     25  C   UNL     1      -6.652 -10.322  16.424  0.00  0.00    +0.023 A 
ATOM     26  C   UNL     1      -5.484 -10.506  18.951  0.00  0.00    +0.002 A 
ATOM     27  C   UNL     1      -7.454 -10.306  17.565  0.00  0.00    +0.002 A 
ATOM     28  C   UNL     1      -6.870 -10.398  18.829  0.00  0.00    +0.000 A 
ENDBRANCH   6  23
ENDBRANCH  15   5
ENDBRANCH  10  15
TORSDOF 7
ENDMDL
MODEL 6
REMARK VINA RESULT:      -0.9      2.316      5.371
REMARK  Name = 40780260
REMARK  8 active torsions:
REMARK  status: ('A' for Active; 'I' for Inactive)
REMARK    1  A    between atoms: O_1  and  C_20
REMARK    2  A    between atoms: O_1  and  C_22
REMARK    3  A    between atoms: N_4  and  C_14
REMARK    4  A    between atoms: N_5  and  C_15
REMARK    5  A    between atoms: N_6  and  C_23
REMARK    6  A    between atoms: C_8  and  C_14
REMARK    7  A    between atoms: C_10  and  C_15
REMARK    8  A    between atoms: C_16  and  C_20
REMARK                            x       y       z     vdW  Elec       q    Type
REMARK                         _______ _______ _______ _____ _____    ______ ____
ROOT
ATOM      3  N   UNL     1      -1.966  -2.428  23.671  0.00  0.00    -0.298 NA
ATOM      7  C   UNL     1      -3.804  -1.983  25.458  0.00  0.00    -0.003 C 
ATOM      8  C   UNL     1      -3.720  -0.814  24.449  0.00  0.00    +0.020 C 
ATOM      9  C   UNL     1      -2.427  -2.186  26.117  0.00  0.00    +0.024 C 
ATOM     10  C   UNL     1      -1.399  -2.590  25.037  0.00  0.00    +0.074 C 
ATOM     11  C   UNL     1      -2.523  -1.063  23.504  0.00  0.00    +0.089 C 
ATOM     12  C   UNL     1      -4.112  -3.254  24.644  0.00  0.00    +0.019 C 
ATOM     13  C   UNL     1      -3.074  -3.401  23.518  0.00  0.00    +0.085 C 
ENDROOT
BRANCH   8  14
ATOM     14  C   UNL     1      -3.633   0.555  25.118  0.00  0.00    +0.089 C 
BRANCH  14   4
ATOM      4  N   UNL     1      -4.874   1.301  24.947  0.00  0.00    -0.297 NA
ATOM     16  C   UNL     1      -4.663   2.736  24.710  0.00  0.00    +0.082 C 
ATOM     17  C   UNL     1      -5.709   1.236  26.150  0.00  0.00    +0.085 C 
ATOM     18  C   UNL     1      -6.047   3.328  24.984  0.00  0.00    +0.022 C 
ATOM     19  C   UNL     1      -6.725   2.345  25.932  0.00  0.00    +0.017 C 
BRANCH  16  20
ATOM     20  C   UNL     1      -4.183   3.051  23.299  0.00  0.00    +0.178 C 
BRANCH  20   1
ATOM      1  O   UNL     1      -2.920   2.438  23.103  0.00  0.00    -0.381 OA
ATOM     22  C   UNL     1      -2.625   2.269  21.721  0.00  0.00    +0.194 C 
ENDBRANCH  20   1
ENDBRANCH  16  20
ENDBRANCH  14   4
ENDBRANCH   8  14
BRANCH  10  15
ATOM     15  C   UNL     1      -0.072  -1.847  25.209  0.00  0.00    +0.124 C 
BRANCH  15   5
ATOM      2  O   UNL     1      -0.449   0.639  23.837  0.00  0.00    -0.253 OA
ATOM      5  N   UNL     1      -0.280  -0.564  25.806  0.00  0.00    -0.298 N 
ATOM      6  N   UNL     1      -0.639   1.714  25.915  0.00  0.00    -0.269 N 
ATOM     21  C   UNL     1      -0.458   0.619  25.066  0.00  0.00    +0.304 C 
ATOM     29  H   UNL     1      -0.296  -0.502  26.820  0.00  0.00    +0.150 HD
ATOM     30  H   UNL     1      -0.617   1.524  26.913  0.00  0.00    +0.156 HD
BRANCH   6  23
ATOM     23  C   UNL     1      -0.848   3.066  25.556  0.00  0.00    +0.035 A 
ATOM     24  C   UNL     1       0.022   3.692  24.663  0.00  0.00    +0.023 A 
ATOM     25  C   UNL     1      -1.923   3.772  26.094  0.00  0.00    +0.023 A 
ATOM     26  C   UNL     1      -0.184   5.026  24.309  0.00  0.00    +0.002 A 
ATOM     27  C   UNL     1      -2.129   5.106  25.740  0.00  0.00    +0.002 A 
ATOM     28  C   UNL     1      -1.259   5.733  24.847  0.00  0.00    +0.000 A 
ENDBRANCH   6  23
ENDBRANCH  15   5
ENDBRANCH  10  15
TORSDOF 7
ENDMDL
MODEL 7
REMARK VINA RESULT:      -0.3      1.593      2.075
REMARK  Name = 40780260
REMARK  8 active torsions:
REMARK  status: ('A' for Active; 'I' for Inactive)
REMARK    1  A    between atoms: O_1  and  C_20
REMARK    2  A    between atoms: O_1  and  C_22
REMARK    3  A    between atoms: N_4  and  C_14
REMARK    4  A    between atoms: N_5  and  C_15
REMARK    5  A    between atoms: N_6  and  C_23
REMARK    6  A    between atoms: C_8  and  C_14
REMARK    7  A    between atoms: C_10  and  C_15
REMARK    8  A    between atoms: C_16  and  C_20
REMARK                            x       y       z     vdW  Elec       q    Type
REMARK                         _______ _______ _______ _____ _____    ______ ____
ROOT
ATOM      3  N   UNL     1      -3.119   3.820  24.731  0.00  0.00    -0.298 NA
ATOM      7  C   UNL     1      -3.560   1.511  23.616  0.00  0.00    -0.003 C 
ATOM      8  C   UNL     1      -3.622   1.400  25.157  0.00  0.00    +0.020 C 
ATOM      9  C   UNL     1      -2.189   2.075  23.201  0.00  0.00    +0.024 C 
ATOM     10  C   UNL     1      -2.032   3.504  23.766  0.00  0.00    +0.074 C 
ATOM     11  C   UNL     1      -3.213   2.760  25.766  0.00  0.00    +0.089 C 
ATOM     12  C   UNL     1      -4.624   2.545  23.198  0.00  0.00    +0.019 C 
ATOM     13  C   UNL     1      -4.400   3.849  23.984  0.00  0.00    +0.085 C 
ENDROOT
BRANCH   8  14
ATOM     14  C   UNL     1      -2.778   0.257  25.713  0.00  0.00    +0.089 C 
BRANCH  14   4
ATOM      4  N   UNL     1      -3.326  -1.037  25.322  0.00  0.00    -0.297 NA
ATOM     16  C   UNL     1      -2.375  -1.868  24.571  0.00  0.00    +0.082 C 
ATOM     17  C   UNL     1      -4.479  -0.883  24.430  0.00  0.00    +0.085 C 
ATOM     18  C   UNL     1      -3.282  -2.926  23.939  0.00  0.00    +0.022 C 
ATOM     19  C   UNL     1      -4.657  -2.274  23.845  0.00  0.00    +0.017 C 
BRANCH  16  20
ATOM     20  C   UNL     1      -1.299  -2.497  25.447  0.00  0.00    +0.178 C 
BRANCH  20   1
ATOM      1  O   UNL     1      -0.039  -1.975  25.060  0.00  0.00    -0.381 OA
ATOM     22  C   UNL     1      -0.167  -0.995  24.036  0.00  0.00    +0.194 C 
ENDBRANCH  20   1
ENDBRANCH  16  20
ENDBRANCH  14   4
ENDBRANCH   8  14
BRANCH  10  15
ATOM     15  C   UNL     1      -0.640   3.731  24.362  0.00  0.00    +0.124 C 
BRANCH  15   5
ATOM      2  O   UNL     1       1.243   1.801  25.329  0.00  0.00    -0.253 OA
ATOM      5  N   UNL     1       0.359   3.052  23.595  0.00  0.00    -0.298 N 
ATOM      6  N   UNL     1       2.113   1.617  23.157  0.00  0.00    -0.269 N 
ATOM     21  C   UNL     1       1.253   2.113  24.141  0.00  0.00    +0.304 C 
ATOM     29  H   UNL     1       0.429   3.261  22.604  0.00  0.00    +0.150 HD
ATOM     30  H   UNL     1       1.989   1.982  22.217  0.00  0.00    +0.156 HD
BRANCH   6  23
ATOM     23  C   UNL     1       3.145   0.662  23.307  0.00  0.00    +0.035 A 
ATOM     24  C   UNL     1       2.828  -0.687  23.472  0.00  0.00    +0.023 A 
ATOM     25  C   UNL     1       4.479   1.067  23.292  0.00  0.00    +0.023 A 
ATOM     26  C   UNL     1       3.845  -1.630  23.622  0.00  0.00    +0.002 A 
ATOM     27  C   UNL     1       5.497   0.124  23.441  0.00  0.00    +0.002 A 
ATOM     28  C   UNL     1       5.179  -1.224  23.606  0.00  0.00    +0.000 A 
ENDBRANCH   6  23
ENDBRANCH  15   5
ENDBRANCH  10  15
TORSDOF 7
ENDMDL
MODEL 8
REMARK VINA RESULT:      -0.2      1.490      2.062
REMARK  Name = 40780260
REMARK  8 active torsions:
REMARK  status: ('A' for Active; 'I' for Inactive)
REMARK    1  A    between atoms: O_1  and  C_20
REMARK    2  A    between atoms: O_1  and  C_22
REMARK    3  A    between atoms: N_4  and  C_14
REMARK    4  A    between atoms: N_5  and  C_15
REMARK    5  A    between atoms: N_6  and  C_23
REMARK    6  A    between atoms: C_8  and  C_14
REMARK    7  A    between atoms: C_10  and  C_15
REMARK    8  A    between atoms: C_16  and  C_20
REMARK                            x       y       z     vdW  Elec       q    Type
REMARK                         _______ _______ _______ _____ _____    ______ ____
ROOT
ATOM      3  N   UNL     1      -3.361   3.324  26.108  0.00  0.00    -0.298 NA
ATOM      7  C   UNL     1      -4.197   2.671  23.732  0.00  0.00    -0.003 C 
ATOM      8  C   UNL     1      -3.533   1.464  24.434  0.00  0.00    +0.020 C 
ATOM      9  C   UNL     1      -3.193   3.837  23.666  0.00  0.00    +0.024 C 
ATOM     10  C   UNL     1      -2.837   4.286  25.100  0.00  0.00    +0.074 C 
ATOM     11  C   UNL     1      -2.930   1.944  25.774  0.00  0.00    +0.089 C 
ATOM     12  C   UNL     1      -5.364   3.124  24.630  0.00  0.00    +0.019 C 
ATOM     13  C   UNL     1      -4.842   3.370  26.056  0.00  0.00    +0.085 C 
ENDROOT
BRANCH   8  14
ATOM     14  C   UNL     1      -2.491   0.761  23.568  0.00  0.00    +0.089 C 
BRANCH  14   4
ATOM      4  N   UNL     1      -2.196  -0.571  24.081  0.00  0.00    -0.297 NA
ATOM     16  C   UNL     1      -3.127  -1.010  25.130  0.00  0.00    +0.082 C 
ATOM     17  C   UNL     1      -0.871  -0.625  24.706  0.00  0.00    +0.085 C 
ATOM     18  C   UNL     1      -2.384  -2.185  25.769  0.00  0.00    +0.022 C 
ATOM     19  C   UNL     1      -0.906  -1.925  25.492  0.00  0.00    +0.017 C 
BRANCH  16  20
ATOM     20  C   UNL     1      -4.490  -1.429  24.592  0.00  0.00    +0.178 C 
BRANCH  20   1
ATOM      1  O   UNL     1      -4.305  -2.071  23.342  0.00  0.00    -0.381 OA
ATOM     22  C   UNL     1      -4.265  -3.487  23.478  0.00  0.00    +0.194 C 
ENDBRANCH  20   1
ENDBRANCH  16  20
ENDBRANCH  14   4
ENDBRANCH   8  14
BRANCH  10  15
ATOM     15  C   UNL     1      -1.336   4.538  25.261  0.00  0.00    +0.124 C 
BRANCH  15   5
ATOM      2  O   UNL     1       0.599   2.470  25.689  0.00  0.00    -0.253 OA
ATOM      5  N   UNL     1      -0.592   3.842  24.256  0.00  0.00    -0.298 N 
ATOM      6  N   UNL     1       0.915   2.336  23.366  0.00  0.00    -0.269 N 
ATOM     21  C   UNL     1       0.346   2.833  24.543  0.00  0.00    +0.304 C 
ATOM     29  H   UNL     1      -0.746   4.091  23.285  0.00  0.00    +0.150 HD
ATOM     30  H   UNL     1       0.594   2.750  22.495  0.00  0.00    +0.156 HD
BRANCH   6  23
ATOM     23  C   UNL     1       1.891   1.322  23.236  0.00  0.00    +0.035 A 
ATOM     24  C   UNL     1       3.234   1.664  23.065  0.00  0.00    +0.023 A 
ATOM     25  C   UNL     1       1.514  -0.020  23.278  0.00  0.00    +0.023 A 
ATOM     26  C   UNL     1       4.197   0.663  22.936  0.00  0.00    +0.002 A 
ATOM     27  C   UNL     1       2.477  -1.021  23.148  0.00  0.00    +0.002 A 
ATOM     28  C   UNL     1       3.819  -0.679  22.977  0.00  0.00    +0.000 A 
ENDBRANCH   6  23
ENDBRANCH  15   5
ENDBRANCH  10  15
TORSDOF 7
ENDMDL
MODEL 9
REMARK VINA RESULT:       0.1      2.018      3.055
REMARK  Name = 40780260
REMARK  8 active torsions:
REMARK  status: ('A' for Active; 'I' for Inactive)
REMARK    1  A    between atoms: O_1  and  C_20
REMARK    2  A    between atoms: O_1  and  C_22
REMARK    3  A    between atoms: N_4  and  C_14
REMARK    4  A    between atoms: N_5  and  C_15
REMARK    5  A    between atoms: N_6  and  C_23
REMARK    6  A    between atoms: C_8  and  C_14
REMARK    7  A    between atoms: C_10  and  C_15
REMARK    8  A    between atoms: C_16  and  C_20
REMARK                            x       y       z     vdW  Elec       q    Type
REMARK                         _______ _______ _______ _____ _____    ______ ____
ROOT
ATOM      3  N   UNL     1      -1.622   3.180  24.282  0.00  0.00    -0.298 NA
ATOM      7  C   UNL     1      -4.089   2.493  24.740  0.00  0.00    -0.003 C 
ATOM      8  C   UNL     1      -3.142   1.891  25.804  0.00  0.00    +0.020 C 
ATOM      9  C   UNL     1      -3.638   2.038  23.340  0.00  0.00    +0.024 C 
ATOM     10  C   UNL     1      -2.224   2.591  23.055  0.00  0.00    +0.074 C 
ATOM     11  C   UNL     1      -1.685   2.210  25.402  0.00  0.00    +0.089 C 
ATOM     12  C   UNL     1      -3.915   4.023  24.801  0.00  0.00    +0.019 C 
ATOM     13  C   UNL     1      -2.423   4.370  24.657  0.00  0.00    +0.085 C 
ENDROOT
BRANCH   8  14
ATOM     14  C   UNL     1      -3.353   0.395  26.020  0.00  0.00    +0.089 C 
BRANCH  14   4
ATOM      4  N   UNL     1      -2.362  -0.384  25.287  0.00  0.00    -0.297 NA
ATOM     16  C   UNL     1      -2.888  -1.655  24.771  0.00  0.00    +0.082 C 
ATOM     17  C   UNL     1      -1.235  -0.762  26.144  0.00  0.00    +0.085 C 
ATOM     18  C   UNL     1      -1.614  -2.436  24.440  0.00  0.00    +0.022 C 
ATOM     19  C   UNL     1      -0.536  -1.849  25.345  0.00  0.00    +0.017 C 
BRANCH  16  20
ATOM     20  C   UNL     1      -3.782  -1.489  23.549  0.00  0.00    +0.178 C 
BRANCH  20   1
ATOM      1  O   UNL     1      -4.647  -2.608  23.465  0.00  0.00    -0.381 OA
ATOM     22  C   UNL     1      -4.181  -3.694  24.258  0.00  0.00    +0.194 C 
ENDBRANCH  20   1
ENDBRANCH  16  20
ENDBRANCH  14   4
ENDBRANCH   8  14
BRANCH  10  15
ATOM     15  C   UNL     1      -1.320   1.537  22.411  0.00  0.00    +0.124 C 
BRANCH  15   5
ATOM      2  O   UNL     1       0.718  -0.476  22.419  0.00  0.00    -0.253 OA
ATOM      5  N   UNL     1       0.034   1.693  22.845  0.00  0.00    -0.298 N 
ATOM      6  N   UNL     1       2.218   1.099  23.303  0.00  0.00    -0.269 N 
ATOM     21  C   UNL     1       0.983   0.655  22.820  0.00  0.00    +0.304 C 
ATOM     29  H   UNL     1       0.326   2.601  23.193  0.00  0.00    +0.150 HD
ATOM     30  H   UNL     1       2.268   2.070  23.598  0.00  0.00    +0.156 HD
BRANCH   6  23
ATOM     23  C   UNL     1       3.415   0.359  23.435  0.00  0.00    +0.035 A 
ATOM     24  C   UNL     1       4.648   0.997  23.296  0.00  0.00    +0.023 A 
ATOM     25  C   UNL     1       3.365  -1.009  23.703  0.00  0.00    +0.023 A 
ATOM     26  C   UNL     1       5.830   0.267  23.424  0.00  0.00    +0.002 A 
ATOM     27  C   UNL     1       4.546  -1.739  23.831  0.00  0.00    +0.002 A 
ATOM     28  C   UNL     1       5.779  -1.100  23.692  0.00  0.00    +0.000 A 
ENDBRANCH   6  23
ENDBRANCH  15   5
ENDBRANCH  10  15
TORSDOF 7
ENDMDL
MODEL 10
REMARK VINA RESULT:       0.2      2.308      3.590
REMARK  Name = 40780260
REMARK  8 active torsions:
REMARK  status: ('A' for Active; 'I' for Inactive)
REMARK    1  A    between atoms: O_1  and  C_20
REMARK    2  A    between atoms: O_1  and  C_22
REMARK    3  A    between atoms: N_4  and  C_14
REMARK    4  A    between atoms: N_5  and  C_15
REMARK    5  A    between atoms: N_6  and  C_23
REMARK    6  A    between atoms: C_8  and  C_14
REMARK    7  A    between atoms: C_10  and  C_15
REMARK    8  A    between atoms: C_16  and  C_20
REMARK                            x       y       z     vdW  Elec       q    Type
REMARK                         _______ _______ _______ _____ _____    ______ ____
ROOT
ATOM      3  N   UNL     1      -3.143   3.137  25.536  0.00  0.00    -0.298 NA
ATOM      7  C   UNL     1      -5.095   2.252  24.061  0.00  0.00    -0.003 C 
ATOM      8  C   UNL     1      -4.342   1.084  24.738  0.00  0.00    +0.020 C 
ATOM      9  C   UNL     1      -4.102   3.082  23.226  0.00  0.00    +0.024 C 
ATOM     10  C   UNL     1      -3.044   3.706  24.164  0.00  0.00    +0.074 C 
ATOM     11  C   UNL     1      -3.113   1.654  25.480  0.00  0.00    +0.089 C 
ATOM     12  C   UNL     1      -5.616   3.163  25.189  0.00  0.00    +0.019 C 
ATOM     13  C   UNL     1      -4.446   3.551  26.109  0.00  0.00    +0.085 C 
ENDROOT
BRANCH   8  14
ATOM     14  C   UNL     1      -3.948  -0.024  23.766  0.00  0.00    +0.089 C 
BRANCH  14   4
ATOM      4  N   UNL     1      -3.387  -1.168  24.475  0.00  0.00    -0.297 NA
ATOM     16  C   UNL     1      -2.014  -1.490  24.066  0.00  0.00    +0.082 C 
ATOM     17  C   UNL     1      -4.155  -2.390  24.214  0.00  0.00    +0.085 C 
ATOM     18  C   UNL     1      -1.826  -2.909  24.608  0.00  0.00    +0.022 C 
ATOM     19  C   UNL     1      -3.231  -3.494  24.698  0.00  0.00    +0.017 C 
BRANCH  16  20
ATOM     20  C   UNL     1      -0.974  -0.528  24.628  0.00  0.00    +0.178 C 
BRANCH  20   1
ATOM      1  O   UNL     1      -0.437   0.233  23.559  0.00  0.00    -0.381 OA
ATOM     22  C   UNL     1       0.833  -0.260  23.149  0.00  0.00    +0.194 C 
ENDBRANCH  20   1
ENDBRANCH  16  20
ENDBRANCH  14   4
ENDBRANCH   8  14
BRANCH  10  15
ATOM     15  C   UNL     1      -1.632   3.591  23.585  0.00  0.00    +0.124 C 
BRANCH  15   5
ATOM      2  O   UNL     1      -0.684   4.439  26.151  0.00  0.00    -0.253 OA
ATOM      5  N   UNL     1      -0.779   2.855  24.467  0.00  0.00    -0.298 N 
ATOM      6  N   UNL     1       0.473   2.405  26.354  0.00  0.00    -0.269 N 
ATOM     21  C   UNL     1      -0.352   3.338  25.717  0.00  0.00    +0.304 C 
ATOM     29  H   UNL     1      -0.461   1.937  24.173  0.00  0.00    +0.150 HD
ATOM     30  H   UNL     1       0.650   1.539  25.854  0.00  0.00    +0.156 HD
BRANCH   6  23
ATOM     23  C   UNL     1       1.096   2.519  27.618  0.00  0.00    +0.035 A 
ATOM     24  C   UNL     1       2.415   2.964  27.707  0.00  0.00    +0.023 A 
ATOM     25  C   UNL     1       0.393   2.186  28.776  0.00  0.00    +0.023 A 
ATOM     26  C   UNL     1       3.031   3.075  28.954  0.00  0.00    +0.002 A 
ATOM     27  C   UNL     1       1.009   2.297  30.023  0.00  0.00    +0.002 A 
ATOM     28  C   UNL     1       2.328   2.742  30.112  0.00  0.00    +0.000 A 
ENDBRANCH   6  23
ENDBRANCH  15   5
ENDBRANCH  10  15
TORSDOF 7
ENDMDL
