MODEL 1
REMARK VINA RESULT:      -7.0      0.000      0.000
REMARK  Name = 40586269
REMARK  7 active torsions:
REMARK  status: ('A' for Active; 'I' for Inactive)
REMARK    1  A    between atoms: O_3  and  C_10
REMARK    2  A    between atoms: O_3  and  C_20
REMARK    3  A    between atoms: N_5  and  C_9
REMARK    4  A    between atoms: N_5  and  C_14
REMARK    5  A    between atoms: N_6  and  C_21
REMARK    6  A    between atoms: C_12  and  C_14
REMARK    7  A    between atoms: C_21  and  C_22
REMARK                            x       y       z     vdW  Elec       q    Type
REMARK                         _______ _______ _______ _____ _____    ______ ____
ROOT
ATOM      1  O   UNL     1      -2.246   2.359  23.975  0.00  0.00    -0.369 OA
ATOM      2  O   UNL     1      -0.338   4.168  25.554  0.00  0.00    -0.369 OA
ATOM      7  C   UNL     1      -0.779   2.813  25.782  0.00  0.00    +0.170 C 
ATOM      8  C   UNL     1      -2.232   2.746  25.359  0.00  0.00    +0.191 C 
ATOM      9  C   UNL     1      -0.081   1.873  24.827  0.00  0.00    +0.111 C 
ATOM     10  C   UNL     1      -2.692   4.172  25.546  0.00  0.00    +0.235 C 
ATOM     11  C   UNL     1      -0.912   2.020  23.564  0.00  0.00    +0.181 C 
ATOM     13  C   UNL     1      -1.464   4.958  25.145  0.00  0.00    +0.207 C 
ENDROOT
BRANCH   9   5
ATOM      5  N   UNL     1      -0.105   0.516  25.316  0.00  0.00    -0.309 NA
ATOM     23  H   UNL     1      -0.731   0.444  26.118  0.00  0.00    +0.122 HD
BRANCH   5  14
ATOM     14  C   UNL     1      -0.529  -0.407  24.308  0.00  0.00    +0.084 C 
BRANCH  14  12
ATOM     12  C   UNL     1      -1.869  -1.041  24.675  0.00  0.00    +0.003 C 
ATOM     15  C   UNL     1      -3.008  -0.410  23.863  0.00  0.00    +0.005 C 
ATOM     16  C   UNL     1      -1.826  -2.562  24.465  0.00  0.00    +0.005 C 
ATOM     17  C   UNL     1      -4.352  -1.064  24.173  0.00  0.00    +0.000 C 
ATOM     18  C   UNL     1      -3.173  -3.212  24.776  0.00  0.00    +0.000 C 
ATOM     19  C   UNL     1      -4.303  -2.576  23.973  0.00  0.00    +0.000 C 
ENDBRANCH  14  12
ENDBRANCH   5  14
ENDBRANCH   9   5
BRANCH  10   3
ATOM      3  O   UNL     1      -3.816   4.509  24.764  0.00  0.00    -0.442 OA
BRANCH   3  20
ATOM      4  O   UNL     1      -5.874   4.592  25.781  0.00  0.00    -0.226 OA
ATOM      6  N   UNL     1      -5.124   2.662  24.734  0.00  0.00    -0.281 N 
ATOM     20  C   UNL     1      -5.023   3.972  25.151  0.00  0.00    +0.401 C 
ATOM     24  H   UNL     1      -4.344   2.260  24.225  0.00  0.00    +0.152 HD
BRANCH   6  21
ATOM     21  C   UNL     1      -6.276   1.826  24.989  0.00  0.00    +0.104 C 
ATOM     22  C   UNL     1      -6.332   1.386  26.437  0.00  0.00    +0.024 C 
ENDBRANCH   6  21
ENDBRANCH   3  20
ENDBRANCH  10   3
TORSDOF 6
ENDMDL
MODEL 2
REMARK VINA RESULT:      -6.4      2.365      4.892
REMARK  Name = 40586269
REMARK  7 active torsions:
REMARK  status: ('A' for Active; 'I' for Inactive)
REMARK    1  A    between atoms: O_3  and  C_10
REMARK    2  A    between atoms: O_3  and  C_20
REMARK    3  A    between atoms: N_5  and  C_9
REMARK    4  A    between atoms: N_5  and  C_14
REMARK    5  A    between atoms: N_6  and  C_21
REMARK    6  A    between atoms: C_12  and  C_14
REMARK    7  A    between atoms: C_21  and  C_22
REMARK                            x       y       z     vdW  Elec       q    Type
REMARK                         _______ _______ _______ _____ _____    ______ ____
ROOT
ATOM      1  O   UNL     1      -0.705   1.226  26.104  0.00  0.00    -0.369 OA
ATOM      2  O   UNL     1       0.910   2.248  23.706  0.00  0.00    -0.369 OA
ATOM      7  C   UNL     1      -0.433   2.536  24.146  0.00  0.00    +0.170 C 
ATOM      8  C   UNL     1      -1.002   1.245  24.697  0.00  0.00    +0.191 C 
ATOM      9  C   UNL     1      -0.400   3.457  25.344  0.00  0.00    +0.111 C 
ATOM     10  C   UNL     1      -0.218   0.196  23.946  0.00  0.00    +0.235 C 
ATOM     11  C   UNL     1      -0.143   2.491  26.487  0.00  0.00    +0.181 C 
ATOM     13  C   UNL     1       1.146   0.838  23.833  0.00  0.00    +0.207 C 
ENDROOT
BRANCH   9   5
ATOM      5  N   UNL     1      -1.657   4.145  25.510  0.00  0.00    -0.309 NA
ATOM     23  H   UNL     1      -1.495   5.098  25.834  0.00  0.00    +0.122 HD
BRANCH   5  14
ATOM     14  C   UNL     1      -2.407   4.187  24.291  0.00  0.00    +0.084 C 
BRANCH  14  12
ATOM     12  C   UNL     1      -3.828   3.669  24.506  0.00  0.00    +0.003 C 
ATOM     15  C   UNL     1      -3.970   2.238  23.969  0.00  0.00    +0.005 C 
ATOM     16  C   UNL     1      -4.211   3.736  25.991  0.00  0.00    +0.005 C 
ATOM     17  C   UNL     1      -5.369   1.679  24.220  0.00  0.00    +0.000 C 
ATOM     18  C   UNL     1      -5.610   3.174  26.238  0.00  0.00    +0.000 C 
ATOM     19  C   UNL     1      -5.750   1.755  25.695  0.00  0.00    +0.000 C 
ENDBRANCH  14  12
ENDBRANCH   5  14
ENDBRANCH   9   5
BRANCH  10   3
ATOM      3  O   UNL     1      -0.165  -1.048  24.606  0.00  0.00    -0.442 OA
BRANCH   3  20
ATOM      4  O   UNL     1      -1.318  -2.916  23.929  0.00  0.00    -0.226 OA
ATOM      6  N   UNL     1      -2.344  -1.257  25.185  0.00  0.00    -0.281 N 
ATOM     20  C   UNL     1      -1.287  -1.842  24.520  0.00  0.00    +0.401 C 
ATOM     24  H   UNL     1      -2.191  -0.358  25.630  0.00  0.00    +0.152 HD
BRANCH   6  21
ATOM     21  C   UNL     1      -3.660  -1.847  25.274  0.00  0.00    +0.104 C 
ATOM     22  C   UNL     1      -4.365  -1.839  23.934  0.00  0.00    +0.024 C 
ENDBRANCH   6  21
ENDBRANCH   3  20
ENDBRANCH  10   3
TORSDOF 6
ENDMDL
MODEL 3
REMARK VINA RESULT:      -6.2      2.539      6.480
REMARK  Name = 40586269
REMARK  7 active torsions:
REMARK  status: ('A' for Active; 'I' for Inactive)
REMARK    1  A    between atoms: O_3  and  C_10
REMARK    2  A    between atoms: O_3  and  C_20
REMARK    3  A    between atoms: N_5  and  C_9
REMARK    4  A    between atoms: N_5  and  C_14
REMARK    5  A    between atoms: N_6  and  C_21
REMARK    6  A    between atoms: C_12  and  C_14
REMARK    7  A    between atoms: C_21  and  C_22
REMARK                            x       y       z     vdW  Elec       q    Type
REMARK                         _______ _______ _______ _____ _____    ______ ____
ROOT
ATOM      1  O   UNL     1      -2.484   0.254  23.474  0.00  0.00    -0.369 OA
ATOM      2  O   UNL     1      -2.133  -2.135  25.364  0.00  0.00    -0.369 OA
ATOM      7  C   UNL     1      -2.576  -0.784  25.604  0.00  0.00    +0.170 C 
ATOM      8  C   UNL     1      -1.754   0.116  24.704  0.00  0.00    +0.191 C 
ATOM      9  C   UNL     1      -3.990  -0.604  25.100  0.00  0.00    +0.111 C 
ATOM     10  C   UNL     1      -0.486  -0.682  24.517  0.00  0.00    +0.235 C 
ATOM     11  C   UNL     1      -3.775  -0.359  23.616  0.00  0.00    +0.181 C 
ATOM     13  C   UNL     1      -1.006  -2.101  24.476  0.00  0.00    +0.207 C 
ENDROOT
BRANCH   9   5
ATOM      5  N   UNL     1      -4.632   0.523  25.731  0.00  0.00    -0.309 NA
ATOM     23  H   UNL     1      -3.964   1.023  26.317  0.00  0.00    +0.122 HD
BRANCH   5  14
ATOM     14  C   UNL     1      -5.182   1.430  24.769  0.00  0.00    +0.084 C 
BRANCH  14  12
ATOM     12  C   UNL     1      -4.585   2.826  24.930  0.00  0.00    +0.003 C 
ATOM     15  C   UNL     1      -3.644   2.876  26.141  0.00  0.00    +0.005 C 
ATOM     16  C   UNL     1      -3.852   3.253  23.650  0.00  0.00    +0.005 C 
ATOM     17  C   UNL     1      -2.991   4.249  26.292  0.00  0.00    +0.000 C 
ATOM     18  C   UNL     1      -3.200   4.626  23.806  0.00  0.00    +0.000 C 
ATOM     19  C   UNL     1      -2.272   4.674  25.016  0.00  0.00    +0.000 C 
ENDBRANCH  14  12
ENDBRANCH   5  14
ENDBRANCH   9   5
BRANCH  10   3
ATOM      3  O   UNL     1       0.225  -0.344  23.347  0.00  0.00    -0.442 OA
BRANCH   3  20
ATOM      4  O   UNL     1       1.097   1.643  24.100  0.00  0.00    -0.226 OA
ATOM      6  N   UNL     1       2.366   0.175  22.827  0.00  0.00    -0.281 N 
ATOM     20  C   UNL     1       1.226   0.592  23.481  0.00  0.00    +0.401 C 
ATOM     24  H   UNL     1       2.342  -0.717  22.344  0.00  0.00    +0.152 HD
BRANCH   6  21
ATOM     21  C   UNL     1       3.591   0.942  22.785  0.00  0.00    +0.104 C 
ATOM     22  C   UNL     1       4.768   0.135  23.292  0.00  0.00    +0.024 C 
ENDBRANCH   6  21
ENDBRANCH   3  20
ENDBRANCH  10   3
TORSDOF 6
ENDMDL
MODEL 4
REMARK VINA RESULT:      -5.6      2.326      6.047
REMARK  Name = 40586269
REMARK  7 active torsions:
REMARK  status: ('A' for Active; 'I' for Inactive)
REMARK    1  A    between atoms: O_3  and  C_10
REMARK    2  A    between atoms: O_3  and  C_20
REMARK    3  A    between atoms: N_5  and  C_9
REMARK    4  A    between atoms: N_5  and  C_14
REMARK    5  A    between atoms: N_6  and  C_21
REMARK    6  A    between atoms: C_12  and  C_14
REMARK    7  A    between atoms: C_21  and  C_22
REMARK                            x       y       z     vdW  Elec       q    Type
REMARK                         _______ _______ _______ _____ _____    ______ ____
ROOT
ATOM      1  O   UNL     1      -2.677   0.054  23.724  0.00  0.00    -0.369 OA
ATOM      2  O   UNL     1      -3.309  -2.465  25.356  0.00  0.00    -0.369 OA
ATOM      7  C   UNL     1      -3.385  -1.064  25.693  0.00  0.00    +0.170 C 
ATOM      8  C   UNL     1      -2.213  -0.384  25.013  0.00  0.00    +0.191 C 
ATOM      9  C   UNL     1      -4.595  -0.438  25.039  0.00  0.00    +0.111 C 
ATOM     10  C   UNL     1      -1.210  -1.506  24.895  0.00  0.00    +0.235 C 
ATOM     11  C   UNL     1      -4.094  -0.159  23.632  0.00  0.00    +0.181 C 
ATOM     13  C   UNL     1      -2.096  -2.700  24.626  0.00  0.00    +0.207 C 
ENDROOT
BRANCH   9   5
ATOM      5  N   UNL     1      -4.981   0.779  25.710  0.00  0.00    -0.309 NA
ATOM     23  H   UNL     1      -4.183   1.175  26.206  0.00  0.00    +0.122 HD
BRANCH   5  14
ATOM     14  C   UNL     1      -5.492   1.754  24.794  0.00  0.00    +0.084 C 
BRANCH  14  12
ATOM     12  C   UNL     1      -4.731   3.073  24.918  0.00  0.00    +0.003 C 
ATOM     15  C   UNL     1      -3.887   3.092  26.199  0.00  0.00    +0.005 C 
ATOM     16  C   UNL     1      -3.854   3.311  23.681  0.00  0.00    +0.005 C 
ATOM     17  C   UNL     1      -3.074   4.380  26.319  0.00  0.00    +0.000 C 
ATOM     18  C   UNL     1      -3.042   4.599  23.805  0.00  0.00    +0.000 C 
ATOM     19  C   UNL     1      -2.210   4.618  25.084  0.00  0.00    +0.000 C 
ENDBRANCH  14  12
ENDBRANCH   5  14
ENDBRANCH   9   5
BRANCH  10   3
ATOM      3  O   UNL     1      -0.262  -1.308  23.871  0.00  0.00    -0.442 OA
BRANCH   3  20
ATOM      4  O   UNL     1       1.168   0.247  22.968  0.00  0.00    -0.226 OA
ATOM      6  N   UNL     1      -0.069   0.712  24.875  0.00  0.00    -0.281 N 
ATOM     20  C   UNL     1       0.356  -0.078  23.828  0.00  0.00    +0.401 C 
ATOM     24  H   UNL     1      -0.743   0.322  25.526  0.00  0.00    +0.152 HD
BRANCH   6  21
ATOM     21  C   UNL     1       0.398   2.061  25.102  0.00  0.00    +0.104 C 
ATOM     22  C   UNL     1       0.149   2.501  26.530  0.00  0.00    +0.024 C 
ENDBRANCH   6  21
ENDBRANCH   3  20
ENDBRANCH  10   3
TORSDOF 6
ENDMDL
MODEL 5
REMARK VINA RESULT:      -5.5      3.322      6.698
REMARK  Name = 40586269
REMARK  7 active torsions:
REMARK  status: ('A' for Active; 'I' for Inactive)
REMARK    1  A    between atoms: O_3  and  C_10
REMARK    2  A    between atoms: O_3  and  C_20
REMARK    3  A    between atoms: N_5  and  C_9
REMARK    4  A    between atoms: N_5  and  C_14
REMARK    5  A    between atoms: N_6  and  C_21
REMARK    6  A    between atoms: C_12  and  C_14
REMARK    7  A    between atoms: C_21  and  C_22
REMARK                            x       y       z     vdW  Elec       q    Type
REMARK                         _______ _______ _______ _____ _____    ______ ____
ROOT
ATOM      1  O   UNL     1       0.071  -1.421  24.183  0.00  0.00    -0.369 OA
ATOM      2  O   UNL     1      -0.247   1.609  24.540  0.00  0.00    -0.369 OA
ATOM      7  C   UNL     1      -1.134   0.613  23.991  0.00  0.00    +0.170 C 
ATOM      8  C   UNL     1      -0.270  -0.385  23.247  0.00  0.00    +0.191 C 
ATOM      9  C   UNL     1      -1.751  -0.204  25.104  0.00  0.00    +0.111 C 
ATOM     10  C   UNL     1       0.933   0.446  22.868  0.00  0.00    +0.235 C 
ATOM     11  C   UNL     1      -0.660  -1.218  25.402  0.00  0.00    +0.181 C 
ATOM     13  C   UNL     1       1.084   1.354  24.068  0.00  0.00    +0.207 C 
ENDROOT
BRANCH   9   5
ATOM      5  N   UNL     1      -2.965  -0.850  24.669  0.00  0.00    -0.309 NA
ATOM     23  H   UNL     1      -3.450  -1.258  25.467  0.00  0.00    +0.122 HD
BRANCH   5  14
ATOM     14  C   UNL     1      -3.845   0.062  24.002  0.00  0.00    +0.084 C 
BRANCH  14  12
ATOM     12  C   UNL     1      -4.123   1.287  24.871  0.00  0.00    +0.003 C 
ATOM     15  C   UNL     1      -3.816   2.579  24.100  0.00  0.00    +0.005 C 
ATOM     16  C   UNL     1      -5.574   1.280  25.370  0.00  0.00    +0.005 C 
ATOM     17  C   UNL     1      -4.137   3.820  24.930  0.00  0.00    +0.000 C 
ATOM     18  C   UNL     1      -5.892   2.524  26.198  0.00  0.00    +0.000 C 
ATOM     19  C   UNL     1      -5.577   3.805  25.432  0.00  0.00    +0.000 C 
ENDBRANCH  14  12
ENDBRANCH   5  14
ENDBRANCH   9   5
BRANCH  10   3
ATOM      3  O   UNL     1       2.094  -0.319  22.632  0.00  0.00    -0.442 OA
BRANCH   3  20
ATOM      4  O   UNL     1       3.594   1.407  22.850  0.00  0.00    -0.226 OA
ATOM      6  N   UNL     1       4.073  -0.715  23.657  0.00  0.00    -0.281 N 
ATOM     20  C   UNL     1       3.290   0.232  23.034  0.00  0.00    +0.401 C 
ATOM     24  H   UNL     1       3.708  -1.659  23.741  0.00  0.00    +0.152 HD
BRANCH   6  21
ATOM     21  C   UNL     1       5.389  -0.443  24.191  0.00  0.00    +0.104 C 
ATOM     22  C   UNL     1       6.423  -0.338  23.090  0.00  0.00    +0.024 C 
ENDBRANCH   6  21
ENDBRANCH   3  20
ENDBRANCH  10   3
TORSDOF 6
ENDMDL
MODEL 6
REMARK VINA RESULT:      -5.1      3.015      5.197
REMARK  Name = 40586269
REMARK  7 active torsions:
REMARK  status: ('A' for Active; 'I' for Inactive)
REMARK    1  A    between atoms: O_3  and  C_10
REMARK    2  A    between atoms: O_3  and  C_20
REMARK    3  A    between atoms: N_5  and  C_9
REMARK    4  A    between atoms: N_5  and  C_14
REMARK    5  A    between atoms: N_6  and  C_21
REMARK    6  A    between atoms: C_12  and  C_14
REMARK    7  A    between atoms: C_21  and  C_22
REMARK                            x       y       z     vdW  Elec       q    Type
REMARK                         _______ _______ _______ _____ _____    ______ ____
ROOT
ATOM      1  O   UNL     1      -1.934   0.458  25.730  0.00  0.00    -0.369 OA
ATOM      2  O   UNL     1      -2.246  -2.155  24.156  0.00  0.00    -0.369 OA
ATOM      7  C   UNL     1      -1.583  -0.917  23.829  0.00  0.00    +0.170 C 
ATOM      8  C   UNL     1      -2.429   0.201  24.405  0.00  0.00    +0.191 C 
ATOM      9  C   UNL     1      -0.280  -0.810  24.587  0.00  0.00    +0.111 C 
ATOM     10  C   UNL     1      -3.807  -0.415  24.433  0.00  0.00    +0.235 C 
ATOM     11  C   UNL     1      -0.736  -0.305  25.945  0.00  0.00    +0.181 C 
ATOM     13  C   UNL     1      -3.505  -1.856  24.776  0.00  0.00    +0.207 C 
ENDROOT
BRANCH   9   5
ATOM      5  N   UNL     1       0.619   0.124  23.955  0.00  0.00    -0.309 NA
ATOM     23  H   UNL     1       1.416   0.311  24.563  0.00  0.00    +0.122 HD
BRANCH   5  14
ATOM     14  C   UNL     1       1.096  -0.364  22.696  0.00  0.00    +0.084 C 
BRANCH  14  12
ATOM     12  C   UNL     1       2.623  -0.367  22.654  0.00  0.00    +0.003 C 
ATOM     15  C   UNL     1       3.173   1.050  22.866  0.00  0.00    +0.005 C 
ATOM     16  C   UNL     1       3.193  -1.337  23.698  0.00  0.00    +0.005 C 
ATOM     17  C   UNL     1       4.700   1.065  22.881  0.00  0.00    +0.000 C 
ATOM     18  C   UNL     1       4.720  -1.318  23.711  0.00  0.00    +0.000 C 
ATOM     19  C   UNL     1       5.263   0.094  23.913  0.00  0.00    +0.000 C 
ENDBRANCH  14  12
ENDBRANCH   5  14
ENDBRANCH   9   5
BRANCH  10   3
ATOM      3  O   UNL     1      -4.673   0.183  25.371  0.00  0.00    -0.442 OA
BRANCH   3  20
ATOM      4  O   UNL     1      -6.112   1.837  24.686  0.00  0.00    -0.226 OA
ATOM      6  N   UNL     1      -3.993   2.340  25.486  0.00  0.00    -0.281 N 
ATOM     20  C   UNL     1      -5.025   1.494  25.139  0.00  0.00    +0.401 C 
ATOM     24  H   UNL     1      -3.137   1.928  25.845  0.00  0.00    +0.152 HD
BRANCH   6  21
ATOM     21  C   UNL     1      -4.057   3.778  25.359  0.00  0.00    +0.104 C 
ATOM     22  C   UNL     1      -2.725   4.424  25.677  0.00  0.00    +0.024 C 
ENDBRANCH   6  21
ENDBRANCH   3  20
ENDBRANCH  10   3
TORSDOF 6
ENDMDL
MODEL 7
REMARK VINA RESULT:      -4.8      1.995      4.647
REMARK  Name = 40586269
REMARK  7 active torsions:
REMARK  status: ('A' for Active; 'I' for Inactive)
REMARK    1  A    between atoms: O_3  and  C_10
REMARK    2  A    between atoms: O_3  and  C_20
REMARK    3  A    between atoms: N_5  and  C_9
REMARK    4  A    between atoms: N_5  and  C_14
REMARK    5  A    between atoms: N_6  and  C_21
REMARK    6  A    between atoms: C_12  and  C_14
REMARK    7  A    between atoms: C_21  and  C_22
REMARK                            x       y       z     vdW  Elec       q    Type
REMARK                         _______ _______ _______ _____ _____    ______ ____
ROOT
ATOM      1  O   UNL     1      -2.606  -0.343  26.086  0.00  0.00    -0.369 OA
ATOM      2  O   UNL     1      -2.948  -2.351  23.794  0.00  0.00    -0.369 OA
ATOM      7  C   UNL     1      -2.045  -1.240  23.964  0.00  0.00    +0.170 C 
ATOM      8  C   UNL     1      -2.817  -0.149  24.678  0.00  0.00    +0.191 C 
ATOM      9  C   UNL     1      -0.950  -1.605  24.941  0.00  0.00    +0.111 C 
ATOM     10  C   UNL     1      -4.243  -0.446  24.279  0.00  0.00    +0.235 C 
ATOM     11  C   UNL     1      -1.623  -1.371  26.282  0.00  0.00    +0.181 C 
ATOM     13  C   UNL     1      -4.254  -1.958  24.240  0.00  0.00    +0.207 C 
ENDROOT
BRANCH   9   5
ATOM      5  N   UNL     1       0.203  -0.755  24.776  0.00  0.00    -0.309 NA
ATOM     23  H   UNL     1       1.030  -1.319  24.583  0.00  0.00    +0.122 HD
BRANCH   5  14
ATOM     14  C   UNL     1       0.023   0.190  23.716  0.00  0.00    +0.084 C 
BRANCH  14  12
ATOM     12  C   UNL     1       0.188   1.621  24.224  0.00  0.00    +0.003 C 
ATOM     15  C   UNL     1      -0.770   2.570  23.490  0.00  0.00    +0.005 C 
ATOM     16  C   UNL     1      -0.033   1.687  25.741  0.00  0.00    +0.005 C 
ATOM     17  C   UNL     1      -0.662   3.998  24.018  0.00  0.00    +0.000 C 
ATOM     18  C   UNL     1       0.075   3.118  26.265  0.00  0.00    +0.000 C 
ATOM     19  C   UNL     1      -0.873   4.059  25.528  0.00  0.00    +0.000 C 
ENDBRANCH  14  12
ENDBRANCH   5  14
ENDBRANCH   9   5
BRANCH  10   3
ATOM      3  O   UNL     1      -5.198   0.068  25.180  0.00  0.00    -0.442 OA
BRANCH   3  20
ATOM      4  O   UNL     1      -6.617   1.801  24.674  0.00  0.00    -0.226 OA
ATOM      6  N   UNL     1      -4.444   2.192  25.387  0.00  0.00    -0.281 N 
ATOM     20  C   UNL     1      -5.520   1.400  25.047  0.00  0.00    +0.401 C 
ATOM     24  H   UNL     1      -3.585   1.735  25.675  0.00  0.00    +0.152 HD
BRANCH   6  21
ATOM     21  C   UNL     1      -4.470   3.637  25.350  0.00  0.00    +0.104 C 
ATOM     22  C   UNL     1      -4.165   4.162  23.963  0.00  0.00    +0.024 C 
ENDBRANCH   6  21
ENDBRANCH   3  20
ENDBRANCH  10   3
TORSDOF 6
ENDMDL
MODEL 8
REMARK VINA RESULT:      -4.5     15.520     18.029
REMARK  Name = 40586269
REMARK  7 active torsions:
REMARK  status: ('A' for Active; 'I' for Inactive)
REMARK    1  A    between atoms: O_3  and  C_10
REMARK    2  A    between atoms: O_3  and  C_20
REMARK    3  A    between atoms: N_5  and  C_9
REMARK    4  A    between atoms: N_5  and  C_14
REMARK    5  A    between atoms: N_6  and  C_21
REMARK    6  A    between atoms: C_12  and  C_14
REMARK    7  A    between atoms: C_21  and  C_22
REMARK                            x       y       z     vdW  Elec       q    Type
REMARK                         _______ _______ _______ _____ _____    ______ ____
ROOT
ATOM      1  O   UNL     1      -6.012  -8.812  12.175  0.00  0.00    -0.369 OA
ATOM      2  O   UNL     1      -3.669 -10.765  11.860  0.00  0.00    -0.369 OA
ATOM      7  C   UNL     1      -5.006 -10.781  11.319  0.00  0.00    +0.170 C 
ATOM      8  C   UNL     1      -5.922 -10.230  12.393  0.00  0.00    +0.191 C 
ATOM      9  C   UNL     1      -5.123  -9.779  10.195  0.00  0.00    +0.111 C 
ATOM     10  C   UNL     1      -5.170 -10.555  13.661  0.00  0.00    +0.235 C 
ATOM     11  C   UNL     1      -5.352  -8.478  10.944  0.00  0.00    +0.181 C 
ATOM     13  C   UNL     1      -3.732 -10.364  13.237  0.00  0.00    +0.207 C 
ENDROOT
BRANCH   9   5
ATOM      5  N   UNL     1      -6.235 -10.089   9.330  0.00  0.00    -0.309 NA
ATOM     23  H   UNL     1      -7.104 -10.092   9.863  0.00  0.00    +0.122 HD
BRANCH   5  14
ATOM     14  C   UNL     1      -6.350  -9.154   8.252  0.00  0.00    +0.084 C 
BRANCH  14  12
ATOM     12  C   UNL     1      -7.783  -8.641   8.123  0.00  0.00    +0.003 C 
ATOM     15  C   UNL     1      -8.737  -9.477   8.988  0.00  0.00    +0.005 C 
ATOM     16  C   UNL     1      -7.863  -7.155   8.500  0.00  0.00    +0.005 C 
ATOM     17  C   UNL     1     -10.168  -8.951   8.918  0.00  0.00    +0.000 C 
ATOM     18  C   UNL     1      -9.297  -6.633   8.430  0.00  0.00    +0.000 C 
ATOM     19  C   UNL     1     -10.243  -7.472   9.284  0.00  0.00    +0.000 C 
ENDBRANCH  14  12
ENDBRANCH   5  14
ENDBRANCH   9   5
BRANCH  10   3
ATOM      3  O   UNL     1      -5.516  -9.728  14.749  0.00  0.00    -0.442 OA
BRANCH   3  20
ATOM      4  O   UNL     1      -7.496 -10.761  15.288  0.00  0.00    -0.226 OA
ATOM      6  N   UNL     1      -6.029 -10.034  16.933  0.00  0.00    -0.281 N 
ATOM     20  C   UNL     1      -6.447 -10.226  15.633  0.00  0.00    +0.401 C 
ATOM     24  H   UNL     1      -5.140  -9.570  17.086  0.00  0.00    +0.152 HD
BRANCH   6  21
ATOM     21  C   UNL     1      -6.790 -10.450  18.089  0.00  0.00    +0.104 C 
ATOM     22  C   UNL     1      -5.887 -10.779  19.259  0.00  0.00    +0.024 C 
ENDBRANCH   6  21
ENDBRANCH   3  20
ENDBRANCH  10   3
TORSDOF 6
ENDMDL
MODEL 9
REMARK VINA RESULT:      -3.7      1.392      2.325
REMARK  Name = 40586269
REMARK  7 active torsions:
REMARK  status: ('A' for Active; 'I' for Inactive)
REMARK    1  A    between atoms: O_3  and  C_10
REMARK    2  A    between atoms: O_3  and  C_20
REMARK    3  A    between atoms: N_5  and  C_9
REMARK    4  A    between atoms: N_5  and  C_14
REMARK    5  A    between atoms: N_6  and  C_21
REMARK    6  A    between atoms: C_12  and  C_14
REMARK    7  A    between atoms: C_21  and  C_22
REMARK                            x       y       z     vdW  Elec       q    Type
REMARK                         _______ _______ _______ _____ _____    ______ ____
ROOT
ATOM      1  O   UNL     1      -2.310   2.559  23.878  0.00  0.00    -0.369 OA
ATOM      2  O   UNL     1      -1.967   5.007  25.694  0.00  0.00    -0.369 OA
ATOM      7  C   UNL     1      -1.495   3.650  25.820  0.00  0.00    +0.170 C 
ATOM      8  C   UNL     1      -2.587   2.751  25.276  0.00  0.00    +0.191 C 
ATOM      9  C   UNL     1      -0.333   3.415  24.882  0.00  0.00    +0.111 C 
ATOM     10  C   UNL     1      -3.830   3.582  25.491  0.00  0.00    +0.235 C 
ATOM     11  C   UNL     1      -1.034   3.137  23.563  0.00  0.00    +0.181 C 
ATOM     13  C   UNL     1      -3.326   4.983  25.231  0.00  0.00    +0.207 C 
ENDROOT
BRANCH   9   5
ATOM      5  N   UNL     1       0.460   2.286  25.303  0.00  0.00    -0.309 NA
ATOM     23  H   UNL     1       0.047   1.858  26.131  0.00  0.00    +0.122 HD
BRANCH   5  14
ATOM     14  C   UNL     1       0.572   1.299  24.273  0.00  0.00    +0.084 C 
BRANCH  14  12
ATOM     12  C   UNL     1      -0.487   0.211  24.439  0.00  0.00    +0.003 C 
ATOM     15  C   UNL     1      -0.051  -1.082  23.736  0.00  0.00    +0.005 C 
ATOM     16  C   UNL     1      -0.772  -0.045  25.926  0.00  0.00    +0.005 C 
ATOM     17  C   UNL     1      -1.069  -2.202  23.933  0.00  0.00    +0.000 C 
ATOM     18  C   UNL     1      -1.791  -1.167  26.119  0.00  0.00    +0.000 C 
ATOM     19  C   UNL     1      -1.358  -2.448  25.411  0.00  0.00    +0.000 C 
ENDBRANCH  14  12
ENDBRANCH   5  14
ENDBRANCH   9   5
BRANCH  10   3
ATOM      3  O   UNL     1      -4.895   3.234  24.636  0.00  0.00    -0.442 OA
BRANCH   3  20
ATOM      4  O   UNL     1      -6.647   1.782  24.950  0.00  0.00    -0.226 OA
ATOM      6  N   UNL     1      -4.461   1.018  24.803  0.00  0.00    -0.281 N 
ATOM     20  C   UNL     1      -5.445   1.984  24.810  0.00  0.00    +0.401 C 
ATOM     24  H   UNL     1      -3.498   1.317  24.685  0.00  0.00    +0.152 HD
BRANCH   6  21
ATOM     21  C   UNL     1      -4.722  -0.394  24.964  0.00  0.00    +0.104 C 
ATOM     22  C   UNL     1      -4.350  -1.172  23.719  0.00  0.00    +0.024 C 
ENDBRANCH   6  21
ENDBRANCH   3  20
ENDBRANCH  10   3
TORSDOF 6
ENDMDL
