MODEL 1
REMARK VINA RESULT:      -6.5      0.000      0.000
REMARK  Name = 75536958
REMARK  5 active torsions:
REMARK  status: ('A' for Active; 'I' for Inactive)
REMARK    1  A    between atoms: O_2  and  C_7
REMARK    2  A    between atoms: N_4  and  C_9
REMARK    3  A    between atoms: C_9  and  C_12
REMARK    4  A    between atoms: C_13  and  C_15
REMARK    5  A    between atoms: C_14  and  C_16
REMARK                            x       y       z     vdW  Elec       q    Type
REMARK                         _______ _______ _______ _____ _____    ______ ____
ROOT
ATOM      1  O   UNL     1      -1.807  -2.251  24.988  0.00  0.00    -0.376 OA
ATOM      4  N   UNL     1      -2.428   0.701  24.194  0.00  0.00    -0.293 NA
ATOM      6  C   UNL     1      -1.053   0.612  23.687  0.00  0.00    +0.118 C 
ATOM      7  C   UNL     1      -0.330  -0.737  23.810  0.00  0.00    +0.154 C 
ATOM      8  C   UNL     1      -3.231  -0.503  23.975  0.00  0.00    +0.113 C 
ATOM     10  C   UNL     1      -0.611  -1.486  25.106  0.00  0.00    +0.192 C 
ATOM     11  C   UNL     1      -3.003  -1.496  25.116  0.00  0.00    +0.175 C 
ENDROOT
BRANCH   7   2
ATOM      2  O   UNL     1       1.077  -0.495  23.739  0.00  0.00    -0.388 OA
ATOM     17  H   UNL     1       1.201   0.458  23.592  0.00  0.00    +0.210 HD
ENDBRANCH   7   2
BRANCH   4   9
ATOM      9  C   UNL     1      -3.086   1.891  23.656  0.00  0.00    +0.125 C 
BRANCH   9  12
ATOM      3  O   UNL     1      -3.649   4.411  26.300  0.00  0.00    -0.359 OA
ATOM      5  N   UNL     1      -4.895   3.797  26.310  0.00  0.00    -0.083 NA
ATOM     12  C   UNL     1      -3.561   2.812  24.749  0.00  0.00    +0.031 A 
ATOM     13  C   UNL     1      -2.864   3.816  25.366  0.00  0.00    +0.139 A 
ATOM     14  C   UNL     1      -4.818   2.845  25.376  0.00  0.00    +0.085 A 
ATOM     15  C   UNL     1      -1.501   4.348  25.224  0.00  0.00    +0.089 C 
ATOM     16  C   UNL     1      -5.985   1.984  25.116  0.00  0.00    +0.069 C 
ENDBRANCH   9  12
ENDBRANCH   4   9
TORSDOF 3
ENDMDL
MODEL 2
REMARK VINA RESULT:      -6.5      1.013      2.045
REMARK  Name = 75536958
REMARK  5 active torsions:
REMARK  status: ('A' for Active; 'I' for Inactive)
REMARK    1  A    between atoms: O_2  and  C_7
REMARK    2  A    between atoms: N_4  and  C_9
REMARK    3  A    between atoms: C_9  and  C_12
REMARK    4  A    between atoms: C_13  and  C_15
REMARK    5  A    between atoms: C_14  and  C_16
REMARK                            x       y       z     vdW  Elec       q    Type
REMARK                         _______ _______ _______ _____ _____    ______ ____
ROOT
ATOM      1  O   UNL     1      -1.057  -1.604  25.366  0.00  0.00    -0.376 OA
ATOM      4  N   UNL     1      -2.519   0.666  23.803  0.00  0.00    -0.293 NA
ATOM      6  C   UNL     1      -3.589  -0.339  23.801  0.00  0.00    +0.118 C 
ATOM      7  C   UNL     1      -3.332  -1.661  24.541  0.00  0.00    +0.154 C 
ATOM      8  C   UNL     1      -1.767   0.744  25.056  0.00  0.00    +0.113 C 
ATOM     10  C   UNL     1      -1.914  -2.197  24.396  0.00  0.00    +0.192 C 
ATOM     11  C   UNL     1      -0.634  -0.285  25.049  0.00  0.00    +0.175 C 
ENDROOT
BRANCH   7   2
ATOM      2  O   UNL     1      -4.229  -2.643  24.019  0.00  0.00    -0.388 OA
ATOM     17  H   UNL     1      -4.094  -2.679  23.056  0.00  0.00    +0.210 HD
ENDBRANCH   7   2
BRANCH   4   9
ATOM      9  C   UNL     1      -3.054   1.971  23.416  0.00  0.00    +0.125 C 
BRANCH   9  12
ATOM      3  O   UNL     1      -3.456   4.240  26.306  0.00  0.00    -0.359 OA
ATOM      5  N   UNL     1      -4.698   3.620  26.336  0.00  0.00    -0.083 NA
ATOM     12  C   UNL     1      -3.462   2.787  24.615  0.00  0.00    +0.031 A 
ATOM     13  C   UNL     1      -2.728   3.735  25.277  0.00  0.00    +0.139 A 
ATOM     14  C   UNL     1      -4.678   2.757  25.317  0.00  0.00    +0.085 A 
ATOM     15  C   UNL     1      -1.377   4.285  25.101  0.00  0.00    +0.089 C 
ATOM     16  C   UNL     1      -5.859   1.917  25.051  0.00  0.00    +0.069 C 
ENDBRANCH   9  12
ENDBRANCH   4   9
TORSDOF 3
ENDMDL
MODEL 3
REMARK VINA RESULT:      -6.4      1.131      2.885
REMARK  Name = 75536958
REMARK  5 active torsions:
REMARK  status: ('A' for Active; 'I' for Inactive)
REMARK    1  A    between atoms: O_2  and  C_7
REMARK    2  A    between atoms: N_4  and  C_9
REMARK    3  A    between atoms: C_9  and  C_12
REMARK    4  A    between atoms: C_13  and  C_15
REMARK    5  A    between atoms: C_14  and  C_16
REMARK                            x       y       z     vdW  Elec       q    Type
REMARK                         _______ _______ _______ _____ _____    ______ ____
ROOT
ATOM      1  O   UNL     1      -1.123  -1.767  25.269  0.00  0.00    -0.376 OA
ATOM      4  N   UNL     1      -2.398   0.620  23.717  0.00  0.00    -0.293 NA
ATOM      6  C   UNL     1      -3.537  -0.304  23.691  0.00  0.00    +0.118 C 
ATOM      7  C   UNL     1      -3.386  -1.650  24.418  0.00  0.00    +0.154 C 
ATOM      8  C   UNL     1      -1.657   0.629  24.980  0.00  0.00    +0.113 C 
ATOM     10  C   UNL     1      -2.008  -2.286  24.282  0.00  0.00    +0.192 C 
ATOM     11  C   UNL     1      -0.602  -0.479  24.973  0.00  0.00    +0.175 C 
ENDROOT
BRANCH   7   2
ATOM      2  O   UNL     1      -4.345  -2.559  23.874  0.00  0.00    -0.388 OA
ATOM     17  H   UNL     1      -3.932  -3.439  23.850  0.00  0.00    +0.210 HD
ENDBRANCH   7   2
BRANCH   4   9
ATOM      9  C   UNL     1      -2.833   1.965  23.341  0.00  0.00    +0.125 C 
BRANCH   9  12
ATOM      3  O   UNL     1      -4.454   3.617  26.221  0.00  0.00    -0.359 OA
ATOM      5  N   UNL     1      -3.221   4.255  26.264  0.00  0.00    -0.083 NA
ATOM     12  C   UNL     1      -3.262   2.771  24.538  0.00  0.00    +0.031 A 
ATOM     13  C   UNL     1      -4.467   2.736  25.189  0.00  0.00    +0.139 A 
ATOM     14  C   UNL     1      -2.526   3.734  25.250  0.00  0.00    +0.085 A 
ATOM     15  C   UNL     1      -5.706   1.970  24.999  0.00  0.00    +0.089 C 
ATOM     16  C   UNL     1      -1.149   4.192  24.998  0.00  0.00    +0.069 C 
ENDBRANCH   9  12
ENDBRANCH   4   9
TORSDOF 3
ENDMDL
MODEL 4
REMARK VINA RESULT:      -6.4      0.626      2.040
REMARK  Name = 75536958
REMARK  5 active torsions:
REMARK  status: ('A' for Active; 'I' for Inactive)
REMARK    1  A    between atoms: O_2  and  C_7
REMARK    2  A    between atoms: N_4  and  C_9
REMARK    3  A    between atoms: C_9  and  C_12
REMARK    4  A    between atoms: C_13  and  C_15
REMARK    5  A    between atoms: C_14  and  C_16
REMARK                            x       y       z     vdW  Elec       q    Type
REMARK                         _______ _______ _______ _____ _____    ______ ____
ROOT
ATOM      1  O   UNL     1      -1.856  -2.251  24.956  0.00  0.00    -0.376 OA
ATOM      4  N   UNL     1      -2.545   0.700  24.218  0.00  0.00    -0.293 NA
ATOM      6  C   UNL     1      -1.163   0.659  23.726  0.00  0.00    +0.118 C 
ATOM      7  C   UNL     1      -0.405  -0.674  23.829  0.00  0.00    +0.154 C 
ATOM      8  C   UNL     1      -3.313  -0.519  23.963  0.00  0.00    +0.113 C 
ATOM     10  C   UNL     1      -0.682  -1.458  25.105  0.00  0.00    +0.192 C 
ATOM     11  C   UNL     1      -3.073  -1.531  25.086  0.00  0.00    +0.175 C 
ENDROOT
BRANCH   7   2
ATOM      2  O   UNL     1       0.995  -0.393  23.781  0.00  0.00    -0.388 OA
ATOM     17  H   UNL     1       1.400  -1.036  23.174  0.00  0.00    +0.210 HD
ENDBRANCH   7   2
BRANCH   4   9
ATOM      9  C   UNL     1      -3.229   1.884  23.698  0.00  0.00    +0.125 C 
BRANCH   9  12
ATOM      3  O   UNL     1      -5.430   3.401  26.249  0.00  0.00    -0.359 OA
ATOM      5  N   UNL     1      -4.293   4.172  26.450  0.00  0.00    -0.083 NA
ATOM     12  C   UNL     1      -3.916   2.660  24.790  0.00  0.00    +0.031 A 
ATOM     13  C   UNL     1      -5.194   2.504  25.258  0.00  0.00    +0.139 A 
ATOM     14  C   UNL     1      -3.403   3.712  25.567  0.00  0.00    +0.085 A 
ATOM     15  C   UNL     1      -6.302   1.602  24.916  0.00  0.00    +0.089 C 
ATOM     16  C   UNL     1      -2.060   4.315  25.505  0.00  0.00    +0.069 C 
ENDBRANCH   9  12
ENDBRANCH   4   9
TORSDOF 3
ENDMDL
MODEL 5
REMARK VINA RESULT:      -6.2      1.681      5.438
REMARK  Name = 75536958
REMARK  5 active torsions:
REMARK  status: ('A' for Active; 'I' for Inactive)
REMARK    1  A    between atoms: O_2  and  C_7
REMARK    2  A    between atoms: N_4  and  C_9
REMARK    3  A    between atoms: C_9  and  C_12
REMARK    4  A    between atoms: C_13  and  C_15
REMARK    5  A    between atoms: C_14  and  C_16
REMARK                            x       y       z     vdW  Elec       q    Type
REMARK                         _______ _______ _______ _____ _____    ______ ____
ROOT
ATOM      1  O   UNL     1      -4.242   4.376  25.120  0.00  0.00    -0.376 OA
ATOM      4  N   UNL     1      -3.690   1.402  24.357  0.00  0.00    -0.293 NA
ATOM      6  C   UNL     1      -4.940   1.218  25.104  0.00  0.00    +0.118 C 
ATOM      7  C   UNL     1      -5.643   2.472  25.646  0.00  0.00    +0.154 C 
ATOM      8  C   UNL     1      -3.665   2.594  23.508  0.00  0.00    +0.113 C 
ATOM     10  C   UNL     1      -4.698   3.541  26.180  0.00  0.00    +0.192 C 
ATOM     11  C   UNL     1      -3.213   3.807  24.324  0.00  0.00    +0.175 C 
ENDROOT
BRANCH   7   2
ATOM      2  O   UNL     1      -6.503   2.073  26.714  0.00  0.00    -0.388 OA
ATOM     17  H   UNL     1      -7.401   2.373  26.493  0.00  0.00    +0.210 HD
ENDBRANCH   7   2
BRANCH   4   9
ATOM      9  C   UNL     1      -3.377   0.194  23.596  0.00  0.00    +0.125 C 
BRANCH   9  12
ATOM      3  O   UNL     1      -0.290  -1.213  25.063  0.00  0.00    -0.359 OA
ATOM      5  N   UNL     1      -1.133  -2.304  25.232  0.00  0.00    -0.083 NA
ATOM     12  C   UNL     1      -2.267  -0.600  24.234  0.00  0.00    +0.031 A 
ATOM     13  C   UNL     1      -0.976  -0.204  24.468  0.00  0.00    +0.139 A 
ATOM     14  C   UNL     1      -2.308  -1.914  24.730  0.00  0.00    +0.085 A 
ATOM     15  C   UNL     1      -0.227   1.034  24.213  0.00  0.00    +0.089 C 
ATOM     16  C   UNL     1      -3.452  -2.842  24.746  0.00  0.00    +0.069 C 
ENDBRANCH   9  12
ENDBRANCH   4   9
TORSDOF 3
ENDMDL
MODEL 6
REMARK VINA RESULT:      -6.2      1.600      5.771
REMARK  Name = 75536958
REMARK  5 active torsions:
REMARK  status: ('A' for Active; 'I' for Inactive)
REMARK    1  A    between atoms: O_2  and  C_7
REMARK    2  A    between atoms: N_4  and  C_9
REMARK    3  A    between atoms: C_9  and  C_12
REMARK    4  A    between atoms: C_13  and  C_15
REMARK    5  A    between atoms: C_14  and  C_16
REMARK                            x       y       z     vdW  Elec       q    Type
REMARK                         _______ _______ _______ _____ _____    ______ ____
ROOT
ATOM      1  O   UNL     1      -4.279   4.310  25.158  0.00  0.00    -0.376 OA
ATOM      4  N   UNL     1      -3.655   1.383  24.280  0.00  0.00    -0.293 NA
ATOM      6  C   UNL     1      -4.934   1.149  24.960  0.00  0.00    +0.118 C 
ATOM      7  C   UNL     1      -5.677   2.368  25.528  0.00  0.00    +0.154 C 
ATOM      8  C   UNL     1      -3.607   2.614  23.490  0.00  0.00    +0.113 C 
ATOM     10  C   UNL     1      -4.770   3.421  26.155  0.00  0.00    +0.192 C 
ATOM     11  C   UNL     1      -3.207   3.791  24.382  0.00  0.00    +0.175 C 
ENDROOT
BRANCH   7   2
ATOM      2  O   UNL     1      -6.579   1.909  26.536  0.00  0.00    -0.388 OA
ATOM     17  H   UNL     1      -6.561   2.557  27.261  0.00  0.00    +0.210 HD
ENDBRANCH   7   2
BRANCH   4   9
ATOM      9  C   UNL     1      -3.292   0.215  23.477  0.00  0.00    +0.125 C 
BRANCH   9  12
ATOM      3  O   UNL     1      -1.327  -2.395  25.204  0.00  0.00    -0.359 OA
ATOM      5  N   UNL     1      -0.377  -1.382  25.178  0.00  0.00    -0.083 NA
ATOM     12  C   UNL     1      -2.296  -0.665  24.185  0.00  0.00    +0.031 A 
ATOM     13  C   UNL     1      -2.466  -1.956  24.610  0.00  0.00    +0.139 A 
ATOM     14  C   UNL     1      -0.978  -0.360  24.565  0.00  0.00    +0.085 A 
ATOM     15  C   UNL     1      -3.582  -2.910  24.552  0.00  0.00    +0.089 C 
ATOM     16  C   UNL     1      -0.245   0.902  24.362  0.00  0.00    +0.069 C 
ENDBRANCH   9  12
ENDBRANCH   4   9
TORSDOF 3
ENDMDL
MODEL 7
REMARK VINA RESULT:      -5.6      1.650      5.288
REMARK  Name = 75536958
REMARK  5 active torsions:
REMARK  status: ('A' for Active; 'I' for Inactive)
REMARK    1  A    between atoms: O_2  and  C_7
REMARK    2  A    between atoms: N_4  and  C_9
REMARK    3  A    between atoms: C_9  and  C_12
REMARK    4  A    between atoms: C_13  and  C_15
REMARK    5  A    between atoms: C_14  and  C_16
REMARK                            x       y       z     vdW  Elec       q    Type
REMARK                         _______ _______ _______ _____ _____    ______ ____
ROOT
ATOM      1  O   UNL     1      -5.627   3.020  26.173  0.00  0.00    -0.376 OA
ATOM      4  N   UNL     1      -3.783   1.701  24.030  0.00  0.00    -0.293 NA
ATOM      6  C   UNL     1      -2.842   2.694  24.561  0.00  0.00    +0.118 C 
ATOM      7  C   UNL     1      -3.313   3.576  25.728  0.00  0.00    +0.154 C 
ATOM      8  C   UNL     1      -4.623   1.063  25.045  0.00  0.00    +0.113 C 
ATOM     10  C   UNL     1      -4.767   4.019  25.634  0.00  0.00    +0.192 C 
ATOM     11  C   UNL     1      -5.864   1.918  25.307  0.00  0.00    +0.175 C 
ENDROOT
BRANCH   7   2
ATOM      2  O   UNL     1      -2.497   4.749  25.756  0.00  0.00    -0.388 OA
ATOM     17  H   UNL     1      -1.919   4.720  24.974  0.00  0.00    +0.210 HD
ENDBRANCH   7   2
BRANCH   4   9
ATOM      9  C   UNL     1      -3.068   0.711  23.226  0.00  0.00    +0.125 C 
BRANCH   9  12
ATOM      3  O   UNL     1      -1.784  -2.117  25.230  0.00  0.00    -0.359 OA
ATOM      5  N   UNL     1      -0.727  -1.231  25.394  0.00  0.00    -0.083 NA
ATOM     12  C   UNL     1      -2.332  -0.284  24.085  0.00  0.00    +0.031 A 
ATOM     13  C   UNL     1      -2.734  -1.542  24.449  0.00  0.00    +0.139 A 
ATOM     14  C   UNL     1      -1.077  -0.144  24.701  0.00  0.00    +0.085 A 
ATOM     15  C   UNL     1      -3.931  -2.349  24.174  0.00  0.00    +0.089 C 
ATOM     16  C   UNL     1      -0.169   1.015  24.657  0.00  0.00    +0.069 C 
ENDBRANCH   9  12
ENDBRANCH   4   9
TORSDOF 3
ENDMDL
MODEL 8
REMARK VINA RESULT:      -5.5      1.556      4.887
REMARK  Name = 75536958
REMARK  5 active torsions:
REMARK  status: ('A' for Active; 'I' for Inactive)
REMARK    1  A    between atoms: O_2  and  C_7
REMARK    2  A    between atoms: N_4  and  C_9
REMARK    3  A    between atoms: C_9  and  C_12
REMARK    4  A    between atoms: C_13  and  C_15
REMARK    5  A    between atoms: C_14  and  C_16
REMARK                            x       y       z     vdW  Elec       q    Type
REMARK                         _______ _______ _______ _____ _____    ______ ____
ROOT
ATOM      1  O   UNL     1      -5.609   2.963  26.233  0.00  0.00    -0.376 OA
ATOM      4  N   UNL     1      -3.800   1.665  24.048  0.00  0.00    -0.293 NA
ATOM      6  C   UNL     1      -2.854   2.659  24.567  0.00  0.00    +0.118 C 
ATOM      7  C   UNL     1      -3.306   3.533  25.747  0.00  0.00    +0.154 C 
ATOM      8  C   UNL     1      -4.618   1.017  25.074  0.00  0.00    +0.113 C 
ATOM     10  C   UNL     1      -4.764   3.970  25.683  0.00  0.00    +0.192 C 
ATOM     11  C   UNL     1      -5.858   1.866  25.366  0.00  0.00    +0.175 C 
ENDROOT
BRANCH   7   2
ATOM      2  O   UNL     1      -2.495   4.709  25.766  0.00  0.00    -0.388 OA
ATOM     17  H   UNL     1      -1.598   4.448  25.497  0.00  0.00    +0.210 HD
ENDBRANCH   7   2
BRANCH   4   9
ATOM      9  C   UNL     1      -3.096   0.683  23.224  0.00  0.00    +0.125 C 
BRANCH   9  12
ATOM      3  O   UNL     1      -0.487  -1.015  25.217  0.00  0.00    -0.359 OA
ATOM      5  N   UNL     1      -1.465  -2.002  25.244  0.00  0.00    -0.083 NA
ATOM     12  C   UNL     1      -2.210  -0.210  24.052  0.00  0.00    +0.031 A 
ATOM     13  C   UNL     1      -0.942   0.047  24.504  0.00  0.00    +0.139 A 
ATOM     14  C   UNL     1      -2.483  -1.498  24.542  0.00  0.00    +0.085 A 
ATOM     15  C   UNL     1      -0.026   1.188  24.375  0.00  0.00    +0.089 C 
ATOM     16  C   UNL     1      -3.710  -2.295  24.365  0.00  0.00    +0.069 C 
ENDBRANCH   9  12
ENDBRANCH   4   9
TORSDOF 3
ENDMDL
MODEL 9
REMARK VINA RESULT:      -5.4      2.140      4.750
REMARK  Name = 75536958
REMARK  5 active torsions:
REMARK  status: ('A' for Active; 'I' for Inactive)
REMARK    1  A    between atoms: O_2  and  C_7
REMARK    2  A    between atoms: N_4  and  C_9
REMARK    3  A    between atoms: C_9  and  C_12
REMARK    4  A    between atoms: C_13  and  C_15
REMARK    5  A    between atoms: C_14  and  C_16
REMARK                            x       y       z     vdW  Elec       q    Type
REMARK                         _______ _______ _______ _____ _____    ______ ____
ROOT
ATOM      1  O   UNL     1      -5.609   0.738  25.760  0.00  0.00    -0.376 OA
ATOM      4  N   UNL     1      -3.575   2.156  23.867  0.00  0.00    -0.293 NA
ATOM      6  C   UNL     1      -4.191   3.343  24.471  0.00  0.00    +0.118 C 
ATOM      7  C   UNL     1      -5.257   3.125  25.556  0.00  0.00    +0.154 C 
ATOM      8  C   UNL     1      -3.353   1.051  24.800  0.00  0.00    +0.113 C 
ATOM     10  C   UNL     1      -6.191   1.950  25.292  0.00  0.00    +0.192 C 
ATOM     11  C   UNL     1      -4.615   0.193  24.903  0.00  0.00    +0.175 C 
ENDROOT
BRANCH   7   2
ATOM      2  O   UNL     1      -6.053   4.308  25.642  0.00  0.00    -0.388 OA
ATOM     17  H   UNL     1      -5.856   4.849  24.858  0.00  0.00    +0.210 HD
ENDBRANCH   7   2
BRANCH   4   9
ATOM      9  C   UNL     1      -2.343   2.527  23.172  0.00  0.00    +0.125 C 
BRANCH   9  12
ATOM      3  O   UNL     1       0.687   1.918  25.197  0.00  0.00    -0.359 OA
ATOM      5  N   UNL     1       0.367   3.189  25.655  0.00  0.00    -0.083 NA
ATOM     12  C   UNL     1      -1.155   2.524  24.097  0.00  0.00    +0.031 A 
ATOM     13  C   UNL     1      -0.226   1.532  24.270  0.00  0.00    +0.139 A 
ATOM     14  C   UNL     1      -0.737   3.530  24.983  0.00  0.00    +0.085 A 
ATOM     15  C   UNL     1      -0.034   0.200  23.679  0.00  0.00    +0.089 C 
ATOM     16  C   UNL     1      -1.361   4.843  25.226  0.00  0.00    +0.069 C 
ENDBRANCH   9  12
ENDBRANCH   4   9
TORSDOF 3
ENDMDL
MODEL 10
REMARK VINA RESULT:      -5.3      2.310      4.657
REMARK  Name = 75536958
REMARK  5 active torsions:
REMARK  status: ('A' for Active; 'I' for Inactive)
REMARK    1  A    between atoms: O_2  and  C_7
REMARK    2  A    between atoms: N_4  and  C_9
REMARK    3  A    between atoms: C_9  and  C_12
REMARK    4  A    between atoms: C_13  and  C_15
REMARK    5  A    between atoms: C_14  and  C_16
REMARK                            x       y       z     vdW  Elec       q    Type
REMARK                         _______ _______ _______ _____ _____    ______ ____
ROOT
ATOM      1  O   UNL     1      -5.654   0.759  25.836  0.00  0.00    -0.376 OA
ATOM      4  N   UNL     1      -3.650   2.156  23.896  0.00  0.00    -0.293 NA
ATOM      6  C   UNL     1      -4.269   3.350  24.484  0.00  0.00    +0.118 C 
ATOM      7  C   UNL     1      -5.323   3.144  25.583  0.00  0.00    +0.154 C 
ATOM      8  C   UNL     1      -3.410   1.071  24.848  0.00  0.00    +0.113 C 
ATOM     10  C   UNL     1      -6.250   1.958  25.351  0.00  0.00    +0.192 C 
ATOM     11  C   UNL     1      -4.665   0.205  24.980  0.00  0.00    +0.175 C 
ENDROOT
BRANCH   7   2
ATOM      2  O   UNL     1      -6.127   4.323  25.654  0.00  0.00    -0.388 OA
ATOM     17  H   UNL     1      -6.845   4.225  25.006  0.00  0.00    +0.210 HD
ENDBRANCH   7   2
BRANCH   4   9
ATOM      9  C   UNL     1      -2.428   2.524  23.181  0.00  0.00    +0.125 C 
BRANCH   9  12
ATOM      3  O   UNL     1       0.267   3.318  25.582  0.00  0.00    -0.359 OA
ATOM      5  N   UNL     1       0.652   2.030  25.234  0.00  0.00    -0.083 NA
ATOM     12  C   UNL     1      -1.241   2.601  24.105  0.00  0.00    +0.031 A 
ATOM     13  C   UNL     1      -0.862   3.647  24.903  0.00  0.00    +0.139 A 
ATOM     14  C   UNL     1      -0.263   1.622  24.351  0.00  0.00    +0.085 A 
ATOM     15  C   UNL     1      -1.409   4.987  25.156  0.00  0.00    +0.089 C 
ATOM     16  C   UNL     1      -0.159   0.275  23.764  0.00  0.00    +0.069 C 
ENDBRANCH   9  12
ENDBRANCH   4   9
TORSDOF 3
ENDMDL
