MODEL 1
REMARK VINA RESULT:      -1.3      0.000      0.000
REMARK  Name = 26742418
REMARK  10 active torsions:
REMARK  status: ('A' for Active; 'I' for Inactive)
REMARK    1  A    between atoms: N_4  and  C_14
REMARK    2  A    between atoms: C_8  and  C_15
REMARK    3  A    between atoms: C_9  and  C_14
REMARK    4  A    between atoms: C_17  and  C_19
REMARK    5  A    between atoms: C_18  and  C_23
REMARK    6  A    between atoms: C_19  and  C_21
REMARK    7  A    between atoms: C_19  and  C_22
REMARK    8  A    between atoms: C_20  and  C_24
REMARK    9  A    between atoms: C_21  and  C_25
REMARK   10  A    between atoms: C_22  and  C_26
REMARK                            x       y       z     vdW  Elec       q    Type
REMARK                         _______ _______ _______ _____ _____    ______ ____
ROOT
ATOM      3  N   UNL     1      -4.966   3.570  24.011  0.00  0.00    -0.297 NA
ATOM      7  C   UNL     1      -3.744   3.974  26.275  0.00  0.00    +0.002 C 
ATOM      8  C   UNL     1      -2.722   3.935  25.104  0.00  0.00    +0.055 C 
ATOM      9  C   UNL     1      -5.408   2.565  25.013  0.00  0.00    +0.074 C 
ATOM     10  C   UNL     1      -4.549   2.658  26.293  0.00  0.00    +0.024 C 
ATOM     11  C   UNL     1      -4.740   5.110  25.959  0.00  0.00    +0.019 C 
ATOM     12  C   UNL     1      -3.494   3.492  23.830  0.00  0.00    +0.094 C 
ATOM     13  C   UNL     1      -5.297   4.915  24.538  0.00  0.00    +0.085 C 
ENDROOT
BRANCH   8  15
ATOM      5  N   UNL     1      -0.873   3.200  26.528  0.00  0.00    -0.237 NA
ATOM      6  N   UNL     1       0.879   1.759  25.714  0.00  0.00    -0.229 NA
ATOM     15  C   UNL     1      -1.434   3.149  25.302  0.00  0.00    +0.050 A 
ATOM     16  C   UNL     1      -0.905   2.435  24.246  0.00  0.00    +0.055 A 
ATOM     18  C   UNL     1       0.264   1.753  24.512  0.00  0.00    +0.110 A 
ATOM     20  C   UNL     1       0.266   2.493  26.662  0.00  0.00    +0.127 A 
ATOM     24  C   UNL     1       0.914   2.523  28.004  0.00  0.00    +0.088 C 
BRANCH  18  23
ATOM      2  O   UNL     1       2.266   1.164  23.398  0.00  0.00    -0.461 OA
ATOM     23  C   UNL     1       0.925   0.970  23.501  0.00  0.00    +0.153 A 
ATOM     27  C   UNL     1       0.500   0.037  22.585  0.00  0.00    +0.051 A 
ATOM     28  C   UNL     1       1.653  -0.367  21.871  0.00  0.00    +0.042 A 
ATOM     29  C   UNL     1       2.701   0.347  22.404  0.00  0.00    +0.196 A 
ENDBRANCH  18  23
ENDBRANCH   8  15
BRANCH   9  14
ATOM     14  C   UNL     1      -5.434   1.145  24.446  0.00  0.00    +0.123 C 
BRANCH  14   4
ATOM      1  O   UNL     1      -2.909  -0.024  23.727  0.00  0.00    -0.276 OA
ATOM      4  N   UNL     1      -4.643   0.261  25.244  0.00  0.00    -0.314 N 
ATOM     17  C   UNL     1      -3.422  -0.264  24.818  0.00  0.00    +0.216 C 
ATOM     30  H   UNL     1      -5.001   0.012  26.159  0.00  0.00    +0.149 HD
BRANCH  17  19
ATOM     19  C   UNL     1      -2.780  -1.198  25.850  0.00  0.00    +0.074 C 
BRANCH  19  21
ATOM     21  C   UNL     1      -1.283  -0.901  26.050  0.00  0.00    +0.009 C 
ATOM     25  C   UNL     1      -0.390  -1.918  25.350  0.00  0.00    +0.004 C 
ENDBRANCH  19  21
BRANCH  19  22
ATOM     22  C   UNL     1      -3.029  -2.669  25.462  0.00  0.00    +0.009 C 
ATOM     26  C   UNL     1      -3.870  -2.863  24.205  0.00  0.00    +0.004 C 
ENDBRANCH  19  22
ENDBRANCH  17  19
ENDBRANCH  14   4
ENDBRANCH   9  14
TORSDOF 7
ENDMDL
MODEL 2
REMARK VINA RESULT:      -1.1      2.105      5.962
REMARK  Name = 26742418
REMARK  10 active torsions:
REMARK  status: ('A' for Active; 'I' for Inactive)
REMARK    1  A    between atoms: N_4  and  C_14
REMARK    2  A    between atoms: C_8  and  C_15
REMARK    3  A    between atoms: C_9  and  C_14
REMARK    4  A    between atoms: C_17  and  C_19
REMARK    5  A    between atoms: C_18  and  C_23
REMARK    6  A    between atoms: C_19  and  C_21
REMARK    7  A    between atoms: C_19  and  C_22
REMARK    8  A    between atoms: C_20  and  C_24
REMARK    9  A    between atoms: C_21  and  C_25
REMARK   10  A    between atoms: C_22  and  C_26
REMARK                            x       y       z     vdW  Elec       q    Type
REMARK                         _______ _______ _______ _____ _____    ______ ____
ROOT
ATOM      3  N   UNL     1      -2.747  -2.126  23.707  0.00  0.00    -0.297 NA
ATOM      7  C   UNL     1      -2.891  -1.140  26.113  0.00  0.00    +0.002 C 
ATOM      8  C   UNL     1      -3.929  -0.455  25.180  0.00  0.00    +0.055 C 
ATOM      9  C   UNL     1      -1.392  -1.742  24.181  0.00  0.00    +0.074 C 
ATOM     10  C   UNL     1      -1.479  -0.969  25.514  0.00  0.00    +0.024 C 
ATOM     11  C   UNL     1      -3.210  -2.650  26.101  0.00  0.00    +0.019 C 
ATOM     12  C   UNL     1      -3.647  -0.946  23.733  0.00  0.00    +0.094 C 
ATOM     13  C   UNL     1      -3.286  -3.140  24.645  0.00  0.00    +0.085 C 
ENDROOT
BRANCH   8  15
ATOM      5  N   UNL     1      -5.312   1.534  25.523  0.00  0.00    -0.237 NA
ATOM      6  N   UNL     1      -4.404   3.763  25.411  0.00  0.00    -0.229 NA
ATOM     15  C   UNL     1      -4.078   1.058  25.259  0.00  0.00    +0.050 A 
ATOM     16  C   UNL     1      -2.973   1.860  25.061  0.00  0.00    +0.055 A 
ATOM     18  C   UNL     1      -3.198   3.219  25.150  0.00  0.00    +0.110 A 
ATOM     20  C   UNL     1      -5.403   2.876  25.583  0.00  0.00    +0.127 A 
ATOM     24  C   UNL     1      -6.752   3.440  25.876  0.00  0.00    +0.088 C 
BRANCH  18  23
ATOM      2  O   UNL     1      -0.977   3.661  24.465  0.00  0.00    -0.461 OA
ATOM     23  C   UNL     1      -2.134   4.170  24.963  0.00  0.00    +0.153 A 
ATOM     27  C   UNL     1      -2.014   5.524  25.176  0.00  0.00    +0.051 A 
ATOM     28  C   UNL     1      -0.698   5.867  24.786  0.00  0.00    +0.042 A 
ATOM     29  C   UNL     1      -0.108   4.700  24.361  0.00  0.00    +0.196 A 
ENDBRANCH  18  23
ENDBRANCH   8  15
BRANCH   9  14
ATOM     14  C   UNL     1      -0.601  -0.968  23.124  0.00  0.00    +0.123 C 
BRANCH  14   4
ATOM      1  O   UNL     1       1.649  -0.241  21.491  0.00  0.00    -0.276 OA
ATOM      4  N   UNL     1       0.732  -0.709  23.571  0.00  0.00    -0.314 N 
ATOM     17  C   UNL     1       1.771  -0.359  22.709  0.00  0.00    +0.216 C 
ATOM     30  H   UNL     1       0.914  -0.790  24.565  0.00  0.00    +0.149 HD
BRANCH  17  19
ATOM     19  C   UNL     1       3.106  -0.151  23.433  0.00  0.00    +0.074 C 
BRANCH  19  21
ATOM     21  C   UNL     1       4.018   0.846  22.696  0.00  0.00    +0.009 C 
ATOM     25  C   UNL     1       5.353   1.045  23.404  0.00  0.00    +0.004 C 
ENDBRANCH  19  21
BRANCH  19  22
ATOM     22  C   UNL     1       3.802  -1.508  23.662  0.00  0.00    +0.009 C 
ATOM     26  C   UNL     1       5.241  -1.411  24.157  0.00  0.00    +0.004 C 
ENDBRANCH  19  22
ENDBRANCH  17  19
ENDBRANCH  14   4
ENDBRANCH   9  14
TORSDOF 7
ENDMDL
MODEL 3
REMARK VINA RESULT:      -0.8      1.719      2.770
REMARK  Name = 26742418
REMARK  10 active torsions:
REMARK  status: ('A' for Active; 'I' for Inactive)
REMARK    1  A    between atoms: N_4  and  C_14
REMARK    2  A    between atoms: C_8  and  C_15
REMARK    3  A    between atoms: C_9  and  C_14
REMARK    4  A    between atoms: C_17  and  C_19
REMARK    5  A    between atoms: C_18  and  C_23
REMARK    6  A    between atoms: C_19  and  C_21
REMARK    7  A    between atoms: C_19  and  C_22
REMARK    8  A    between atoms: C_20  and  C_24
REMARK    9  A    between atoms: C_21  and  C_25
REMARK   10  A    between atoms: C_22  and  C_26
REMARK                            x       y       z     vdW  Elec       q    Type
REMARK                         _______ _______ _______ _____ _____    ______ ____
ROOT
ATOM      3  N   UNL     1      -3.092   3.963  23.880  0.00  0.00    -0.297 NA
ATOM      7  C   UNL     1      -1.166   3.356  25.524  0.00  0.00    +0.002 C 
ATOM      8  C   UNL     1      -0.759   3.020  24.062  0.00  0.00    +0.055 C 
ATOM      9  C   UNL     1      -3.622   3.148  25.005  0.00  0.00    +0.074 C 
ATOM     10  C   UNL     1      -2.467   2.607  25.876  0.00  0.00    +0.024 C 
ATOM     11  C   UNL     1      -1.486   4.865  25.561  0.00  0.00    +0.019 C 
ATOM     12  C   UNL     1      -2.020   3.217  23.174  0.00  0.00    +0.094 C 
ATOM     13  C   UNL     1      -2.498   5.196  24.451  0.00  0.00    +0.085 C 
ENDROOT
BRANCH   8  15
ATOM      5  N   UNL     1      -0.862   0.609  23.662  0.00  0.00    -0.237 NA
ATOM      6  N   UNL     1       1.119  -0.721  23.318  0.00  0.00    -0.229 NA
ATOM     15  C   UNL     1      -0.067   1.691  23.796  0.00  0.00    +0.050 A 
ATOM     16  C   UNL     1       1.309   1.647  23.707  0.00  0.00    +0.055 A 
ATOM     18  C   UNL     1       1.853   0.402  23.464  0.00  0.00    +0.110 A 
ATOM     20  C   UNL     1      -0.212  -0.548  23.428  0.00  0.00    +0.127 A 
ATOM     24  C   UNL     1      -1.057  -1.767  23.271  0.00  0.00    +0.088 C 
BRANCH  18  23
ATOM      2  O   UNL     1       3.741  -0.984  23.794  0.00  0.00    -0.461 OA
ATOM     23  C   UNL     1       3.275   0.213  23.350  0.00  0.00    +0.153 A 
ATOM     27  C   UNL     1       4.308   0.988  22.876  0.00  0.00    +0.051 A 
ATOM     28  C   UNL     1       5.484   0.218  23.042  0.00  0.00    +0.042 A 
ATOM     29  C   UNL     1       5.086  -0.973  23.603  0.00  0.00    +0.196 A 
ENDBRANCH  18  23
ENDBRANCH   8  15
BRANCH   9  14
ATOM     14  C   UNL     1      -4.550   2.029  24.529  0.00  0.00    +0.123 C 
BRANCH  14   4
ATOM      1  O   UNL     1      -4.099  -0.581  23.414  0.00  0.00    -0.276 OA
ATOM      4  N   UNL     1      -4.307   0.820  25.253  0.00  0.00    -0.314 N 
ATOM     17  C   UNL     1      -4.096  -0.411  24.632  0.00  0.00    +0.216 C 
ATOM     30  H   UNL     1      -4.292   0.878  26.265  0.00  0.00    +0.149 HD
BRANCH  17  19
ATOM     19  C   UNL     1      -3.874  -1.554  25.629  0.00  0.00    +0.074 C 
BRANCH  19  21
ATOM     21  C   UNL     1      -2.973  -1.134  26.803  0.00  0.00    +0.009 C 
ATOM     25  C   UNL     1      -1.503  -1.052  26.408  0.00  0.00    +0.004 C 
ENDBRANCH  19  21
BRANCH  19  22
ATOM     22  C   UNL     1      -3.327  -2.797  24.898  0.00  0.00    +0.009 C 
ATOM     26  C   UNL     1      -4.215  -3.317  23.773  0.00  0.00    +0.004 C 
ENDBRANCH  19  22
ENDBRANCH  17  19
ENDBRANCH  14   4
ENDBRANCH   9  14
TORSDOF 7
ENDMDL
MODEL 4
REMARK VINA RESULT:      -0.6      1.223      3.004
REMARK  Name = 26742418
REMARK  10 active torsions:
REMARK  status: ('A' for Active; 'I' for Inactive)
REMARK    1  A    between atoms: N_4  and  C_14
REMARK    2  A    between atoms: C_8  and  C_15
REMARK    3  A    between atoms: C_9  and  C_14
REMARK    4  A    between atoms: C_17  and  C_19
REMARK    5  A    between atoms: C_18  and  C_23
REMARK    6  A    between atoms: C_19  and  C_21
REMARK    7  A    between atoms: C_19  and  C_22
REMARK    8  A    between atoms: C_20  and  C_24
REMARK    9  A    between atoms: C_21  and  C_25
REMARK   10  A    between atoms: C_22  and  C_26
REMARK                            x       y       z     vdW  Elec       q    Type
REMARK                         _______ _______ _______ _____ _____    ______ ____
ROOT
ATOM      3  N   UNL     1      -5.108   3.573  24.061  0.00  0.00    -0.297 NA
ATOM      7  C   UNL     1      -3.922   3.965  26.346  0.00  0.00    +0.002 C 
ATOM      8  C   UNL     1      -2.889   3.989  25.186  0.00  0.00    +0.055 C 
ATOM      9  C   UNL     1      -5.525   2.530  25.034  0.00  0.00    +0.074 C 
ATOM     10  C   UNL     1      -4.681   2.621  26.324  0.00  0.00    +0.024 C 
ATOM     11  C   UNL     1      -4.953   5.073  26.047  0.00  0.00    +0.019 C 
ATOM     12  C   UNL     1      -3.633   3.551  23.893  0.00  0.00    +0.094 C 
ATOM     13  C   UNL     1      -5.490   4.893  24.617  0.00  0.00    +0.085 C 
ENDROOT
BRANCH   8  15
ATOM      5  N   UNL     1      -1.098   2.571  24.309  0.00  0.00    -0.237 NA
ATOM      6  N   UNL     1       0.776   1.887  25.662  0.00  0.00    -0.229 NA
ATOM     15  C   UNL     1      -1.576   3.243  25.377  0.00  0.00    +0.050 A 
ATOM     16  C   UNL     1      -0.944   3.283  26.603  0.00  0.00    +0.055 A 
ATOM     18  C   UNL     1       0.240   2.580  26.688  0.00  0.00    +0.110 A 
ATOM     20  C   UNL     1       0.065   1.924  24.519  0.00  0.00    +0.127 A 
ATOM     24  C   UNL     1       0.626   1.172  23.360  0.00  0.00    +0.088 C 
BRANCH  18  23
ATOM      2  O   UNL     1       2.280   2.985  27.815  0.00  0.00    -0.461 OA
ATOM     23  C   UNL     1       1.001   2.535  27.909  0.00  0.00    +0.153 A 
ATOM     27  C   UNL     1       0.725   2.129  29.194  0.00  0.00    +0.051 A 
ATOM     28  C   UNL     1       1.910   2.343  29.937  0.00  0.00    +0.042 A 
ATOM     29  C   UNL     1       2.826   2.865  29.053  0.00  0.00    +0.196 A 
ENDBRANCH  18  23
ENDBRANCH   8  15
BRANCH   9  14
ATOM     14  C   UNL     1      -5.496   1.124  24.433  0.00  0.00    +0.123 C 
BRANCH  14   4
ATOM      1  O   UNL     1      -2.934   0.044  23.709  0.00  0.00    -0.276 OA
ATOM      4  N   UNL     1      -4.684   0.248  25.219  0.00  0.00    -0.314 N 
ATOM     17  C   UNL     1      -3.446  -0.232  24.791  0.00  0.00    +0.216 C 
ATOM     30  H   UNL     1      -5.041  -0.029  26.127  0.00  0.00    +0.149 HD
BRANCH  17  19
ATOM     19  C   UNL     1      -2.783  -1.167  25.809  0.00  0.00    +0.074 C 
BRANCH  19  21
ATOM     21  C   UNL     1      -1.295  -0.837  26.017  0.00  0.00    +0.009 C 
ATOM     25  C   UNL     1      -0.379  -1.746  25.205  0.00  0.00    +0.004 C 
ENDBRANCH  19  21
BRANCH  19  22
ATOM     22  C   UNL     1      -2.996  -2.637  25.396  0.00  0.00    +0.009 C 
ATOM     26  C   UNL     1      -3.917  -2.837  24.198  0.00  0.00    +0.004 C 
ENDBRANCH  19  22
ENDBRANCH  17  19
ENDBRANCH  14   4
ENDBRANCH   9  14
TORSDOF 7
ENDMDL
MODEL 5
REMARK VINA RESULT:       1.5      1.506      2.242
REMARK  Name = 26742418
REMARK  10 active torsions:
REMARK  status: ('A' for Active; 'I' for Inactive)
REMARK    1  A    between atoms: N_4  and  C_14
REMARK    2  A    between atoms: C_8  and  C_15
REMARK    3  A    between atoms: C_9  and  C_14
REMARK    4  A    between atoms: C_17  and  C_19
REMARK    5  A    between atoms: C_18  and  C_23
REMARK    6  A    between atoms: C_19  and  C_21
REMARK    7  A    between atoms: C_19  and  C_22
REMARK    8  A    between atoms: C_20  and  C_24
REMARK    9  A    between atoms: C_21  and  C_25
REMARK   10  A    between atoms: C_22  and  C_26
REMARK                            x       y       z     vdW  Elec       q    Type
REMARK                         _______ _______ _______ _____ _____    ______ ____
ROOT
ATOM      3  N   UNL     1      -4.139   4.204  24.239  0.00  0.00    -0.297 NA
ATOM      7  C   UNL     1      -1.863   4.476  25.474  0.00  0.00    +0.002 C 
ATOM      8  C   UNL     1      -1.696   3.580  24.215  0.00  0.00    +0.055 C 
ATOM      9  C   UNL     1      -4.308   3.910  25.687  0.00  0.00    +0.074 C 
ATOM     10  C   UNL     1      -2.937   3.864  26.396  0.00  0.00    +0.024 C 
ATOM     11  C   UNL     1      -2.406   5.835  24.984  0.00  0.00    +0.019 C 
ATOM     12  C   UNL     1      -3.118   3.300  23.653  0.00  0.00    +0.094 C 
ATOM     13  C   UNL     1      -3.651   5.599  24.113  0.00  0.00    +0.085 C 
ENDROOT
BRANCH   8  15
ATOM      5  N   UNL     1      -1.296   1.389  25.229  0.00  0.00    -0.237 NA
ATOM      6  N   UNL     1       0.585   0.014  24.612  0.00  0.00    -0.229 NA
ATOM     15  C   UNL     1      -0.865   2.311  24.342  0.00  0.00    +0.050 A 
ATOM     16  C   UNL     1       0.266   2.158  23.566  0.00  0.00    +0.055 A 
ATOM     18  C   UNL     1       0.959   0.978  23.745  0.00  0.00    +0.110 A 
ATOM     20  C   UNL     1      -0.534   0.282  25.312  0.00  0.00    +0.127 A 
ATOM     24  C   UNL     1      -0.980  -0.762  26.280  0.00  0.00    +0.088 C 
BRANCH  18  23
ATOM      2  O   UNL     1       3.286   1.289  23.463  0.00  0.00    -0.461 OA
ATOM     23  C   UNL     1       2.157   0.690  23.002  0.00  0.00    +0.153 A 
ATOM     27  C   UNL     1       2.435  -0.079  21.897  0.00  0.00    +0.051 A 
ATOM     28  C   UNL     1       3.824   0.056  21.662  0.00  0.00    +0.042 A 
ATOM     29  C   UNL     1       4.296   0.898  22.642  0.00  0.00    +0.196 A 
ENDBRANCH  18  23
ENDBRANCH   8  15
BRANCH   9  14
ATOM     14  C   UNL     1      -5.121   2.638  25.934  0.00  0.00    +0.123 C 
BRANCH  14   4
ATOM      1  O   UNL     1      -5.960   0.449  24.272  0.00  0.00    -0.276 OA
ATOM      4  N   UNL     1      -4.360   1.473  25.605  0.00  0.00    -0.314 N 
ATOM     17  C   UNL     1      -4.843   0.452  24.786  0.00  0.00    +0.216 C 
ATOM     30  H   UNL     1      -3.427   1.400  25.995  0.00  0.00    +0.149 HD
BRANCH  17  19
ATOM     19  C   UNL     1      -3.841  -0.693  24.602  0.00  0.00    +0.074 C 
BRANCH  19  21
ATOM     21  C   UNL     1      -4.081  -1.470  23.296  0.00  0.00    +0.009 C 
ATOM     25  C   UNL     1      -4.815  -2.786  23.529  0.00  0.00    +0.004 C 
ENDBRANCH  19  21
BRANCH  19  22
ATOM     22  C   UNL     1      -3.859  -1.617  25.835  0.00  0.00    +0.009 C 
ATOM     26  C   UNL     1      -3.141  -2.949  25.645  0.00  0.00    +0.004 C 
ENDBRANCH  19  22
ENDBRANCH  17  19
ENDBRANCH  14   4
ENDBRANCH   9  14
TORSDOF 7
ENDMDL
MODEL 6
REMARK VINA RESULT:       1.7      1.843      4.399
REMARK  Name = 26742418
REMARK  10 active torsions:
REMARK  status: ('A' for Active; 'I' for Inactive)
REMARK    1  A    between atoms: N_4  and  C_14
REMARK    2  A    between atoms: C_8  and  C_15
REMARK    3  A    between atoms: C_9  and  C_14
REMARK    4  A    between atoms: C_17  and  C_19
REMARK    5  A    between atoms: C_18  and  C_23
REMARK    6  A    between atoms: C_19  and  C_21
REMARK    7  A    between atoms: C_19  and  C_22
REMARK    8  A    between atoms: C_20  and  C_24
REMARK    9  A    between atoms: C_21  and  C_25
REMARK   10  A    between atoms: C_22  and  C_26
REMARK                            x       y       z     vdW  Elec       q    Type
REMARK                         _______ _______ _______ _____ _____    ______ ____
ROOT
ATOM      3  N   UNL     1      -4.578   3.150  25.684  0.00  0.00    -0.297 NA
ATOM      7  C   UNL     1      -5.679   0.828  25.262  0.00  0.00    +0.002 C 
ATOM      8  C   UNL     1      -4.244   0.654  25.834  0.00  0.00    +0.055 C 
ATOM      9  C   UNL     1      -5.142   3.097  24.309  0.00  0.00    +0.074 C 
ATOM     10  C   UNL     1      -5.613   1.666  23.969  0.00  0.00    +0.024 C 
ATOM     11  C   UNL     1      -6.474   1.651  26.297  0.00  0.00    +0.019 C 
ATOM     12  C   UNL     1      -3.585   2.062  25.867  0.00  0.00    +0.094 C 
ATOM     13  C   UNL     1      -5.689   2.929  26.640  0.00  0.00    +0.085 C 
ENDROOT
BRANCH   8  15
ATOM      5  N   UNL     1      -3.850  -1.635  25.067  0.00  0.00    -0.237 NA
ATOM      6  N   UNL     1      -1.763  -2.312  24.070  0.00  0.00    -0.229 NA
ATOM     15  C   UNL     1      -3.340  -0.393  25.200  0.00  0.00    +0.050 A 
ATOM     16  C   UNL     1      -2.068  -0.039  24.799  0.00  0.00    +0.055 A 
ATOM     18  C   UNL     1      -1.316  -1.049  24.235  0.00  0.00    +0.110 A 
ATOM     20  C   UNL     1      -3.019  -2.533  24.503  0.00  0.00    +0.127 A 
ATOM     24  C   UNL     1      -3.548  -3.917  24.336  0.00  0.00    +0.088 C 
BRANCH  18  23
ATOM      2  O   UNL     1       0.133  -0.160  22.591  0.00  0.00    -0.461 OA
ATOM     23  C   UNL     1       0.027  -0.820  23.774  0.00  0.00    +0.153 A 
ATOM     27  C   UNL     1       1.273  -1.121  24.272  0.00  0.00    +0.051 A 
ATOM     28  C   UNL     1       2.204  -0.616  23.334  0.00  0.00    +0.042 A 
ATOM     29  C   UNL     1       1.461  -0.040  22.330  0.00  0.00    +0.196 A 
ENDBRANCH  18  23
ENDBRANCH   8  15
BRANCH   9  14
ATOM     14  C   UNL     1      -4.173   3.643  23.258  0.00  0.00    +0.123 C 
BRANCH  14   4
ATOM      1  O   UNL     1      -1.766   2.164  22.733  0.00  0.00    -0.276 OA
ATOM      4  N   UNL     1      -2.883   3.880  23.826  0.00  0.00    -0.314 N 
ATOM     17  C   UNL     1      -1.760   3.112  23.516  0.00  0.00    +0.216 C 
ATOM     30  H   UNL     1      -2.797   4.645  24.486  0.00  0.00    +0.149 HD
BRANCH  17  19
ATOM     19  C   UNL     1      -0.503   3.558  24.270  0.00  0.00    +0.074 C 
BRANCH  19  21
ATOM     21  C   UNL     1       0.241   2.374  24.911  0.00  0.00    +0.009 C 
ATOM     25  C   UNL     1       0.159   2.390  26.433  0.00  0.00    +0.004 C 
ENDBRANCH  19  21
BRANCH  19  22
ATOM     22  C   UNL     1      -0.862   4.642  25.306  0.00  0.00    +0.009 C 
ATOM     26  C   UNL     1      -1.018   6.046  24.732  0.00  0.00    +0.004 C 
ENDBRANCH  19  22
ENDBRANCH  17  19
ENDBRANCH  14   4
ENDBRANCH   9  14
TORSDOF 7
ENDMDL
MODEL 7
REMARK VINA RESULT:       2.5      1.613      4.153
REMARK  Name = 26742418
REMARK  10 active torsions:
REMARK  status: ('A' for Active; 'I' for Inactive)
REMARK    1  A    between atoms: N_4  and  C_14
REMARK    2  A    between atoms: C_8  and  C_15
REMARK    3  A    between atoms: C_9  and  C_14
REMARK    4  A    between atoms: C_17  and  C_19
REMARK    5  A    between atoms: C_18  and  C_23
REMARK    6  A    between atoms: C_19  and  C_21
REMARK    7  A    between atoms: C_19  and  C_22
REMARK    8  A    between atoms: C_20  and  C_24
REMARK    9  A    between atoms: C_21  and  C_25
REMARK   10  A    between atoms: C_22  and  C_26
REMARK                            x       y       z     vdW  Elec       q    Type
REMARK                         _______ _______ _______ _____ _____    ______ ____
ROOT
ATOM      3  N   UNL     1      -4.083   3.610  25.897  0.00  0.00    -0.297 NA
ATOM      7  C   UNL     1      -4.792   2.143  23.865  0.00  0.00    +0.002 C 
ATOM      8  C   UNL     1      -4.182   1.259  24.988  0.00  0.00    +0.055 C 
ATOM      9  C   UNL     1      -3.536   4.184  24.640  0.00  0.00    +0.074 C 
ATOM     10  C   UNL     1      -3.769   3.223  23.455  0.00  0.00    +0.024 C 
ATOM     11  C   UNL     1      -6.002   2.876  24.483  0.00  0.00    +0.019 C 
ATOM     12  C   UNL     1      -3.603   2.216  26.068  0.00  0.00    +0.094 C 
ATOM     13  C   UNL     1      -5.560   3.580  25.778  0.00  0.00    +0.085 C 
ENDROOT
BRANCH   8  15
ATOM      5  N   UNL     1      -3.591  -1.105  24.770  0.00  0.00    -0.237 NA
ATOM      6  N   UNL     1      -1.463  -1.820  23.894  0.00  0.00    -0.229 NA
ATOM     15  C   UNL     1      -3.194   0.172  24.590  0.00  0.00    +0.050 A 
ATOM     16  C   UNL     1      -1.964   0.527  24.075  0.00  0.00    +0.055 A 
ATOM     18  C   UNL     1      -1.131  -0.521  23.741  0.00  0.00    +0.110 A 
ATOM     20  C   UNL     1      -2.689  -2.037  24.407  0.00  0.00    +0.127 A 
ATOM     24  C   UNL     1      -3.093  -3.461  24.589  0.00  0.00    +0.088 C 
BRANCH  18  23
ATOM      2  O   UNL     1       0.338  -0.640  21.891  0.00  0.00    -0.461 OA
ATOM     23  C   UNL     1       0.181  -0.294  23.196  0.00  0.00    +0.153 A 
ATOM     27  C   UNL     1       1.354   0.212  23.706  0.00  0.00    +0.051 A 
ATOM     28  C   UNL     1       2.292   0.173  22.647  0.00  0.00    +0.042 A 
ATOM     29  C   UNL     1       1.625  -0.353  21.565  0.00  0.00    +0.196 A 
ENDBRANCH  18  23
ENDBRANCH   8  15
BRANCH   9  14
ATOM     14  C   UNL     1      -2.064   4.581  24.771  0.00  0.00    +0.123 C 
BRANCH  14   4
ATOM      1  O   UNL     1       0.386   3.167  24.263  0.00  0.00    -0.276 OA
ATOM      4  N   UNL     1      -1.377   3.709  25.672  0.00  0.00    -0.314 N 
ATOM     17  C   UNL     1      -0.187   3.059  25.345  0.00  0.00    +0.216 C 
ATOM     30  H   UNL     1      -1.790   3.565  26.587  0.00  0.00    +0.149 HD
BRANCH  17  19
ATOM     19  C   UNL     1       0.338   2.168  26.476  0.00  0.00    +0.074 C 
BRANCH  19  21
ATOM     21  C   UNL     1      -0.780   1.335  27.126  0.00  0.00    +0.009 C 
ATOM     25  C   UNL     1      -0.592  -0.162  26.908  0.00  0.00    +0.004 C 
ENDBRANCH  19  21
BRANCH  19  22
ATOM     22  C   UNL     1       1.099   3.019  27.512  0.00  0.00    +0.009 C 
ATOM     26  C   UNL     1       1.283   2.355  28.872  0.00  0.00    +0.004 C 
ENDBRANCH  19  22
ENDBRANCH  17  19
ENDBRANCH  14   4
ENDBRANCH   9  14
TORSDOF 7
ENDMDL
