MODEL 1
REMARK VINA RESULT:      -0.9      0.000      0.000
REMARK  Name = 45783823
REMARK  7 active torsions:
REMARK  status: ('A' for Active; 'I' for Inactive)
REMARK    1  A    between atoms: N_3  and  C_12
REMARK    2  A    between atoms: N_7  and  C_27
REMARK    3  A    between atoms: N_7  and  C_28
REMARK    4  A    between atoms: N_7  and  C_29
REMARK    5  A    between atoms: C_8  and  C_13
REMARK    6  A    between atoms: C_12  and  C_14
REMARK    7  A    between atoms: C_17  and  C_19
REMARK                            x       y       z     vdW  Elec       q    Type
REMARK                         _______ _______ _______ _____ _____    ______ ____
ROOT
ATOM      3  N   UNL     1      -3.924   3.091  25.679  0.00  0.00    -0.284 NA
ATOM      8  C   UNL     1      -3.338   3.643  24.440  0.00  0.00    +0.146 C 
ATOM      9  C   UNL     1      -2.756   5.006  24.856  0.00  0.00    +0.030 C 
ATOM     10  C   UNL     1      -3.116   5.160  26.327  0.00  0.00    +0.017 C 
ATOM     11  C   UNL     1      -4.306   4.239  26.501  0.00  0.00    +0.085 C 
ENDROOT
BRANCH   8  13
ATOM      1  O   UNL     1      -2.663   2.071  22.695  0.00  0.00    -0.336 OA
ATOM      4  N   UNL     1      -1.084   2.461  24.235  0.00  0.00    -0.190 NA
ATOM      5  N   UNL     1      -1.556   1.296  22.324  0.00  0.00    -0.056 NA
ATOM     13  C   UNL     1      -2.300   2.726  23.829  0.00  0.00    +0.245 A 
ATOM     17  C   UNL     1      -0.667   1.579  23.281  0.00  0.00    +0.204 A 
BRANCH  17  19
ATOM      6  N   UNL     1       3.038   1.313  23.458  0.00  0.00    -0.240 NA
ATOM     19  C   UNL     1       0.645   1.001  23.310  0.00  0.00    +0.041 A 
ATOM     24  C   UNL     1       0.823  -0.375  23.224  0.00  0.00    +0.016 A 
ATOM     25  C   UNL     1       1.775   1.795  23.425  0.00  0.00    +0.124 A 
ATOM     26  C   UNL     1       2.107  -0.908  23.254  0.00  0.00    +0.044 A 
ATOM     27  C   UNL     1       3.171  -0.028  23.372  0.00  0.00    +0.121 A 
BRANCH  27   7
ATOM      7  N   UNL     1       4.474  -0.586  23.402  0.00  0.00    -0.321 N 
ATOM     28  C   UNL     1       4.661  -1.978  23.747  0.00  0.00    +0.130 C 
ATOM     29  C   UNL     1       5.624   0.235  23.097  0.00  0.00    +0.130 C 
ENDBRANCH  27   7
ENDBRANCH  17  19
ENDBRANCH   8  13
BRANCH   3  12
ATOM     12  C   UNL     1      -5.046   2.194  25.434  0.00  0.00    +0.159 C 
BRANCH  12  14
ATOM      2  O   UNL     1      -3.333   0.466  25.454  0.00  0.00    -0.458 OA
ATOM     14  C   UNL     1      -4.585   0.812  25.056  0.00  0.00    +0.120 A 
ATOM     15  C   UNL     1      -5.180  -0.221  24.367  0.00  0.00    +0.054 A 
ATOM     16  C   UNL     1      -4.234  -1.279  24.336  0.00  0.00    +0.020 A 
ATOM     18  C   UNL     1      -3.116  -0.807  25.017  0.00  0.00    +0.135 A 
ATOM     20  C   UNL     1      -4.198  -2.581  23.807  0.00  0.00    +0.011 A 
ATOM     21  C   UNL     1      -1.951  -1.545  25.213  0.00  0.00    +0.047 A 
ATOM     22  C   UNL     1      -3.038  -3.348  23.988  0.00  0.00    +0.001 A 
ATOM     23  C   UNL     1      -1.936  -2.838  24.680  0.00  0.00    +0.004 A 
ENDBRANCH  12  14
ENDBRANCH   3  12
TORSDOF 5
ENDMDL
MODEL 2
REMARK VINA RESULT:       1.0      1.469      2.100
REMARK  Name = 45783823
REMARK  7 active torsions:
REMARK  status: ('A' for Active; 'I' for Inactive)
REMARK    1  A    between atoms: N_3  and  C_12
REMARK    2  A    between atoms: N_7  and  C_27
REMARK    3  A    between atoms: N_7  and  C_28
REMARK    4  A    between atoms: N_7  and  C_29
REMARK    5  A    between atoms: C_8  and  C_13
REMARK    6  A    between atoms: C_12  and  C_14
REMARK    7  A    between atoms: C_17  and  C_19
REMARK                            x       y       z     vdW  Elec       q    Type
REMARK                         _______ _______ _______ _____ _____    ______ ____
ROOT
ATOM      3  N   UNL     1      -5.451   1.997  25.257  0.00  0.00    -0.284 NA
ATOM      8  C   UNL     1      -4.752   3.016  24.447  0.00  0.00    +0.146 C 
ATOM      9  C   UNL     1      -5.249   4.364  24.998  0.00  0.00    +0.030 C 
ATOM     10  C   UNL     1      -6.269   4.003  26.070  0.00  0.00    +0.017 C 
ATOM     11  C   UNL     1      -6.710   2.606  25.686  0.00  0.00    +0.085 C 
ENDROOT
BRANCH   8  13
ATOM      1  O   UNL     1      -2.594   3.742  25.337  0.00  0.00    -0.336 OA
ATOM      4  N   UNL     1      -2.458   2.042  23.885  0.00  0.00    -0.190 NA
ATOM      5  N   UNL     1      -1.233   3.427  25.232  0.00  0.00    -0.056 NA
ATOM     13  C   UNL     1      -3.245   2.879  24.514  0.00  0.00    +0.245 A 
ATOM     17  C   UNL     1      -1.234   2.416  24.358  0.00  0.00    +0.204 A 
BRANCH  17  19
ATOM      6  N   UNL     1       1.037  -0.207  23.019  0.00  0.00    -0.240 NA
ATOM     19  C   UNL     1      -0.031   1.758  23.938  0.00  0.00    +0.041 A 
ATOM     24  C   UNL     1       1.201   2.394  24.028  0.00  0.00    +0.016 A 
ATOM     25  C   UNL     1      -0.060   0.469  23.431  0.00  0.00    +0.124 A 
ATOM     26  C   UNL     1       2.352   1.731  23.614  0.00  0.00    +0.044 A 
ATOM     27  C   UNL     1       2.216   0.443  23.122  0.00  0.00    +0.121 A 
BRANCH  27   7
ATOM      7  N   UNL     1       3.397  -0.219  22.703  0.00  0.00    -0.321 N 
ATOM     28  C   UNL     1       3.896  -1.356  23.443  0.00  0.00    +0.130 C 
ATOM     29  C   UNL     1       4.116   0.244  21.536  0.00  0.00    +0.130 C 
ENDBRANCH  27   7
ENDBRANCH  17  19
ENDBRANCH   8  13
BRANCH   3  12
ATOM     12  C   UNL     1      -5.661   0.743  24.546  0.00  0.00    +0.159 C 
BRANCH  12  14
ATOM      2  O   UNL     1      -3.546   0.146  25.589  0.00  0.00    -0.458 OA
ATOM     14  C   UNL     1      -4.457  -0.157  24.628  0.00  0.00    +0.120 A 
ATOM     15  C   UNL     1      -4.062  -1.264  23.914  0.00  0.00    +0.054 A 
ATOM     16  C   UNL     1      -2.822  -1.678  24.469  0.00  0.00    +0.020 A 
ATOM     18  C   UNL     1      -2.549  -0.779  25.495  0.00  0.00    +0.135 A 
ATOM     20  C   UNL     1      -1.902  -2.710  24.217  0.00  0.00    +0.011 A 
ATOM     21  C   UNL     1      -1.413  -0.833  26.298  0.00  0.00    +0.047 A 
ATOM     22  C   UNL     1      -0.748  -2.790  25.010  0.00  0.00    +0.001 A 
ATOM     23  C   UNL     1      -0.511  -1.867  26.032  0.00  0.00    +0.004 A 
ENDBRANCH  12  14
ENDBRANCH   3  12
TORSDOF 5
ENDMDL
MODEL 3
REMARK VINA RESULT:       2.8      1.676      4.618
REMARK  Name = 45783823
REMARK  7 active torsions:
REMARK  status: ('A' for Active; 'I' for Inactive)
REMARK    1  A    between atoms: N_3  and  C_12
REMARK    2  A    between atoms: N_7  and  C_27
REMARK    3  A    between atoms: N_7  and  C_28
REMARK    4  A    between atoms: N_7  and  C_29
REMARK    5  A    between atoms: C_8  and  C_13
REMARK    6  A    between atoms: C_12  and  C_14
REMARK    7  A    between atoms: C_17  and  C_19
REMARK                            x       y       z     vdW  Elec       q    Type
REMARK                         _______ _______ _______ _____ _____    ______ ____
ROOT
ATOM      3  N   UNL     1      -3.646  -0.941  24.518  0.00  0.00    -0.284 NA
ATOM      8  C   UNL     1      -2.434  -1.783  24.578  0.00  0.00    +0.146 C 
ATOM      9  C   UNL     1      -2.781  -3.031  23.746  0.00  0.00    +0.030 C 
ATOM     10  C   UNL     1      -4.227  -2.830  23.313  0.00  0.00    +0.017 C 
ATOM     11  C   UNL     1      -4.773  -1.856  24.336  0.00  0.00    +0.085 C 
ENDROOT
BRANCH   8  13
ATOM      1  O   UNL     1      -1.417   0.038  23.304  0.00  0.00    -0.336 OA
ATOM      4  N   UNL     1       0.062  -1.354  24.248  0.00  0.00    -0.190 NA
ATOM      5  N   UNL     1      -0.148   0.521  22.955  0.00  0.00    -0.056 NA
ATOM     13  C   UNL     1      -1.201  -1.066  24.067  0.00  0.00    +0.245 A 
ATOM     17  C   UNL     1       0.670  -0.354  23.548  0.00  0.00    +0.204 A 
BRANCH  17  19
ATOM      6  N   UNL     1       4.265  -1.268  23.808  0.00  0.00    -0.240 NA
ATOM     19  C   UNL     1       2.098  -0.253  23.461  0.00  0.00    +0.041 A 
ATOM     24  C   UNL     1       2.707   0.897  22.972  0.00  0.00    +0.016 A 
ATOM     25  C   UNL     1       2.915  -1.299  23.863  0.00  0.00    +0.124 A 
ATOM     26  C   UNL     1       4.094   0.966  22.901  0.00  0.00    +0.044 A 
ATOM     27  C   UNL     1       4.821  -0.134  23.327  0.00  0.00    +0.121 A 
BRANCH  27   7
ATOM      7  N   UNL     1       6.234  -0.049  23.247  0.00  0.00    -0.321 N 
ATOM     28  C   UNL     1       6.978  -1.016  22.471  0.00  0.00    +0.130 C 
ATOM     29  C   UNL     1       6.940   1.000  23.947  0.00  0.00    +0.130 C 
ENDBRANCH  27   7
ENDBRANCH  17  19
ENDBRANCH   8  13
BRANCH   3  12
ATOM     12  C   UNL     1      -3.813  -0.090  25.688  0.00  0.00    +0.159 C 
BRANCH  12  14
ATOM      2  O   UNL     1      -2.066   1.601  25.590  0.00  0.00    -0.458 OA
ATOM     14  C   UNL     1      -3.385   1.328  25.415  0.00  0.00    +0.120 A 
ATOM     15  C   UNL     1      -4.067   2.452  25.010  0.00  0.00    +0.054 A 
ATOM     16  C   UNL     1      -3.106   3.495  24.928  0.00  0.00    +0.020 A 
ATOM     18  C   UNL     1      -1.893   2.920  25.294  0.00  0.00    +0.135 A 
ATOM     20  C   UNL     1      -3.128   4.858  24.586  0.00  0.00    +0.011 A 
ATOM     21  C   UNL     1      -0.685   3.612  25.345  0.00  0.00    +0.047 A 
ATOM     22  C   UNL     1      -1.927   5.581  24.628  0.00  0.00    +0.001 A 
ATOM     23  C   UNL     1      -0.728   4.967  25.000  0.00  0.00    +0.004 A 
ENDBRANCH  12  14
ENDBRANCH   3  12
TORSDOF 5
ENDMDL
