MODEL 1
REMARK VINA RESULT:      -5.5      0.000      0.000
REMARK  Name = 26743844
REMARK  8 active torsions:
REMARK  status: ('A' for Active; 'I' for Inactive)
REMARK    1  A    between atoms: O_1  and  C_10
REMARK    2  A    between atoms: O_4  and  C_20
REMARK    3  A    between atoms: N_5  and  C_12
REMARK    4  A    between atoms: C_8  and  C_13
REMARK    5  A    between atoms: C_12  and  C_14
REMARK    6  A    between atoms: C_16  and  C_19
REMARK    7  A    between atoms: C_17  and  C_20
REMARK    8  A    between atoms: C_23  and  C_26
REMARK                            x       y       z     vdW  Elec       q    Type
REMARK                         _______ _______ _______ _____ _____    ______ ____
ROOT
ATOM      5  N   UNL     1      -3.120 -10.124  14.312  0.00  0.00    -0.282 NA
ATOM      8  C   UNL     1      -3.436 -10.781  15.596  0.00  0.00    +0.149 C 
ATOM      9  C   UNL     1      -2.224 -10.484  16.498  0.00  0.00    +0.061 C 
ATOM     10  C   UNL     1      -1.261  -9.696  15.619  0.00  0.00    +0.130 C 
ATOM     11  C   UNL     1      -1.663 -10.091  14.210  0.00  0.00    +0.117 C 
ENDROOT
BRANCH   8  13
ATOM      2  O   UNL     1      -4.784 -10.185  17.546  0.00  0.00    -0.336 OA
ATOM      6  N   UNL     1      -5.856  -9.967  15.593  0.00  0.00    -0.190 NA
ATOM      7  N   UNL     1      -6.071  -9.730  17.858  0.00  0.00    -0.056 NA
ATOM     13  C   UNL     1      -4.742 -10.298  16.192  0.00  0.00    +0.245 A 
ATOM     16  C   UNL     1      -6.642  -9.626  16.654  0.00  0.00    +0.202 A 
BRANCH  16  19
ATOM     19  C   UNL     1      -7.995  -9.182  16.478  0.00  0.00    +0.023 A 
ATOM     21  C   UNL     1      -8.639  -9.371  15.255  0.00  0.00    +0.015 A 
ATOM     22  C   UNL     1      -8.668  -8.563  17.532  0.00  0.00    +0.012 A 
ATOM     23  C   UNL     1      -9.955  -8.941  15.085  0.00  0.00    -0.050 A 
ATOM     24  C   UNL     1      -9.984  -8.133  17.362  0.00  0.00    +0.001 A 
ATOM     25  C   UNL     1     -10.627  -8.322  16.139  0.00  0.00    +0.003 A 
ATOM     26  C   UNL     1     -10.642  -9.142  13.778  0.00  0.00    +0.044 C 
ENDBRANCH  16  19
ENDBRANCH   8  13
BRANCH  10   1
ATOM      1  O   UNL     1       0.079 -10.047  15.902  0.00  0.00    -0.390 OA
ATOM     27  H   UNL     1       0.635  -9.667  15.199  0.00  0.00    +0.210 HD
ENDBRANCH  10   1
BRANCH   5  12
ATOM     12  C   UNL     1      -3.734 -10.781  13.165  0.00  0.00    +0.159 C 
BRANCH  12  14
ATOM      3  O   UNL     1      -4.656  -9.412  11.375  0.00  0.00    -0.461 OA
ATOM     14  C   UNL     1      -3.543  -9.990  11.898  0.00  0.00    +0.119 A 
ATOM     15  C   UNL     1      -2.443  -9.712  11.120  0.00  0.00    +0.046 A 
ATOM     17  C   UNL     1      -4.263  -8.758  10.251  0.00  0.00    +0.131 A 
ATOM     18  C   UNL     1      -2.912  -8.912  10.049  0.00  0.00    +0.047 A 
BRANCH  17  20
ATOM     20  C   UNL     1      -5.316  -8.048   9.510  0.00  0.00    +0.230 C 
BRANCH  20   4
ATOM      4  O   UNL     1      -6.606  -8.467   9.962  0.00  0.00    -0.387 OA
ATOM     28  H   UNL     1      -6.461  -9.103  10.684  0.00  0.00    +0.210 HD
ENDBRANCH  20   4
ENDBRANCH  17  20
ENDBRANCH  12  14
ENDBRANCH   5  12
TORSDOF 7
ENDMDL
MODEL 2
REMARK VINA RESULT:      -5.4      2.053      3.512
REMARK  Name = 26743844
REMARK  8 active torsions:
REMARK  status: ('A' for Active; 'I' for Inactive)
REMARK    1  A    between atoms: O_1  and  C_10
REMARK    2  A    between atoms: O_4  and  C_20
REMARK    3  A    between atoms: N_5  and  C_12
REMARK    4  A    between atoms: C_8  and  C_13
REMARK    5  A    between atoms: C_12  and  C_14
REMARK    6  A    between atoms: C_16  and  C_19
REMARK    7  A    between atoms: C_17  and  C_20
REMARK    8  A    between atoms: C_23  and  C_26
REMARK                            x       y       z     vdW  Elec       q    Type
REMARK                         _______ _______ _______ _____ _____    ______ ____
ROOT
ATOM      5  N   UNL     1      -3.420  -9.872  11.679  0.00  0.00    -0.282 NA
ATOM      8  C   UNL     1      -2.602 -10.657  12.627  0.00  0.00    +0.149 C 
ATOM      9  C   UNL     1      -1.183 -10.074  12.498  0.00  0.00    +0.061 C 
ATOM     10  C   UNL     1      -1.293  -9.001  11.422  0.00  0.00    +0.130 C 
ATOM     11  C   UNL     1      -2.514  -9.421  10.625  0.00  0.00    +0.117 C 
ENDROOT
BRANCH   8  13
ATOM      2  O   UNL     1      -2.227 -10.781  15.039  0.00  0.00    -0.336 OA
ATOM      6  N   UNL     1      -4.355 -10.388  14.465  0.00  0.00    -0.190 NA
ATOM      7  N   UNL     1      -2.942 -10.682  16.239  0.00  0.00    -0.056 NA
ATOM     13  C   UNL     1      -3.134 -10.595  14.044  0.00  0.00    +0.245 A 
ATOM     16  C   UNL     1      -4.188 -10.451  15.817  0.00  0.00    +0.202 A 
BRANCH  16  19
ATOM     19  C   UNL     1      -5.288 -10.275  16.721  0.00  0.00    +0.023 A 
ATOM     21  C   UNL     1      -6.459  -9.656  16.284  0.00  0.00    +0.015 A 
ATOM     22  C   UNL     1      -5.188 -10.727  18.037  0.00  0.00    +0.012 A 
ATOM     23  C   UNL     1      -7.530  -9.487  17.163  0.00  0.00    -0.050 A 
ATOM     24  C   UNL     1      -6.258 -10.558  18.916  0.00  0.00    +0.001 A 
ATOM     25  C   UNL     1      -7.429  -9.938  18.479  0.00  0.00    +0.003 A 
ATOM     26  C   UNL     1      -8.781  -8.825  16.695  0.00  0.00    +0.044 C 
ENDBRANCH  16  19
ENDBRANCH   8  13
BRANCH  10   1
ATOM      1  O   UNL     1      -0.128  -8.971  10.622  0.00  0.00    -0.390 OA
ATOM     27  H   UNL     1      -0.410  -8.840   9.700  0.00  0.00    +0.210 HD
ENDBRANCH  10   1
BRANCH   5  12
ATOM     12  C   UNL     1      -4.553 -10.617  11.146  0.00  0.00    +0.159 C 
BRANCH  12  14
ATOM      3  O   UNL     1      -6.891 -10.005  10.850  0.00  0.00    -0.461 OA
ATOM     14  C   UNL     1      -5.598  -9.705  10.561  0.00  0.00    +0.119 A 
ATOM     15  C   UNL     1      -5.529  -8.585   9.764  0.00  0.00    +0.046 A 
ATOM     17  C   UNL     1      -7.656  -9.069  10.232  0.00  0.00    +0.131 A 
ATOM     18  C   UNL     1      -6.867  -8.173   9.550  0.00  0.00    +0.047 A 
BRANCH  17  20
ATOM     20  C   UNL     1      -9.110  -9.197  10.408  0.00  0.00    +0.230 C 
BRANCH  20   4
ATOM      4  O   UNL     1      -9.405  -9.735  11.700  0.00  0.00    -0.387 OA
ATOM     28  H   UNL     1      -9.955 -10.525  11.559  0.00  0.00    +0.210 HD
ENDBRANCH  20   4
ENDBRANCH  17  20
ENDBRANCH  12  14
ENDBRANCH   5  12
TORSDOF 7
ENDMDL
MODEL 3
REMARK VINA RESULT:      -5.2     13.242     16.268
REMARK  Name = 26743844
REMARK  8 active torsions:
REMARK  status: ('A' for Active; 'I' for Inactive)
REMARK    1  A    between atoms: O_1  and  C_10
REMARK    2  A    between atoms: O_4  and  C_20
REMARK    3  A    between atoms: N_5  and  C_12
REMARK    4  A    between atoms: C_8  and  C_13
REMARK    5  A    between atoms: C_12  and  C_14
REMARK    6  A    between atoms: C_16  and  C_19
REMARK    7  A    between atoms: C_17  and  C_20
REMARK    8  A    between atoms: C_23  and  C_26
REMARK                            x       y       z     vdW  Elec       q    Type
REMARK                         _______ _______ _______ _____ _____    ______ ____
ROOT
ATOM      5  N   UNL     1      -4.690   1.381  24.962  0.00  0.00    -0.282 NA
ATOM      8  C   UNL     1      -3.883   2.317  24.152  0.00  0.00    +0.149 C 
ATOM      9  C   UNL     1      -4.166   3.704  24.757  0.00  0.00    +0.061 C 
ATOM     10  C   UNL     1      -5.177   3.453  25.868  0.00  0.00    +0.130 C 
ATOM     11  C   UNL     1      -5.831   2.145  25.463  0.00  0.00    +0.117 C 
ENDROOT
BRANCH   8  13
ATOM      2  O   UNL     1      -1.714   2.283  25.279  0.00  0.00    -0.336 OA
ATOM      6  N   UNL     1      -1.689   1.398  23.222  0.00  0.00    -0.190 NA
ATOM      7  N   UNL     1      -0.395   1.872  25.049  0.00  0.00    -0.056 NA
ATOM     13  C   UNL     1      -2.409   1.967  24.155  0.00  0.00    +0.245 A 
ATOM     16  C   UNL     1      -0.461   1.361  23.816  0.00  0.00    +0.202 A 
BRANCH  16  19
ATOM     19  C   UNL     1       0.681   0.804  23.150  0.00  0.00    +0.023 A 
ATOM     21  C   UNL     1       1.966   1.204  23.513  0.00  0.00    +0.015 A 
ATOM     22  C   UNL     1       0.504  -0.142  22.140  0.00  0.00    +0.012 A 
ATOM     23  C   UNL     1       3.076   0.660  22.866  0.00  0.00    -0.050 A 
ATOM     24  C   UNL     1       1.615  -0.687  21.493  0.00  0.00    +0.001 A 
ATOM     25  C   UNL     1       2.900  -0.285  21.856  0.00  0.00    +0.003 A 
ATOM     26  C   UNL     1       4.450   1.089  23.254  0.00  0.00    +0.044 C 
ENDBRANCH  16  19
ENDBRANCH   8  13
BRANCH  10   1
ATOM      1  O   UNL     1      -6.116   4.508  25.941  0.00  0.00    -0.390 OA
ATOM     27  H   UNL     1      -5.644   5.333  25.736  0.00  0.00    +0.210 HD
ENDBRANCH  10   1
BRANCH   5  12
ATOM     12  C   UNL     1      -5.105   0.195  24.224  0.00  0.00    +0.159 C 
BRANCH  12  14
ATOM      3  O   UNL     1      -2.960  -0.635  25.020  0.00  0.00    -0.461 OA
ATOM     14  C   UNL     1      -4.110  -0.927  24.360  0.00  0.00    +0.119 A 
ATOM     15  C   UNL     1      -4.110  -2.239  23.946  0.00  0.00    +0.046 A 
ATOM     17  C   UNL     1      -2.216  -1.771  25.027  0.00  0.00    +0.131 A 
ATOM     18  C   UNL     1      -2.879  -2.787  24.379  0.00  0.00    +0.047 A 
BRANCH  17  20
ATOM     20  C   UNL     1      -0.911  -1.690  25.698  0.00  0.00    +0.230 C 
BRANCH  20   4
ATOM      4  O   UNL     1      -0.849  -0.522  26.521  0.00  0.00    -0.387 OA
ATOM     28  H   UNL     1      -0.028  -0.582  27.037  0.00  0.00    +0.210 HD
ENDBRANCH  20   4
ENDBRANCH  17  20
ENDBRANCH  12  14
ENDBRANCH   5  12
TORSDOF 7
ENDMDL
MODEL 4
REMARK VINA RESULT:      -4.1      1.414      2.013
REMARK  Name = 26743844
REMARK  8 active torsions:
REMARK  status: ('A' for Active; 'I' for Inactive)
REMARK    1  A    between atoms: O_1  and  C_10
REMARK    2  A    between atoms: O_4  and  C_20
REMARK    3  A    between atoms: N_5  and  C_12
REMARK    4  A    between atoms: C_8  and  C_13
REMARK    5  A    between atoms: C_12  and  C_14
REMARK    6  A    between atoms: C_16  and  C_19
REMARK    7  A    between atoms: C_17  and  C_20
REMARK    8  A    between atoms: C_23  and  C_26
REMARK                            x       y       z     vdW  Elec       q    Type
REMARK                         _______ _______ _______ _____ _____    ______ ____
ROOT
ATOM      5  N   UNL     1      -3.044 -10.082  14.541  0.00  0.00    -0.282 NA
ATOM      8  C   UNL     1      -3.448 -10.781  15.777  0.00  0.00    +0.149 C 
ATOM      9  C   UNL     1      -2.294 -10.531  16.765  0.00  0.00    +0.061 C 
ATOM     10  C   UNL     1      -1.269  -9.723  15.979  0.00  0.00    +0.130 C 
ATOM     11  C   UNL     1      -1.583 -10.063  14.534  0.00  0.00    +0.117 C 
ENDROOT
BRANCH   8  13
ATOM      2  O   UNL     1      -4.928 -10.278  17.657  0.00  0.00    -0.336 OA
ATOM      6  N   UNL     1      -5.844  -9.906  15.648  0.00  0.00    -0.190 NA
ATOM      7  N   UNL     1      -6.225  -9.811  17.902  0.00  0.00    -0.056 NA
ATOM     13  C   UNL     1      -4.785 -10.304  16.306  0.00  0.00    +0.245 A 
ATOM     16  C   UNL     1      -6.701  -9.615  16.669  0.00  0.00    +0.202 A 
BRANCH  16  19
ATOM     19  C   UNL     1      -8.027  -9.126  16.423  0.00  0.00    +0.023 A 
ATOM     21  C   UNL     1      -8.647  -9.373  15.199  0.00  0.00    +0.015 A 
ATOM     22  C   UNL     1      -8.697  -8.404  17.411  0.00  0.00    +0.012 A 
ATOM     23  C   UNL     1      -9.937  -8.900  14.961  0.00  0.00    -0.050 A 
ATOM     24  C   UNL     1      -9.988  -7.930  17.173  0.00  0.00    +0.001 A 
ATOM     25  C   UNL     1     -10.607  -8.177  15.948  0.00  0.00    +0.003 A 
ATOM     26  C   UNL     1     -10.599  -9.165  13.652  0.00  0.00    +0.044 C 
ENDBRANCH  16  19
ENDBRANCH   8  13
BRANCH  10   1
ATOM      1  O   UNL     1       0.046 -10.101  16.334  0.00  0.00    -0.390 OA
ATOM     27  H   UNL     1       0.510 -10.348  15.515  0.00  0.00    +0.210 HD
ENDBRANCH  10   1
BRANCH   5  12
ATOM     12  C   UNL     1      -3.589 -10.690  13.334  0.00  0.00    +0.159 C 
BRANCH  12  14
ATOM      3  O   UNL     1      -1.706  -9.742  12.118  0.00  0.00    -0.461 OA
ATOM     14  C   UNL     1      -3.025 -10.064  12.086  0.00  0.00    +0.119 A 
ATOM     15  C   UNL     1      -3.574  -9.732  10.869  0.00  0.00    +0.046 A 
ATOM     17  C   UNL     1      -1.408  -9.198  10.909  0.00  0.00    +0.131 A 
ATOM     18  C   UNL     1      -2.523  -9.168  10.105  0.00  0.00    +0.047 A 
BRANCH  17  20
ATOM     20  C   UNL     1      -0.016  -8.771  10.713  0.00  0.00    +0.230 C 
BRANCH  20   4
ATOM      4  O   UNL     1       0.496  -8.187  11.915  0.00  0.00    -0.387 OA
ATOM     28  H   UNL     1       1.306  -8.674  12.144  0.00  0.00    +0.210 HD
ENDBRANCH  20   4
ENDBRANCH  17  20
ENDBRANCH  12  14
ENDBRANCH   5  12
TORSDOF 7
ENDMDL
MODEL 5
REMARK VINA RESULT:      -3.1     13.252     15.209
REMARK  Name = 26743844
REMARK  8 active torsions:
REMARK  status: ('A' for Active; 'I' for Inactive)
REMARK    1  A    between atoms: O_1  and  C_10
REMARK    2  A    between atoms: O_4  and  C_20
REMARK    3  A    between atoms: N_5  and  C_12
REMARK    4  A    between atoms: C_8  and  C_13
REMARK    5  A    between atoms: C_12  and  C_14
REMARK    6  A    between atoms: C_16  and  C_19
REMARK    7  A    between atoms: C_17  and  C_20
REMARK    8  A    between atoms: C_23  and  C_26
REMARK                            x       y       z     vdW  Elec       q    Type
REMARK                         _______ _______ _______ _____ _____    ______ ____
ROOT
ATOM      5  N   UNL     1       0.807  -0.609  23.622  0.00  0.00    -0.282 NA
ATOM      8  C   UNL     1       0.709   0.790  24.084  0.00  0.00    +0.149 C 
ATOM      9  C   UNL     1       1.762   1.551  23.258  0.00  0.00    +0.061 C 
ATOM     10  C   UNL     1       2.431   0.489  22.395  0.00  0.00    +0.130 C 
ATOM     11  C   UNL     1       2.180  -0.798  23.159  0.00  0.00    +0.117 C 
ENDROOT
BRANCH   8  13
ATOM      2  O   UNL     1      -1.186   1.387  22.661  0.00  0.00    -0.336 OA
ATOM      6  N   UNL     1      -1.495   1.842  24.831  0.00  0.00    -0.190 NA
ATOM      7  N   UNL     1      -2.465   1.948  22.762  0.00  0.00    -0.056 NA
ATOM     13  C   UNL     1      -0.685   1.361  23.924  0.00  0.00    +0.245 A 
ATOM     16  C   UNL     1      -2.573   2.190  24.072  0.00  0.00    +0.202 A 
BRANCH  16  19
ATOM     19  C   UNL     1      -3.747   2.775  24.654  0.00  0.00    +0.023 A 
ATOM     21  C   UNL     1      -4.645   1.981  25.366  0.00  0.00    +0.015 A 
ATOM     22  C   UNL     1      -3.987   4.142  24.511  0.00  0.00    +0.012 A 
ATOM     23  C   UNL     1      -5.784   2.551  25.934  0.00  0.00    -0.050 A 
ATOM     24  C   UNL     1      -5.127   4.713  25.079  0.00  0.00    +0.001 A 
ATOM     25  C   UNL     1      -6.025   3.917  25.789  0.00  0.00    +0.003 A 
ATOM     26  C   UNL     1      -6.744   1.701  26.694  0.00  0.00    +0.044 C 
ENDBRANCH  16  19
ENDBRANCH   8  13
BRANCH  10   1
ATOM      1  O   UNL     1       3.813   0.755  22.252  0.00  0.00    -0.390 OA
ATOM     27  H   UNL     1       4.023   0.705  21.304  0.00  0.00    +0.210 HD
ENDBRANCH  10   1
BRANCH   5  12
ATOM     12  C   UNL     1       0.436  -1.578  24.645  0.00  0.00    +0.159 C 
BRANCH  12  14
ATOM      3  O   UNL     1      -1.945  -1.613  24.140  0.00  0.00    -0.461 OA
ATOM     14  C   UNL     1      -0.993  -1.407  25.087  0.00  0.00    +0.119 A 
ATOM     15  C   UNL     1      -1.572  -1.075  26.290  0.00  0.00    +0.046 A 
ATOM     17  C   UNL     1      -3.145  -1.410  24.744  0.00  0.00    +0.131 A 
ATOM     18  C   UNL     1      -2.970  -1.075  26.067  0.00  0.00    +0.047 A 
BRANCH  17  20
ATOM     20  C   UNL     1      -4.336  -1.580  23.899  0.00  0.00    +0.230 C 
BRANCH  20   4
ATOM      4  O   UNL     1      -4.492  -2.955  23.538  0.00  0.00    -0.387 OA
ATOM     28  H   UNL     1      -5.180  -3.324  24.119  0.00  0.00    +0.210 HD
ENDBRANCH  20   4
ENDBRANCH  17  20
ENDBRANCH  12  14
ENDBRANCH   5  12
TORSDOF 7
ENDMDL
MODEL 6
REMARK VINA RESULT:      -2.8     15.243     17.741
REMARK  Name = 26743844
REMARK  8 active torsions:
REMARK  status: ('A' for Active; 'I' for Inactive)
REMARK    1  A    between atoms: O_1  and  C_10
REMARK    2  A    between atoms: O_4  and  C_20
REMARK    3  A    between atoms: N_5  and  C_12
REMARK    4  A    between atoms: C_8  and  C_13
REMARK    5  A    between atoms: C_12  and  C_14
REMARK    6  A    between atoms: C_16  and  C_19
REMARK    7  A    between atoms: C_17  and  C_20
REMARK    8  A    between atoms: C_23  and  C_26
REMARK                            x       y       z     vdW  Elec       q    Type
REMARK                         _______ _______ _______ _____ _____    ______ ____
ROOT
ATOM      5  N   UNL     1      -4.031   1.807  24.713  0.00  0.00    -0.282 NA
ATOM      8  C   UNL     1      -3.174   3.010  24.700  0.00  0.00    +0.149 C 
ATOM      9  C   UNL     1      -3.982   4.077  25.462  0.00  0.00    +0.061 C 
ATOM     10  C   UNL     1      -5.295   3.394  25.823  0.00  0.00    +0.130 C 
ATOM     11  C   UNL     1      -5.410   2.282  24.797  0.00  0.00    +0.117 C 
ENDROOT
BRANCH   8  13
ATOM      2  O   UNL     1      -0.874   2.209  24.496  0.00  0.00    -0.336 OA
ATOM      6  N   UNL     1      -1.389   2.999  26.527  0.00  0.00    -0.190 NA
ATOM      7  N   UNL     1       0.285   2.074  25.271  0.00  0.00    -0.056 NA
ATOM     13  C   UNL     1      -1.811   2.761  25.311  0.00  0.00    +0.245 A 
ATOM     16  C   UNL     1      -0.099   2.562  26.454  0.00  0.00    +0.202 A 
BRANCH  16  19
ATOM     19  C   UNL     1       0.782   2.628  27.584  0.00  0.00    +0.023 A 
ATOM     21  C   UNL     1       0.282   2.446  28.873  0.00  0.00    +0.015 A 
ATOM     22  C   UNL     1       2.143   2.871  27.393  0.00  0.00    +0.012 A 
ATOM     23  C   UNL     1       1.140   2.508  29.971  0.00  0.00    -0.050 A 
ATOM     24  C   UNL     1       3.001   2.933  28.491  0.00  0.00    +0.001 A 
ATOM     25  C   UNL     1       2.499   2.752  29.780  0.00  0.00    +0.003 A 
ATOM     26  C   UNL     1       0.604   2.315  31.349  0.00  0.00    +0.044 C 
ENDBRANCH  16  19
ENDBRANCH   8  13
BRANCH  10   1
ATOM      1  O   UNL     1      -6.374   4.304  25.735  0.00  0.00    -0.390 OA
ATOM     27  H   UNL     1      -6.564   4.620  26.635  0.00  0.00    +0.210 HD
ENDBRANCH  10   1
BRANCH   5  12
ATOM     12  C   UNL     1      -3.819   0.940  23.561  0.00  0.00    +0.159 C 
BRANCH  12  14
ATOM      3  O   UNL     1      -2.185  -0.657  24.400  0.00  0.00    -0.461 OA
ATOM     14  C   UNL     1      -3.460  -0.463  23.975  0.00  0.00    +0.119 A 
ATOM     15  C   UNL     1      -4.169  -1.641  24.019  0.00  0.00    +0.046 A 
ATOM     17  C   UNL     1      -2.077  -1.973  24.719  0.00  0.00    +0.131 A 
ATOM     18  C   UNL     1      -3.270  -2.623  24.502  0.00  0.00    +0.047 A 
BRANCH  17  20
ATOM     20  C   UNL     1      -0.765  -2.418  25.211  0.00  0.00    +0.230 C 
BRANCH  20   4
ATOM      4  O   UNL     1       0.104  -1.296  25.385  0.00  0.00    -0.387 OA
ATOM     28  H   UNL     1       0.869  -1.437  24.802  0.00  0.00    +0.210 HD
ENDBRANCH  20   4
ENDBRANCH  17  20
ENDBRANCH  12  14
ENDBRANCH   5  12
TORSDOF 7
ENDMDL
MODEL 7
REMARK VINA RESULT:      -2.1     13.393     16.367
REMARK  Name = 26743844
REMARK  8 active torsions:
REMARK  status: ('A' for Active; 'I' for Inactive)
REMARK    1  A    between atoms: O_1  and  C_10
REMARK    2  A    between atoms: O_4  and  C_20
REMARK    3  A    between atoms: N_5  and  C_12
REMARK    4  A    between atoms: C_8  and  C_13
REMARK    5  A    between atoms: C_12  and  C_14
REMARK    6  A    between atoms: C_16  and  C_19
REMARK    7  A    between atoms: C_17  and  C_20
REMARK    8  A    between atoms: C_23  and  C_26
REMARK                            x       y       z     vdW  Elec       q    Type
REMARK                         _______ _______ _______ _____ _____    ______ ____
ROOT
ATOM      5  N   UNL     1      -3.446  -0.381  24.527  0.00  0.00    -0.282 NA
ATOM      8  C   UNL     1      -2.199  -1.124  24.800  0.00  0.00    +0.149 C 
ATOM      9  C   UNL     1      -2.435  -2.522  24.201  0.00  0.00    +0.061 C 
ATOM     10  C   UNL     1      -3.857  -2.484  23.657  0.00  0.00    +0.130 C 
ATOM     11  C   UNL     1      -4.514  -1.376  24.458  0.00  0.00    +0.117 C 
ENDROOT
BRANCH   8  13
ATOM      2  O   UNL     1      -1.189   0.731  23.569  0.00  0.00    -0.336 OA
ATOM      6  N   UNL     1       0.279  -0.811  24.263  0.00  0.00    -0.190 NA
ATOM      7  N   UNL     1       0.068   1.167  23.134  0.00  0.00    -0.056 NA
ATOM     13  C   UNL     1      -0.976  -0.440  24.225  0.00  0.00    +0.245 A 
ATOM     16  C   UNL     1       0.880   0.206  23.581  0.00  0.00    +0.202 A 
BRANCH  16  19
ATOM     19  C   UNL     1       2.298   0.232  23.365  0.00  0.00    +0.023 A 
ATOM     21  C   UNL     1       3.084  -0.853  23.753  0.00  0.00    +0.015 A 
ATOM     22  C   UNL     1       2.891   1.343  22.764  0.00  0.00    +0.012 A 
ATOM     23  C   UNL     1       4.463  -0.829  23.541  0.00  0.00    -0.050 A 
ATOM     24  C   UNL     1       4.271   1.368  22.552  0.00  0.00    +0.001 A 
ATOM     25  C   UNL     1       5.056   0.282  22.941  0.00  0.00    +0.003 A 
ATOM     26  C   UNL     1       5.302  -1.989  23.956  0.00  0.00    +0.044 C 
ENDBRANCH  16  19
ENDBRANCH   8  13
BRANCH  10   1
ATOM      1  O   UNL     1      -4.503  -3.727  23.851  0.00  0.00    -0.390 OA
ATOM     27  H   UNL     1      -5.430  -3.541  24.078  0.00  0.00    +0.210 HD
ENDBRANCH  10   1
BRANCH   5  12
ATOM     12  C   UNL     1      -3.724   0.655  25.514  0.00  0.00    +0.159 C 
BRANCH  12  14
ATOM      3  O   UNL     1      -2.639   2.834  25.527  0.00  0.00    -0.461 OA
ATOM     14  C   UNL     1      -3.566   2.036  24.936  0.00  0.00    +0.119 A 
ATOM     15  C   UNL     1      -4.179   2.696  23.896  0.00  0.00    +0.046 A 
ATOM     17  C   UNL     1      -2.661   4.016  24.859  0.00  0.00    +0.131 A 
ATOM     18  C   UNL     1      -3.592   3.984  23.847  0.00  0.00    +0.047 A 
BRANCH  17  20
ATOM     20  C   UNL     1      -1.725   5.047  25.332  0.00  0.00    +0.230 C 
BRANCH  20   4
ATOM      4  O   UNL     1      -0.497   4.970  24.604  0.00  0.00    -0.387 OA
ATOM     28  H   UNL     1      -0.224   4.036  24.605  0.00  0.00    +0.210 HD
ENDBRANCH  20   4
ENDBRANCH  17  20
ENDBRANCH  12  14
ENDBRANCH   5  12
TORSDOF 7
ENDMDL
