MODEL 1
REMARK VINA RESULT:       3.0      0.000      0.000
REMARK  Name = 51136975
REMARK  9 active torsions:
REMARK  status: ('A' for Active; 'I' for Inactive)
REMARK    1  A    between atoms: O_2  and  C_12
REMARK    2  A    between atoms: O_3  and  C_19
REMARK    3  A    between atoms: N_5  and  C_10
REMARK    4  A    between atoms: N_6  and  C_20
REMARK    5  A    between atoms: N_7  and  C_16
REMARK    6  A    between atoms: N_8  and  C_30
REMARK    7  A    between atoms: C_11  and  C_16
REMARK    8  A    between atoms: C_13  and  C_19
REMARK    9  A    between atoms: C_21  and  C_24
REMARK                            x       y       z     vdW  Elec       q    Type
REMARK                         _______ _______ _______ _____ _____    ______ ____
ROOT
ATOM      1  O   UNL     1      -5.618   3.208  24.684  0.00  0.00    -0.365 OA
ATOM     10  C   UNL     1      -3.400   2.821  23.910  0.00  0.00    +0.118 C 
ATOM     11  C   UNL     1      -4.717   2.143  24.308  0.00  0.00    +0.155 C 
ATOM     12  C   UNL     1      -3.434   4.123  24.694  0.00  0.00    +0.165 C 
ATOM     13  C   UNL     1      -4.918   4.465  24.607  0.00  0.00    +0.174 C 
ENDROOT
BRANCH  10   5
ATOM      5  N   UNL     1      -2.194   2.028  24.076  0.00  0.00    -0.292 NA
ATOM      6  N   UNL     1       0.507   1.252  23.565  0.00  0.00    -0.327 N 
ATOM     14  C   UNL     1      -1.081   2.873  24.525  0.00  0.00    +0.104 C 
ATOM     15  C   UNL     1      -1.839   1.361  22.817  0.00  0.00    +0.104 C 
ATOM     17  C   UNL     1       0.182   2.040  24.758  0.00  0.00    +0.120 C 
ATOM     18  C   UNL     1      -0.603   0.477  22.994  0.00  0.00    +0.120 C 
BRANCH   6  20
ATOM     20  C   UNL     1       1.807   0.769  23.385  0.00  0.00    +0.030 A 
ATOM     22  C   UNL     1       2.836   1.644  23.035  0.00  0.00    +0.023 A 
ATOM     23  C   UNL     1       2.075  -0.589  23.554  0.00  0.00    +0.023 A 
ATOM     25  C   UNL     1       4.131   1.162  22.856  0.00  0.00    +0.002 A 
ATOM     26  C   UNL     1       3.372  -1.072  23.376  0.00  0.00    +0.002 A 
ATOM     27  C   UNL     1       4.400  -0.196  23.025  0.00  0.00    +0.000 A 
ENDBRANCH   6  20
ENDBRANCH  10   5
BRANCH  12   2
ATOM      2  O   UNL     1      -3.051   3.925  26.049  0.00  0.00    -0.388 OA
ATOM     31  H   UNL     1      -2.441   4.643  26.290  0.00  0.00    +0.210 HD
ENDBRANCH  12   2
BRANCH  11  16
ATOM     16  C   UNL     1      -4.658   1.167  25.479  0.00  0.00    +0.137 C 
BRANCH  16   7
ATOM      4  O   UNL     1      -4.776  -1.386  24.173  0.00  0.00    -0.270 OA
ATOM      7  N   UNL     1      -3.581   0.237  25.321  0.00  0.00    -0.309 N 
ATOM     21  C   UNL     1      -3.727  -0.986  24.670  0.00  0.00    +0.247 C 
ATOM     32  H   UNL     1      -2.683   0.481  25.727  0.00  0.00    +0.149 HD
BRANCH  21  24
ATOM      8  N   UNL     1      -0.550  -2.714  24.989  0.00  0.00    -0.274 N 
ATOM      9  N   UNL     1      -1.056  -3.502  24.026  0.00  0.00    -0.179 NA
ATOM     24  C   UNL     1      -2.521  -1.850  24.612  0.00  0.00    +0.074 A 
ATOM     28  C   UNL     1      -1.388  -1.708  25.375  0.00  0.00    +0.121 A 
ATOM     29  C   UNL     1      -2.260  -2.970  23.800  0.00  0.00    +0.147 A 
ATOM     30  C   UNL     1       0.769  -2.976  25.513  0.00  0.00    +0.172 C 
ENDBRANCH  21  24
ENDBRANCH  16   7
ENDBRANCH  11  16
BRANCH  13  19
ATOM     19  C   UNL     1      -5.438   5.395  25.688  0.00  0.00    +0.190 C 
BRANCH  19   3
ATOM      3  O   UNL     1      -6.753   4.997  26.041  0.00  0.00    -0.392 OA
ATOM     33  H   UNL     1      -7.340   5.275  25.316  0.00  0.00    +0.210 HD
ENDBRANCH  19   3
ENDBRANCH  13  19
TORSDOF 8
ENDMDL
MODEL 2
REMARK VINA RESULT:       3.5      1.934      4.645
REMARK  Name = 51136975
REMARK  9 active torsions:
REMARK  status: ('A' for Active; 'I' for Inactive)
REMARK    1  A    between atoms: O_2  and  C_12
REMARK    2  A    between atoms: O_3  and  C_19
REMARK    3  A    between atoms: N_5  and  C_10
REMARK    4  A    between atoms: N_6  and  C_20
REMARK    5  A    between atoms: N_7  and  C_16
REMARK    6  A    between atoms: N_8  and  C_30
REMARK    7  A    between atoms: C_11  and  C_16
REMARK    8  A    between atoms: C_13  and  C_19
REMARK    9  A    between atoms: C_21  and  C_24
REMARK                            x       y       z     vdW  Elec       q    Type
REMARK                         _______ _______ _______ _____ _____    ______ ____
ROOT
ATOM      1  O   UNL     1      -4.153  -0.311  25.896  0.00  0.00    -0.365 OA
ATOM     10  C   UNL     1      -2.712  -1.218  24.232  0.00  0.00    +0.118 C 
ATOM     11  C   UNL     1      -2.889  -0.994  25.739  0.00  0.00    +0.155 C 
ATOM     12  C   UNL     1      -3.539  -0.099  23.619  0.00  0.00    +0.165 C 
ATOM     13  C   UNL     1      -4.710  -0.049  24.594  0.00  0.00    +0.174 C 
ENDROOT
BRANCH  10   5
ATOM      5  N   UNL     1      -1.344  -1.312  23.753  0.00  0.00    -0.292 NA
ATOM      6  N   UNL     1       1.425  -0.626  23.621  0.00  0.00    -0.327 N 
ATOM     14  C   UNL     1      -0.437  -1.667  24.851  0.00  0.00    +0.104 C 
ATOM     15  C   UNL     1      -0.922  -0.043  23.148  0.00  0.00    +0.104 C 
ATOM     17  C   UNL     1       1.000  -1.825  24.348  0.00  0.00    +0.120 C 
ATOM     18  C   UNL     1       0.498  -0.147  22.587  0.00  0.00    +0.120 C 
BRANCH   6  20
ATOM     20  C   UNL     1       2.789  -0.362  23.452  0.00  0.00    +0.030 A 
ATOM     22  C   UNL     1       3.202   0.827  22.850  0.00  0.00    +0.023 A 
ATOM     23  C   UNL     1       3.736  -1.289  23.887  0.00  0.00    +0.023 A 
ATOM     25  C   UNL     1       4.561   1.088  22.683  0.00  0.00    +0.002 A 
ATOM     26  C   UNL     1       5.096  -1.027  23.720  0.00  0.00    +0.002 A 
ATOM     27  C   UNL     1       5.508   0.162  23.117  0.00  0.00    +0.000 A 
ENDBRANCH   6  20
ENDBRANCH  10   5
BRANCH  12   2
ATOM      2  O   UNL     1      -2.833   1.136  23.630  0.00  0.00    -0.388 OA
ATOM     31  H   UNL     1      -3.070   1.617  22.819  0.00  0.00    +0.210 HD
ENDBRANCH  12   2
BRANCH  11  16
ATOM     16  C   UNL     1      -1.828  -0.146  26.434  0.00  0.00    +0.137 C 
BRANCH  16   7
ATOM      4  O   UNL     1       0.276   1.780  26.756  0.00  0.00    -0.270 OA
ATOM      7  N   UNL     1      -1.792   1.179  25.893  0.00  0.00    -0.309 N 
ATOM     21  C   UNL     1      -0.726   2.051  26.099  0.00  0.00    +0.247 C 
ATOM     32  H   UNL     1      -2.595   1.493  25.357  0.00  0.00    +0.149 HD
BRANCH  21  24
ATOM      8  N   UNL     1      -1.571   5.394  24.962  0.00  0.00    -0.274 N 
ATOM      9  N   UNL     1      -0.437   5.274  24.251  0.00  0.00    -0.179 NA
ATOM     24  C   UNL     1      -0.851   3.401  25.493  0.00  0.00    +0.074 A 
ATOM     28  C   UNL     1      -1.864   4.299  25.722  0.00  0.00    +0.121 A 
ATOM     29  C   UNL     1      -0.002   4.055  24.579  0.00  0.00    +0.147 A 
ATOM     30  C   UNL     1      -2.350   6.606  24.873  0.00  0.00    +0.172 C 
ENDBRANCH  21  24
ENDBRANCH  16   7
ENDBRANCH  11  16
BRANCH  13  19
ATOM     19  C   UNL     1      -5.474   1.263  24.631  0.00  0.00    +0.190 C 
BRANCH  19   3
ATOM      3  O   UNL     1      -4.732   2.204  25.389  0.00  0.00    -0.392 OA
ATOM     33  H   UNL     1      -5.372   2.816  25.791  0.00  0.00    +0.210 HD
ENDBRANCH  19   3
ENDBRANCH  13  19
TORSDOF 8
ENDMDL
MODEL 3
REMARK VINA RESULT:       3.7      1.819      2.288
REMARK  Name = 51136975
REMARK  9 active torsions:
REMARK  status: ('A' for Active; 'I' for Inactive)
REMARK    1  A    between atoms: O_2  and  C_12
REMARK    2  A    between atoms: O_3  and  C_19
REMARK    3  A    between atoms: N_5  and  C_10
REMARK    4  A    between atoms: N_6  and  C_20
REMARK    5  A    between atoms: N_7  and  C_16
REMARK    6  A    between atoms: N_8  and  C_30
REMARK    7  A    between atoms: C_11  and  C_16
REMARK    8  A    between atoms: C_13  and  C_19
REMARK    9  A    between atoms: C_21  and  C_24
REMARK                            x       y       z     vdW  Elec       q    Type
REMARK                         _______ _______ _______ _____ _____    ______ ____
ROOT
ATOM      1  O   UNL     1      -5.160   4.120  24.749  0.00  0.00    -0.365 OA
ATOM     10  C   UNL     1      -2.914   4.089  25.538  0.00  0.00    +0.118 C 
ATOM     11  C   UNL     1      -3.796   4.283  24.298  0.00  0.00    +0.155 C 
ATOM     12  C   UNL     1      -3.769   3.206  26.433  0.00  0.00    +0.165 C 
ATOM     13  C   UNL     1      -5.155   3.775  26.147  0.00  0.00    +0.174 C 
ENDROOT
BRANCH  10   5
ATOM      5  N   UNL     1      -1.565   3.606  25.297  0.00  0.00    -0.292 NA
ATOM      6  N   UNL     1       0.448   2.004  24.056  0.00  0.00    -0.327 N 
ATOM     14  C   UNL     1      -1.169   3.856  23.906  0.00  0.00    +0.104 C 
ATOM     15  C   UNL     1      -1.472   2.170  25.592  0.00  0.00    +0.104 C 
ATOM     17  C   UNL     1       0.271   3.403  23.654  0.00  0.00    +0.120 C 
ATOM     18  C   UNL     1      -0.042   1.661  25.397  0.00  0.00    +0.120 C 
BRANCH   6  20
ATOM     20  C   UNL     1       1.514   1.262  23.537  0.00  0.00    +0.030 A 
ATOM     22  C   UNL     1       2.756   1.868  23.336  0.00  0.00    +0.023 A 
ATOM     23  C   UNL     1       1.337  -0.084  23.219  0.00  0.00    +0.023 A 
ATOM     25  C   UNL     1       3.818   1.128  22.819  0.00  0.00    +0.002 A 
ATOM     26  C   UNL     1       2.400  -0.825  22.701  0.00  0.00    +0.002 A 
ATOM     27  C   UNL     1       3.640  -0.218  22.501  0.00  0.00    +0.000 A 
ENDBRANCH   6  20
ENDBRANCH  10   5
BRANCH  12   2
ATOM      2  O   UNL     1      -3.702   1.842  26.036  0.00  0.00    -0.388 OA
ATOM     31  H   UNL     1      -4.608   1.547  25.843  0.00  0.00    +0.210 HD
ENDBRANCH  12   2
BRANCH  11  16
ATOM     16  C   UNL     1      -3.581   3.307  23.146  0.00  0.00    +0.137 C 
BRANCH  16   7
ATOM      4  O   UNL     1      -2.064   1.018  22.309  0.00  0.00    -0.270 OA
ATOM      7  N   UNL     1      -3.768   1.954  23.574  0.00  0.00    -0.309 N 
ATOM     21  C   UNL     1      -2.983   0.899  23.115  0.00  0.00    +0.247 C 
ATOM     32  H   UNL     1      -4.526   1.764  24.224  0.00  0.00    +0.149 HD
BRANCH  21  24
ATOM      8  N   UNL     1      -3.294  -2.320  24.765  0.00  0.00    -0.274 N 
ATOM      9  N   UNL     1      -4.365  -2.455  23.964  0.00  0.00    -0.179 NA
ATOM     24  C   UNL     1      -3.320  -0.450  23.636  0.00  0.00    +0.074 A 
ATOM     28  C   UNL     1      -2.634  -1.136  24.607  0.00  0.00    +0.121 A 
ATOM     29  C   UNL     1      -4.376  -1.310  23.277  0.00  0.00    +0.147 A 
ATOM     30  C   UNL     1      -2.944  -3.379  25.681  0.00  0.00    +0.172 C 
ENDBRANCH  21  24
ENDBRANCH  16   7
ENDBRANCH  11  16
BRANCH  13  19
ATOM     19  C   UNL     1      -6.316   2.841  26.437  0.00  0.00    +0.190 C 
BRANCH  19   3
ATOM      3  O   UNL     1      -6.528   2.010  25.308  0.00  0.00    -0.392 OA
ATOM     33  H   UNL     1      -6.866   1.159  25.638  0.00  0.00    +0.210 HD
ENDBRANCH  19   3
ENDBRANCH  13  19
TORSDOF 8
ENDMDL
MODEL 4
REMARK VINA RESULT:       5.3      3.033      7.635
REMARK  Name = 51136975
REMARK  9 active torsions:
REMARK  status: ('A' for Active; 'I' for Inactive)
REMARK    1  A    between atoms: O_2  and  C_12
REMARK    2  A    between atoms: O_3  and  C_19
REMARK    3  A    between atoms: N_5  and  C_10
REMARK    4  A    between atoms: N_6  and  C_20
REMARK    5  A    between atoms: N_7  and  C_16
REMARK    6  A    between atoms: N_8  and  C_30
REMARK    7  A    between atoms: C_11  and  C_16
REMARK    8  A    between atoms: C_13  and  C_19
REMARK    9  A    between atoms: C_21  and  C_24
REMARK                            x       y       z     vdW  Elec       q    Type
REMARK                         _______ _______ _______ _____ _____    ______ ____
ROOT
ATOM      1  O   UNL     1       3.570   0.925  23.406  0.00  0.00    -0.365 OA
ATOM     10  C   UNL     1       1.468   0.257  22.509  0.00  0.00    +0.118 C 
ATOM     11  C   UNL     1       2.195   1.356  23.294  0.00  0.00    +0.155 C 
ATOM     12  C   UNL     1       2.303  -0.981  22.798  0.00  0.00    +0.165 C 
ATOM     13  C   UNL     1       3.704  -0.378  22.808  0.00  0.00    +0.174 C 
ENDROOT
BRANCH  10   5
ATOM      5  N   UNL     1       0.045   0.119  22.765  0.00  0.00    -0.292 NA
ATOM      6  N   UNL     1      -2.451   0.727  24.013  0.00  0.00    -0.327 N 
ATOM     14  C   UNL     1      -0.659   1.367  22.449  0.00  0.00    +0.104 C 
ATOM     15  C   UNL     1      -0.192  -0.248  24.167  0.00  0.00    +0.104 C 
ATOM     17  C   UNL     1      -2.168   1.217  22.661  0.00  0.00    +0.120 C 
ATOM     18  C   UNL     1      -1.685  -0.453  24.435  0.00  0.00    +0.120 C 
BRANCH   6  20
ATOM     20  C   UNL     1      -3.720   0.920  24.569  0.00  0.00    +0.030 A 
ATOM     22  C   UNL     1      -4.177   0.072  25.579  0.00  0.00    +0.023 A 
ATOM     23  C   UNL     1      -4.529   1.961  24.115  0.00  0.00    +0.023 A 
ATOM     25  C   UNL     1      -5.441   0.265  26.134  0.00  0.00    +0.002 A 
ATOM     26  C   UNL     1      -5.794   2.155  24.670  0.00  0.00    +0.002 A 
ATOM     27  C   UNL     1      -6.250   1.306  25.679  0.00  0.00    +0.000 A 
ENDBRANCH   6  20
ENDBRANCH  10   5
BRANCH  12   2
ATOM      2  O   UNL     1       1.992  -1.532  24.071  0.00  0.00    -0.388 OA
ATOM     31  H   UNL     1       1.201  -1.077  24.404  0.00  0.00    +0.210 HD
ENDBRANCH  12   2
BRANCH  11  16
ATOM     16  C   UNL     1       1.692   1.633  24.708  0.00  0.00    +0.137 C 
BRANCH  16   7
ATOM      4  O   UNL     1       0.091   2.423  26.956  0.00  0.00    -0.270 OA
ATOM      7  N   UNL     1       0.588   2.544  24.693  0.00  0.00    -0.309 N 
ATOM     21  C   UNL     1      -0.137   2.873  25.836  0.00  0.00    +0.247 C 
ATOM     32  H   UNL     1       0.317   2.943  23.799  0.00  0.00    +0.149 HD
BRANCH  21  24
ATOM      8  N   UNL     1      -3.249   4.738  25.710  0.00  0.00    -0.274 N 
ATOM      9  N   UNL     1      -2.510   5.628  25.025  0.00  0.00    -0.179 NA
ATOM     24  C   UNL     1      -1.271   3.813  25.650  0.00  0.00    +0.074 A 
ATOM     28  C   UNL     1      -2.553   3.634  26.106  0.00  0.00    +0.121 A 
ATOM     29  C   UNL     1      -1.303   5.057  24.991  0.00  0.00    +0.147 A 
ATOM     30  C   UNL     1      -4.645   5.006  25.960  0.00  0.00    +0.172 C 
ENDBRANCH  21  24
ENDBRANCH  16   7
ENDBRANCH  11  16
BRANCH  13  19
ATOM     19  C   UNL     1       4.751  -1.173  23.568  0.00  0.00    +0.190 C 
BRANCH  19   3
ATOM      3  O   UNL     1       5.331  -0.338  24.557  0.00  0.00    -0.392 OA
ATOM     33  H   UNL     1       5.458  -0.883  25.353  0.00  0.00    +0.210 HD
ENDBRANCH  19   3
ENDBRANCH  13  19
TORSDOF 8
ENDMDL
MODEL 5
REMARK VINA RESULT:       5.9      2.265      5.298
REMARK  Name = 51136975
REMARK  9 active torsions:
REMARK  status: ('A' for Active; 'I' for Inactive)
REMARK    1  A    between atoms: O_2  and  C_12
REMARK    2  A    between atoms: O_3  and  C_19
REMARK    3  A    between atoms: N_5  and  C_10
REMARK    4  A    between atoms: N_6  and  C_20
REMARK    5  A    between atoms: N_7  and  C_16
REMARK    6  A    between atoms: N_8  and  C_30
REMARK    7  A    between atoms: C_11  and  C_16
REMARK    8  A    between atoms: C_13  and  C_19
REMARK    9  A    between atoms: C_21  and  C_24
REMARK                            x       y       z     vdW  Elec       q    Type
REMARK                         _______ _______ _______ _____ _____    ______ ____
ROOT
ATOM      1  O   UNL     1      -0.256   5.075  24.677  0.00  0.00    -0.365 OA
ATOM     10  C   UNL     1      -1.536   3.467  25.880  0.00  0.00    +0.118 C 
ATOM     11  C   UNL     1      -0.260   3.680  25.056  0.00  0.00    +0.155 C 
ATOM     12  C   UNL     1      -2.462   4.559  25.366  0.00  0.00    +0.165 C 
ATOM     13  C   UNL     1      -1.467   5.694  25.153  0.00  0.00    +0.174 C 
ENDROOT
BRANCH  10   5
ATOM      5  N   UNL     1      -2.093   2.126  25.867  0.00  0.00    -0.292 NA
ATOM      6  N   UNL     1      -2.669  -0.448  24.772  0.00  0.00    -0.327 N 
ATOM     14  C   UNL     1      -1.028   1.128  25.715  0.00  0.00    +0.104 C 
ATOM     15  C   UNL     1      -3.070   1.984  24.781  0.00  0.00    +0.104 C 
ATOM     17  C   UNL     1      -1.595  -0.294  25.757  0.00  0.00    +0.120 C 
ATOM     18  C   UNL     1      -3.706   0.592  24.793  0.00  0.00    +0.120 C 
BRANCH   6  20
ATOM     20  C   UNL     1      -3.030  -1.727  24.333  0.00  0.00    +0.030 A 
ATOM     22  C   UNL     1      -2.067  -2.733  24.244  0.00  0.00    +0.023 A 
ATOM     23  C   UNL     1      -4.353  -1.996  23.983  0.00  0.00    +0.023 A 
ATOM     25  C   UNL     1      -2.427  -4.006  23.807  0.00  0.00    +0.002 A 
ATOM     26  C   UNL     1      -4.713  -3.271  23.546  0.00  0.00    +0.002 A 
ATOM     27  C   UNL     1      -3.750  -4.276  23.457  0.00  0.00    +0.000 A 
ENDBRANCH   6  20
ENDBRANCH  10   5
BRANCH  12   2
ATOM      2  O   UNL     1      -3.066   4.191  24.132  0.00  0.00    -0.388 OA
ATOM     31  H   UNL     1      -3.861   4.739  24.019  0.00  0.00    +0.210 HD
ENDBRANCH  12   2
BRANCH  11  16
ATOM     16  C   UNL     1      -0.129   2.863  23.774  0.00  0.00    +0.137 C 
BRANCH  16   7
ATOM      4  O   UNL     1       0.287   0.224  22.726  0.00  0.00    -0.270 OA
ATOM      7  N   UNL     1       1.105   2.138  23.749  0.00  0.00    -0.309 N 
ATOM     21  C   UNL     1       1.218   0.856  23.218  0.00  0.00    +0.247 C 
ATOM     32  H   UNL     1       1.921   2.581  24.161  0.00  0.00    +0.149 HD
BRANCH  21  24
ATOM      8  N   UNL     1       4.724  -0.087  23.271  0.00  0.00    -0.274 N 
ATOM      9  N   UNL     1       4.234  -1.311  23.529  0.00  0.00    -0.179 NA
ATOM     24  C   UNL     1       2.562   0.229  23.290  0.00  0.00    +0.074 A 
ATOM     28  C   UNL     1       3.764   0.871  23.119  0.00  0.00    +0.121 A 
ATOM     29  C   UNL     1       2.913  -1.112  23.540  0.00  0.00    +0.147 A 
ATOM     30  C   UNL     1       6.151   0.110  23.180  0.00  0.00    +0.172 C 
ENDBRANCH  21  24
ENDBRANCH  16   7
ENDBRANCH  11  16
BRANCH  13  19
ATOM     19  C   UNL     1      -1.900   6.766  24.169  0.00  0.00    +0.190 C 
BRANCH  19   3
ATOM      3  O   UNL     1      -3.173   6.422  23.648  0.00  0.00    -0.392 OA
ATOM     33  H   UNL     1      -3.323   6.982  22.867  0.00  0.00    +0.210 HD
ENDBRANCH  19   3
ENDBRANCH  13  19
TORSDOF 8
ENDMDL
