MODEL 1
REMARK VINA RESULT:      -5.6      0.000      0.000
REMARK  Name = 56774420
REMARK  4 active torsions:
REMARK  status: ('A' for Active; 'I' for Inactive)
REMARK    1  A    between atoms: N_1  and  C_7
REMARK    2  A    between atoms: N_2  and  C_15
REMARK    3  A    between atoms: C_4  and  C_7
REMARK    4  A    between atoms: C_8  and  C_12
REMARK                            x       y       z     vdW  Elec       q    Type
REMARK                         _______ _______ _______ _____ _____    ______ ____
ROOT
ATOM      2  N   UNL     1      -2.295   0.125  24.513  0.00  0.00    -0.330 N 
ATOM      3  N   UNL     1      -1.304   2.042  23.986  0.00  0.00    -0.232 NA
ATOM     12  C   UNL     1      -1.141   0.746  24.123  0.00  0.00    +0.115 A 
ATOM     13  C   UNL     1      -3.266   1.085  24.637  0.00  0.00    +0.069 A 
ATOM     14  C   UNL     1      -2.623   2.273  24.303  0.00  0.00    +0.089 A 
ATOM     15  C   UNL     1      -2.465  -1.291  24.753  0.00  0.00    +0.150 C 
ATOM     16  C   UNL     1      -4.612   1.017  25.001  0.00  0.00    +0.028 A 
ATOM     17  C   UNL     1      -3.349   3.475  24.328  0.00  0.00    +0.030 A 
ATOM     18  C   UNL     1      -5.320   2.223  25.021  0.00  0.00    +0.002 A 
ATOM     19  C   UNL     1      -4.702   3.431  24.691  0.00  0.00    +0.002 A 
ENDROOT
BRANCH  12   8
ATOM      1  N   UNL     1       2.318   0.207  23.039  0.00  0.00    -0.301 NA
ATOM      8  C   UNL     1       0.144  -0.016  23.890  0.00  0.00    +0.070 C 
ATOM      9  C   UNL     1       1.389   0.879  23.951  0.00  0.00    +0.095 C 
ATOM     10  C   UNL     1       1.503  -0.171  21.883  0.00  0.00    +0.085 C 
ATOM     11  C   UNL     1       0.236  -0.721  22.525  0.00  0.00    +0.028 C 
BRANCH   1   7
ATOM      7  C   UNL     1       3.444   1.052  22.672  0.00  0.00    +0.088 C 
BRANCH   7   4
ATOM      4  C   UNL     1       4.741   0.327  22.832  0.00  0.00    +0.003 C 
ATOM      5  C   UNL     1       4.820  -0.838  23.773  0.00  0.00    +0.005 C 
ATOM      6  C   UNL     1       5.498   0.455  24.121  0.00  0.00    +0.005 C 
ENDBRANCH   7   4
ENDBRANCH   1   7
ENDBRANCH  12   8
TORSDOF 3
ENDMDL
MODEL 2
REMARK VINA RESULT:      -5.3      1.250      2.363
REMARK  Name = 56774420
REMARK  4 active torsions:
REMARK  status: ('A' for Active; 'I' for Inactive)
REMARK    1  A    between atoms: N_1  and  C_7
REMARK    2  A    between atoms: N_2  and  C_15
REMARK    3  A    between atoms: C_4  and  C_7
REMARK    4  A    between atoms: C_8  and  C_12
REMARK                            x       y       z     vdW  Elec       q    Type
REMARK                         _______ _______ _______ _____ _____    ______ ____
ROOT
ATOM      2  N   UNL     1      -2.152   2.572  25.286  0.00  0.00    -0.330 N 
ATOM      3  N   UNL     1      -3.035   0.571  24.893  0.00  0.00    -0.232 NA
ATOM     12  C   UNL     1      -1.918   1.249  25.028  0.00  0.00    +0.115 A 
ATOM     13  C   UNL     1      -3.510   2.758  25.319  0.00  0.00    +0.069 A 
ATOM     14  C   UNL     1      -4.039   1.495  25.071  0.00  0.00    +0.089 A 
ATOM     15  C   UNL     1      -1.150   3.594  25.489  0.00  0.00    +0.150 C 
ATOM     16  C   UNL     1      -4.297   3.890  25.539  0.00  0.00    +0.028 A 
ATOM     17  C   UNL     1      -5.434   1.332  25.036  0.00  0.00    +0.030 A 
ATOM     18  C   UNL     1      -5.684   3.709  25.501  0.00  0.00    +0.002 A 
ATOM     19  C   UNL     1      -6.244   2.453  25.254  0.00  0.00    +0.002 A 
ENDROOT
BRANCH  12   8
ATOM      1  N   UNL     1       1.055  -0.121  23.381  0.00  0.00    -0.301 NA
ATOM      8  C   UNL     1      -0.520   0.686  24.920  0.00  0.00    +0.070 C 
ATOM      9  C   UNL     1       0.159   1.020  23.585  0.00  0.00    +0.095 C 
ATOM     10  C   UNL     1       0.261  -1.294  23.750  0.00  0.00    +0.085 C 
ATOM     11  C   UNL     1      -0.432  -0.846  25.030  0.00  0.00    +0.028 C 
BRANCH   1   7
ATOM      7  C   UNL     1       1.555  -0.196  22.017  0.00  0.00    +0.088 C 
BRANCH   7   4
ATOM      4  C   UNL     1       3.031   0.030  21.966  0.00  0.00    +0.003 C 
ATOM      5  C   UNL     1       3.873  -0.356  23.146  0.00  0.00    +0.005 C 
ATOM      6  C   UNL     1       3.639   1.093  22.832  0.00  0.00    +0.005 C 
ENDBRANCH   7   4
ENDBRANCH   1   7
ENDBRANCH  12   8
TORSDOF 3
ENDMDL
MODEL 3
REMARK VINA RESULT:      -4.3     16.903     18.817
REMARK  Name = 56774420
REMARK  4 active torsions:
REMARK  status: ('A' for Active; 'I' for Inactive)
REMARK    1  A    between atoms: N_1  and  C_7
REMARK    2  A    between atoms: N_2  and  C_15
REMARK    3  A    between atoms: C_4  and  C_7
REMARK    4  A    between atoms: C_8  and  C_12
REMARK                            x       y       z     vdW  Elec       q    Type
REMARK                         _______ _______ _______ _____ _____    ______ ____
ROOT
ATOM      2  N   UNL     1      17.360  -4.800  25.309  0.00  0.00    -0.330 N 
ATOM      3  N   UNL     1      17.332  -3.081  26.718  0.00  0.00    -0.232 NA
ATOM     12  C   UNL     1      17.361  -4.390  26.614  0.00  0.00    +0.115 A 
ATOM     13  C   UNL     1      17.327  -3.679  24.519  0.00  0.00    +0.069 A 
ATOM     14  C   UNL     1      17.311  -2.620  25.422  0.00  0.00    +0.089 A 
ATOM     15  C   UNL     1      17.388  -6.167  24.842  0.00  0.00    +0.150 C 
ATOM     16  C   UNL     1      17.312  -3.507  23.135  0.00  0.00    +0.028 A 
ATOM     17  C   UNL     1      17.276  -1.303  24.932  0.00  0.00    +0.030 A 
ATOM     18  C   UNL     1      17.278  -2.190  22.664  0.00  0.00    +0.002 A 
ATOM     19  C   UNL     1      17.260  -1.107  23.545  0.00  0.00    +0.002 A 
ENDROOT
BRANCH  12   8
ATOM      1  N   UNL     1      16.013  -6.605  29.204  0.00  0.00    -0.301 NA
ATOM      8  C   UNL     1      17.393  -5.371  27.765  0.00  0.00    +0.070 C 
ATOM      9  C   UNL     1      16.184  -6.316  27.779  0.00  0.00    +0.095 C 
ATOM     10  C   UNL     1      16.191  -5.315  29.874  0.00  0.00    +0.085 C 
ATOM     11  C   UNL     1      17.401  -4.726  29.162  0.00  0.00    +0.028 C 
BRANCH   1   7
ATOM      7  C   UNL     1      14.723  -7.209  29.498  0.00  0.00    +0.088 C 
BRANCH   7   4
ATOM      4  C   UNL     1      13.792  -6.223  30.127  0.00  0.00    +0.003 C 
ATOM      5  C   UNL     1      13.327  -6.449  31.535  0.00  0.00    +0.005 C 
ATOM      6  C   UNL     1      12.370  -6.624  30.392  0.00  0.00    +0.005 C 
ENDBRANCH   7   4
ENDBRANCH   1   7
ENDBRANCH  12   8
TORSDOF 3
ENDMDL
MODEL 4
REMARK VINA RESULT:      -3.9     18.038     19.036
REMARK  Name = 56774420
REMARK  4 active torsions:
REMARK  status: ('A' for Active; 'I' for Inactive)
REMARK    1  A    between atoms: N_1  and  C_7
REMARK    2  A    between atoms: N_2  and  C_15
REMARK    3  A    between atoms: C_4  and  C_7
REMARK    4  A    between atoms: C_8  and  C_12
REMARK                            x       y       z     vdW  Elec       q    Type
REMARK                         _______ _______ _______ _____ _____    ______ ____
ROOT
ATOM      2  N   UNL     1      17.278  -3.321  26.423  0.00  0.00    -0.330 N 
ATOM      3  N   UNL     1      17.103  -4.926  24.896  0.00  0.00    -0.232 NA
ATOM     12  C   UNL     1      17.219  -4.665  26.178  0.00  0.00    +0.115 A 
ATOM     13  C   UNL     1      17.196  -2.672  25.218  0.00  0.00    +0.069 A 
ATOM     14  C   UNL     1      17.087  -3.695  24.281  0.00  0.00    +0.089 A 
ATOM     15  C   UNL     1      17.405  -2.692  27.719  0.00  0.00    +0.150 C 
ATOM     16  C   UNL     1      17.208  -1.318  24.879  0.00  0.00    +0.028 A 
ATOM     17  C   UNL     1      16.983  -3.367  22.919  0.00  0.00    +0.030 A 
ATOM     18  C   UNL     1      17.102  -1.010  23.518  0.00  0.00    +0.002 A 
ATOM     19  C   UNL     1      16.991  -2.014  22.555  0.00  0.00    +0.002 A 
ENDROOT
BRANCH  12   8
ATOM      1  N   UNL     1      16.740  -7.908  27.815  0.00  0.00    -0.301 NA
ATOM      8  C   UNL     1      17.282  -5.688  27.289  0.00  0.00    +0.070 C 
ATOM      9  C   UNL     1      17.405  -7.128  26.770  0.00  0.00    +0.095 C 
ATOM     10  C   UNL     1      15.538  -7.143  28.149  0.00  0.00    +0.085 C 
ATOM     11  C   UNL     1      16.054  -5.712  28.215  0.00  0.00    +0.028 C 
BRANCH   1   7
ATOM      7  C   UNL     1      16.432  -9.264  27.384  0.00  0.00    +0.088 C 
BRANCH   7   4
ATOM      4  C   UNL     1      15.774  -9.270  26.042  0.00  0.00    +0.003 C 
ATOM      5  C   UNL     1      14.784 -10.349  25.716  0.00  0.00    +0.005 C 
ATOM      6  C   UNL     1      16.132 -10.343  25.055  0.00  0.00    +0.005 C 
ENDBRANCH   7   4
ENDBRANCH   1   7
ENDBRANCH  12   8
TORSDOF 3
ENDMDL
MODEL 5
REMARK VINA RESULT:      -3.8      3.500      5.117
REMARK  Name = 56774420
REMARK  4 active torsions:
REMARK  status: ('A' for Active; 'I' for Inactive)
REMARK    1  A    between atoms: N_1  and  C_7
REMARK    2  A    between atoms: N_2  and  C_15
REMARK    3  A    between atoms: C_4  and  C_7
REMARK    4  A    between atoms: C_8  and  C_12
REMARK                            x       y       z     vdW  Elec       q    Type
REMARK                         _______ _______ _______ _____ _____    ______ ____
ROOT
ATOM      2  N   UNL     1      -3.882   2.872  25.379  0.00  0.00    -0.330 N 
ATOM      3  N   UNL     1      -2.032   1.744  24.885  0.00  0.00    -0.232 NA
ATOM     12  C   UNL     1      -3.310   1.647  25.172  0.00  0.00    +0.115 A 
ATOM     13  C   UNL     1      -2.906   3.822  25.215  0.00  0.00    +0.069 A 
ATOM     14  C   UNL     1      -1.761   3.093  24.908  0.00  0.00    +0.089 A 
ATOM     15  C   UNL     1      -5.266   3.125  25.711  0.00  0.00    +0.150 C 
ATOM     16  C   UNL     1      -2.928   5.215  25.307  0.00  0.00    +0.028 A 
ATOM     17  C   UNL     1      -0.556   3.777  24.675  0.00  0.00    +0.030 A 
ATOM     18  C   UNL     1      -1.720   5.880  25.072  0.00  0.00    +0.002 A 
ATOM     19  C   UNL     1      -0.554   5.175  24.762  0.00  0.00    +0.002 A 
ENDROOT
BRANCH  12   8
ATOM      1  N   UNL     1      -3.905  -1.968  25.109  0.00  0.00    -0.301 NA
ATOM      8  C   UNL     1      -4.101   0.363  25.273  0.00  0.00    +0.070 C 
ATOM      9  C   UNL     1      -3.255  -0.824  25.753  0.00  0.00    +0.095 C 
ATOM     10  C   UNL     1      -4.185  -1.522  23.743  0.00  0.00    +0.085 C 
ATOM     11  C   UNL     1      -4.727  -0.114  23.951  0.00  0.00    +0.028 C 
BRANCH   1   7
ATOM      7  C   UNL     1      -3.079  -3.166  25.143  0.00  0.00    +0.088 C 
BRANCH   7   4
ATOM      4  C   UNL     1      -1.809  -2.971  24.380  0.00  0.00    +0.003 C 
ATOM      5  C   UNL     1      -0.521  -2.802  25.131  0.00  0.00    +0.005 C 
ATOM      6  C   UNL     1      -1.131  -1.633  24.414  0.00  0.00    +0.005 C 
ENDBRANCH   7   4
ENDBRANCH   1   7
ENDBRANCH  12   8
TORSDOF 3
ENDMDL
MODEL 6
REMARK VINA RESULT:      -3.4      3.753      6.085
REMARK  Name = 56774420
REMARK  4 active torsions:
REMARK  status: ('A' for Active; 'I' for Inactive)
REMARK    1  A    between atoms: N_1  and  C_7
REMARK    2  A    between atoms: N_2  and  C_15
REMARK    3  A    between atoms: C_4  and  C_7
REMARK    4  A    between atoms: C_8  and  C_12
REMARK                            x       y       z     vdW  Elec       q    Type
REMARK                         _______ _______ _______ _____ _____    ______ ____
ROOT
ATOM      2  N   UNL     1      -2.865   0.439  24.694  0.00  0.00    -0.330 N 
ATOM      3  N   UNL     1      -4.860  -0.357  24.124  0.00  0.00    -0.232 NA
ATOM     12  C   UNL     1      -4.173   0.724  24.413  0.00  0.00    +0.115 A 
ATOM     13  C   UNL     1      -2.698  -0.917  24.579  0.00  0.00    +0.069 A 
ATOM     14  C   UNL     1      -3.957  -1.391  24.222  0.00  0.00    +0.089 A 
ATOM     15  C   UNL     1      -1.839   1.393  25.050  0.00  0.00    +0.150 C 
ATOM     16  C   UNL     1      -1.587  -1.744  24.751  0.00  0.00    +0.028 A 
ATOM     17  C   UNL     1      -4.137  -2.770  24.020  0.00  0.00    +0.030 A 
ATOM     18  C   UNL     1      -1.784  -3.114  24.546  0.00  0.00    +0.002 A 
ATOM     19  C   UNL     1      -3.036  -3.619  24.187  0.00  0.00    +0.002 A 
ENDROOT
BRANCH  12   8
ATOM      1  N   UNL     1      -4.058   4.381  24.609  0.00  0.00    -0.301 NA
ATOM      8  C   UNL     1      -4.713   2.136  24.446  0.00  0.00    +0.070 C 
ATOM      9  C   UNL     1      -3.735   3.164  23.862  0.00  0.00    +0.095 C 
ATOM     10  C   UNL     1      -4.222   3.941  25.995  0.00  0.00    +0.085 C 
ATOM     11  C   UNL     1      -5.044   2.667  25.852  0.00  0.00    +0.028 C 
BRANCH   1   7
ATOM      7  C   UNL     1      -3.034   5.406  24.470  0.00  0.00    +0.088 C 
BRANCH   7   4
ATOM      4  C   UNL     1      -1.802   5.051  25.238  0.00  0.00    +0.003 C 
ATOM      5  C   UNL     1      -0.492   5.668  24.849  0.00  0.00    +0.005 C 
ATOM      6  C   UNL     1      -0.745   4.213  24.581  0.00  0.00    +0.005 C 
ENDBRANCH   7   4
ENDBRANCH   1   7
ENDBRANCH  12   8
TORSDOF 3
ENDMDL
MODEL 7
REMARK VINA RESULT:      -2.9     17.835     18.905
REMARK  Name = 56774420
REMARK  4 active torsions:
REMARK  status: ('A' for Active; 'I' for Inactive)
REMARK    1  A    between atoms: N_1  and  C_7
REMARK    2  A    between atoms: N_2  and  C_15
REMARK    3  A    between atoms: C_4  and  C_7
REMARK    4  A    between atoms: C_8  and  C_12
REMARK                            x       y       z     vdW  Elec       q    Type
REMARK                         _______ _______ _______ _____ _____    ______ ____
ROOT
ATOM      2  N   UNL     1      17.307  -3.157  26.591  0.00  0.00    -0.330 N 
ATOM      3  N   UNL     1      17.201  -4.782  25.079  0.00  0.00    -0.232 NA
ATOM     12  C   UNL     1      17.301  -4.505  26.359  0.00  0.00    +0.115 A 
ATOM     13  C   UNL     1      17.204  -2.523  25.379  0.00  0.00    +0.069 A 
ATOM     14  C   UNL     1      17.140  -3.559  24.451  0.00  0.00    +0.089 A 
ATOM     15  C   UNL     1      17.403  -2.511  27.881  0.00  0.00    +0.150 C 
ATOM     16  C   UNL     1      17.163  -1.173  25.026  0.00  0.00    +0.028 A 
ATOM     17  C   UNL     1      17.027  -3.248  23.086  0.00  0.00    +0.030 A 
ATOM     18  C   UNL     1      17.051  -0.883  23.663  0.00  0.00    +0.002 A 
ATOM     19  C   UNL     1      16.984  -1.900  22.708  0.00  0.00    +0.002 A 
ENDROOT
BRANCH  12   8
ATOM      1  N   UNL     1      16.112  -6.907  28.857  0.00  0.00    -0.301 NA
ATOM      8  C   UNL     1      17.401  -5.514  27.480  0.00  0.00    +0.070 C 
ATOM      9  C   UNL     1      16.278  -6.560  27.444  0.00  0.00    +0.095 C 
ATOM     10  C   UNL     1      16.165  -5.629  29.568  0.00  0.00    +0.085 C 
ATOM     11  C   UNL     1      17.330  -4.915  28.895  0.00  0.00    +0.028 C 
BRANCH   1   7
ATOM      7  C   UNL     1      14.874  -7.630  29.108  0.00  0.00    +0.088 C 
BRANCH   7   4
ATOM      4  C   UNL     1      14.730  -7.972  30.556  0.00  0.00    +0.003 C 
ATOM      5  C   UNL     1      13.665  -8.941  30.978  0.00  0.00    +0.005 C 
ATOM      6  C   UNL     1      13.527  -7.483  31.308  0.00  0.00    +0.005 C 
ENDBRANCH   7   4
ENDBRANCH   1   7
ENDBRANCH  12   8
TORSDOF 3
ENDMDL
MODEL 8
REMARK VINA RESULT:      -2.6      1.666      6.969
REMARK  Name = 56774420
REMARK  4 active torsions:
REMARK  status: ('A' for Active; 'I' for Inactive)
REMARK    1  A    between atoms: N_1  and  C_7
REMARK    2  A    between atoms: N_2  and  C_15
REMARK    3  A    between atoms: C_4  and  C_7
REMARK    4  A    between atoms: C_8  and  C_12
REMARK                            x       y       z     vdW  Elec       q    Type
REMARK                         _______ _______ _______ _____ _____    ______ ____
ROOT
ATOM      2  N   UNL     1      -0.793   1.144  24.166  0.00  0.00    -0.330 N 
ATOM      3  N   UNL     1       0.898   2.528  24.569  0.00  0.00    -0.232 NA
ATOM     12  C   UNL     1      -0.370   2.277  24.805  0.00  0.00    +0.115 A 
ATOM     13  C   UNL     1       0.272   0.632  23.471  0.00  0.00    +0.069 A 
ATOM     14  C   UNL     1       1.315   1.514  23.739  0.00  0.00    +0.089 A 
ATOM     15  C   UNL     1      -2.125   0.584  24.211  0.00  0.00    +0.150 C 
ATOM     16  C   UNL     1       0.408  -0.492  22.656  0.00  0.00    +0.028 A 
ATOM     17  C   UNL     1       2.577   1.275  23.169  0.00  0.00    +0.030 A 
ATOM     18  C   UNL     1       1.671  -0.715  22.096  0.00  0.00    +0.002 A 
ATOM     19  C   UNL     1       2.737   0.152  22.347  0.00  0.00    +0.002 A 
ENDROOT
BRANCH  12   8
ATOM      1  N   UNL     1      -3.512   3.838  25.863  0.00  0.00    -0.301 NA
ATOM      8  C   UNL     1      -1.293   3.105  25.670  0.00  0.00    +0.070 C 
ATOM      9  C   UNL     1      -2.745   2.610  25.639  0.00  0.00    +0.095 C 
ATOM     10  C   UNL     1      -2.858   4.848  25.028  0.00  0.00    +0.085 C 
ATOM     11  C   UNL     1      -1.379   4.591  25.282  0.00  0.00    +0.028 C 
BRANCH   1   7
ATOM      7  C   UNL     1      -4.921   3.678  25.539  0.00  0.00    +0.088 C 
BRANCH   7   4
ATOM      4  C   UNL     1      -5.267   2.243  25.307  0.00  0.00    +0.003 C 
ATOM      5  C   UNL     1      -6.626   1.892  24.779  0.00  0.00    +0.005 C 
ATOM      6  C   UNL     1      -6.270   1.577  26.203  0.00  0.00    +0.005 C 
ENDBRANCH   7   4
ENDBRANCH   1   7
ENDBRANCH  12   8
TORSDOF 3
ENDMDL
MODEL 9
REMARK VINA RESULT:      -2.5      3.025      5.518
REMARK  Name = 56774420
REMARK  4 active torsions:
REMARK  status: ('A' for Active; 'I' for Inactive)
REMARK    1  A    between atoms: N_1  and  C_7
REMARK    2  A    between atoms: N_2  and  C_15
REMARK    3  A    between atoms: C_4  and  C_7
REMARK    4  A    between atoms: C_8  and  C_12
REMARK                            x       y       z     vdW  Elec       q    Type
REMARK                         _______ _______ _______ _____ _____    ______ ____
ROOT
ATOM      2  N   UNL     1      -2.464   0.460  24.311  0.00  0.00    -0.330 N 
ATOM      3  N   UNL     1      -1.266  -0.727  25.759  0.00  0.00    -0.232 NA
ATOM     12  C   UNL     1      -1.426   0.452  25.203  0.00  0.00    +0.115 A 
ATOM     13  C   UNL     1      -3.008  -0.798  24.291  0.00  0.00    +0.069 A 
ATOM     14  C   UNL     1      -2.244  -1.520  25.203  0.00  0.00    +0.089 A 
ATOM     15  C   UNL     1      -2.910   1.591  23.528  0.00  0.00    +0.150 C 
ATOM     16  C   UNL     1      -4.072  -1.349  23.576  0.00  0.00    +0.028 A 
ATOM     17  C   UNL     1      -2.544  -2.875  25.427  0.00  0.00    +0.030 A 
ATOM     18  C   UNL     1      -4.357  -2.698  23.811  0.00  0.00    +0.002 A 
ATOM     19  C   UNL     1      -3.607  -3.449  24.720  0.00  0.00    +0.002 A 
ENDROOT
BRANCH  12   8
ATOM      1  N   UNL     1      -0.580   4.017  25.250  0.00  0.00    -0.301 NA
ATOM      8  C   UNL     1      -0.594   1.683  25.478  0.00  0.00    +0.070 C 
ATOM      9  C   UNL     1      -1.444   2.936  25.730  0.00  0.00    +0.095 C 
ATOM     10  C   UNL     1      -0.013   3.518  23.996  0.00  0.00    +0.085 C 
ATOM     11  C   UNL     1       0.362   2.083  24.341  0.00  0.00    +0.028 C 
BRANCH   1   7
ATOM      7  C   UNL     1      -1.303   5.267  25.073  0.00  0.00    +0.088 C 
BRANCH   7   4
ATOM      4  C   UNL     1      -2.653   5.209  25.711  0.00  0.00    +0.003 C 
ATOM      5  C   UNL     1      -3.266   3.873  26.010  0.00  0.00    +0.005 C 
ATOM      6  C   UNL     1      -3.824   4.725  24.907  0.00  0.00    +0.005 C 
ENDBRANCH   7   4
ENDBRANCH   1   7
ENDBRANCH  12   8
TORSDOF 3
ENDMDL
MODEL 10
REMARK VINA RESULT:      -2.4      3.105      5.113
REMARK  Name = 56774420
REMARK  4 active torsions:
REMARK  status: ('A' for Active; 'I' for Inactive)
REMARK    1  A    between atoms: N_1  and  C_7
REMARK    2  A    between atoms: N_2  and  C_15
REMARK    3  A    between atoms: C_4  and  C_7
REMARK    4  A    between atoms: C_8  and  C_12
REMARK                            x       y       z     vdW  Elec       q    Type
REMARK                         _______ _______ _______ _____ _____    ______ ____
ROOT
ATOM      2  N   UNL     1      -2.144   1.881  25.024  0.00  0.00    -0.330 N 
ATOM      3  N   UNL     1       0.005   2.447  25.008  0.00  0.00    -0.232 NA
ATOM     12  C   UNL     1      -0.847   1.448  25.050  0.00  0.00    +0.115 A 
ATOM     13  C   UNL     1      -2.127   3.251  24.961  0.00  0.00    +0.069 A 
ATOM     14  C   UNL     1      -0.774   3.580  24.952  0.00  0.00    +0.089 A 
ATOM     15  C   UNL     1      -3.325   1.048  25.056  0.00  0.00    +0.150 C 
ATOM     16  C   UNL     1      -3.148   4.201  24.913  0.00  0.00    +0.028 A 
ATOM     17  C   UNL     1      -0.400   4.933  24.892  0.00  0.00    +0.030 A 
ATOM     18  C   UNL     1      -2.757   5.543  24.853  0.00  0.00    +0.002 A 
ATOM     19  C   UNL     1      -1.408   5.904  24.843  0.00  0.00    +0.002 A 
ENDROOT
BRANCH  12   8
ATOM      1  N   UNL     1      -1.315  -2.164  24.655  0.00  0.00    -0.301 NA
ATOM      8  C   UNL     1      -0.490  -0.019  25.119  0.00  0.00    +0.070 C 
ATOM      9  C   UNL     1      -1.169  -0.852  24.023  0.00  0.00    +0.095 C 
ATOM     10  C   UNL     1      -1.769  -1.878  26.017  0.00  0.00    +0.085 C 
ATOM     11  C   UNL     1      -0.878  -0.716  26.435  0.00  0.00    +0.028 C 
BRANCH   1   7
ATOM      7  C   UNL     1      -2.238  -3.028  23.934  0.00  0.00    +0.088 C 
BRANCH   7   4
ATOM      4  C   UNL     1      -3.646  -2.819  24.389  0.00  0.00    +0.003 C 
ATOM      5  C   UNL     1      -4.769  -3.034  23.418  0.00  0.00    +0.005 C 
ATOM      6  C   UNL     1      -4.419  -1.644  23.864  0.00  0.00    +0.005 C 
ENDBRANCH   7   4
ENDBRANCH   1   7
ENDBRANCH  12   8
TORSDOF 3
ENDMDL
