MODEL 1
REMARK VINA RESULT:       3.1      0.000      0.000
REMARK  Name = 51137519
REMARK  9 active torsions:
REMARK  status: ('A' for Active; 'I' for Inactive)
REMARK    1  A    between atoms: O_2  and  C_20
REMARK    2  A    between atoms: O_2  and  C_28
REMARK    3  A    between atoms: N_3  and  C_11
REMARK    4  A    between atoms: N_6  and  C_23
REMARK    5  A    between atoms: N_6  and  C_26
REMARK    6  A    between atoms: N_6  and  C_27
REMARK    7  A    between atoms: C_7  and  C_12
REMARK    8  A    between atoms: C_11  and  C_13
REMARK    9  A    between atoms: C_14  and  C_17
REMARK                            x       y       z     vdW  Elec       q    Type
REMARK                         _______ _______ _______ _____ _____    ______ ____
ROOT
ATOM      3  N   UNL     1      -5.967   2.642  25.269  0.00  0.00    -0.297 NA
ATOM      7  C   UNL     1      -5.214   0.486  24.738  0.00  0.00    +0.092 C 
ATOM      8  C   UNL     1      -5.861   0.476  26.135  0.00  0.00    +0.029 C 
ATOM      9  C   UNL     1      -4.970   1.970  24.433  0.00  0.00    +0.097 C 
ATOM     10  C   UNL     1      -5.920   1.940  26.551  0.00  0.00    +0.085 C 
ENDROOT
BRANCH   7  12
ATOM      1  O   UNL     1      -2.811   0.299  24.307  0.00  0.00    -0.420 OA
ATOM      4  N   UNL     1      -3.812  -1.651  24.753  0.00  0.00    -0.112 NA
ATOM      5  N   UNL     1      -2.470  -1.900  24.531  0.00  0.00    -0.107 NA
ATOM     12  C   UNL     1      -3.965  -0.355  24.611  0.00  0.00    +0.222 A 
ATOM     14  C   UNL     1      -1.926  -0.734  24.274  0.00  0.00    +0.248 A 
BRANCH  14  17
ATOM     17  C   UNL     1      -0.568  -0.388  23.972  0.00  0.00    +0.039 A 
ATOM     21  C   UNL     1       0.308  -1.359  23.486  0.00  0.00    +0.015 A 
ATOM     22  C   UNL     1      -0.122   0.920  24.163  0.00  0.00    +0.015 A 
ATOM     23  C   UNL     1       2.074   0.287  23.383  0.00  0.00    +0.029 A 
ATOM     24  C   UNL     1       1.630  -1.021  23.191  0.00  0.00    +0.024 A 
ATOM     25  C   UNL     1       1.198   1.258  23.869  0.00  0.00    +0.024 A 
BRANCH  23   6
ATOM      6  N   UNL     1       3.410   0.628  23.087  0.00  0.00    -0.336 N 
ATOM     26  C   UNL     1       4.497  -0.239  23.497  0.00  0.00    +0.129 C 
ATOM     27  C   UNL     1       3.716   1.852  22.374  0.00  0.00    +0.129 C 
ENDBRANCH  23   6
ENDBRANCH  14  17
ENDBRANCH   7  12
BRANCH   3  11
ATOM     11  C   UNL     1      -5.705   4.067  25.407  0.00  0.00    +0.119 C 
BRANCH  11  13
ATOM     13  C   UNL     1      -4.241   4.386  25.259  0.00  0.00    -0.033 A 
ATOM     15  C   UNL     1      -3.325   3.911  26.198  0.00  0.00    +0.008 A 
ATOM     16  C   UNL     1      -3.801   5.155  24.183  0.00  0.00    +0.008 A 
ATOM     18  C   UNL     1      -1.968   4.206  26.060  0.00  0.00    +0.046 A 
ATOM     19  C   UNL     1      -2.444   5.451  24.045  0.00  0.00    +0.046 A 
ATOM     20  C   UNL     1      -1.528   4.975  24.983  0.00  0.00    +0.120 A 
BRANCH  20   2
ATOM      2  O   UNL     1      -0.205   5.263  24.848  0.00  0.00    -0.495 OA
ATOM     28  C   UNL     1       0.417   4.897  23.617  0.00  0.00    +0.277 C 
ENDBRANCH  20   2
ENDBRANCH  11  13
ENDBRANCH   3  11
TORSDOF 6
ENDMDL
MODEL 2
REMARK VINA RESULT:       4.0      2.077      4.480
REMARK  Name = 51137519
REMARK  9 active torsions:
REMARK  status: ('A' for Active; 'I' for Inactive)
REMARK    1  A    between atoms: O_2  and  C_20
REMARK    2  A    between atoms: O_2  and  C_28
REMARK    3  A    between atoms: N_3  and  C_11
REMARK    4  A    between atoms: N_6  and  C_23
REMARK    5  A    between atoms: N_6  and  C_26
REMARK    6  A    between atoms: N_6  and  C_27
REMARK    7  A    between atoms: C_7  and  C_12
REMARK    8  A    between atoms: C_11  and  C_13
REMARK    9  A    between atoms: C_14  and  C_17
REMARK                            x       y       z     vdW  Elec       q    Type
REMARK                         _______ _______ _______ _____ _____    ______ ____
ROOT
ATOM      3  N   UNL     1      -5.628   2.292  25.803  0.00  0.00    -0.297 NA
ATOM      7  C   UNL     1      -3.870   3.844  25.768  0.00  0.00    +0.092 C 
ATOM      8  C   UNL     1      -4.932   4.246  24.730  0.00  0.00    +0.029 C 
ATOM      9  C   UNL     1      -4.201   2.387  26.118  0.00  0.00    +0.097 C 
ATOM     10  C   UNL     1      -5.780   2.996  24.530  0.00  0.00    +0.085 C 
ENDROOT
BRANCH   7  12
ATOM      1  O   UNL     1      -1.768   2.915  24.921  0.00  0.00    -0.420 OA
ATOM      4  N   UNL     1      -1.722   5.128  25.247  0.00  0.00    -0.112 NA
ATOM      5  N   UNL     1      -0.484   4.740  24.772  0.00  0.00    -0.107 NA
ATOM     12  C   UNL     1      -2.439   4.031  25.318  0.00  0.00    +0.222 A 
ATOM     14  C   UNL     1      -0.556   3.441  24.597  0.00  0.00    +0.248 A 
BRANCH  14  17
ATOM     17  C   UNL     1       0.426   2.510  24.124  0.00  0.00    +0.039 A 
ATOM     21  C   UNL     1       0.176   1.139  24.187  0.00  0.00    +0.015 A 
ATOM     22  C   UNL     1       1.632   2.975  23.600  0.00  0.00    +0.015 A 
ATOM     23  C   UNL     1       2.338   0.699  23.202  0.00  0.00    +0.029 A 
ATOM     24  C   UNL     1       1.132   0.233  23.726  0.00  0.00    +0.024 A 
ATOM     25  C   UNL     1       2.588   2.071  23.138  0.00  0.00    +0.024 A 
BRANCH  23   6
ATOM      6  N   UNL     1       3.304  -0.216  22.737  0.00  0.00    -0.336 N 
ATOM     26  C   UNL     1       3.592  -1.423  23.487  0.00  0.00    +0.129 C 
ATOM     27  C   UNL     1       4.029   0.040  21.508  0.00  0.00    +0.129 C 
ENDBRANCH  23   6
ENDBRANCH  14  17
ENDBRANCH   7  12
BRANCH   3  11
ATOM     11  C   UNL     1      -6.091   0.914  25.732  0.00  0.00    +0.119 C 
BRANCH  11  13
ATOM     13  C   UNL     1      -4.987  -0.029  25.336  0.00  0.00    -0.033 A 
ATOM     15  C   UNL     1      -3.977  -0.343  26.245  0.00  0.00    +0.008 A 
ATOM     16  C   UNL     1      -4.974  -0.590  24.059  0.00  0.00    +0.008 A 
ATOM     18  C   UNL     1      -2.955  -1.218  25.878  0.00  0.00    +0.046 A 
ATOM     19  C   UNL     1      -3.952  -1.465  23.691  0.00  0.00    +0.046 A 
ATOM     20  C   UNL     1      -2.942  -1.780  24.601  0.00  0.00    +0.120 A 
BRANCH  20   2
ATOM      2  O   UNL     1      -1.946  -2.633  24.242  0.00  0.00    -0.495 OA
ATOM     28  C   UNL     1      -0.741  -2.583  25.004  0.00  0.00    +0.277 C 
ENDBRANCH  20   2
ENDBRANCH  11  13
ENDBRANCH   3  11
TORSDOF 6
ENDMDL
