MODEL 1
REMARK VINA RESULT:      -4.1      0.000      0.000
REMARK  Name = 45783442
REMARK  9 active torsions:
REMARK  status: ('A' for Active; 'I' for Inactive)
REMARK    1  A    between atoms: O_3  and  C_22
REMARK    2  A    between atoms: O_3  and  C_25
REMARK    3  A    between atoms: O_4  and  C_26
REMARK    4  A    between atoms: O_4  and  C_27
REMARK    5  A    between atoms: N_5  and  C_13
REMARK    6  A    between atoms: C_9  and  C_14
REMARK    7  A    between atoms: C_13  and  C_15
REMARK    8  A    between atoms: C_17  and  C_20
REMARK    9  A    between atoms: C_25  and  C_26
REMARK                            x       y       z     vdW  Elec       q    Type
REMARK                         _______ _______ _______ _____ _____    ______ ____
ROOT
ATOM      1  O   UNL     1      -2.017   2.158  25.494  0.00  0.00    -0.336 OA
ATOM      6  N   UNL     1      -1.929   1.550  23.340  0.00  0.00    -0.189 NA
ATOM      7  N   UNL     1      -0.706   1.723  25.266  0.00  0.00    -0.054 NA
ATOM     14  C   UNL     1      -2.669   2.023  24.310  0.00  0.00    +0.245 A 
ATOM     17  C   UNL     1      -0.733   1.381  23.973  0.00  0.00    +0.221 A 
ENDROOT
BRANCH  17  20
ATOM      8  N   UNL     1       0.183  -0.158  22.437  0.00  0.00    -0.252 NA
ATOM     20  C   UNL     1       0.417   0.867  23.288  0.00  0.00    +0.115 A 
ATOM     21  C   UNL     1       1.670   1.416  23.514  0.00  0.00    +0.077 A 
ATOM     22  C   UNL     1       2.750   0.879  22.824  0.00  0.00    +0.124 A 
ATOM     23  C   UNL     1       1.258  -0.654  21.784  0.00  0.00    +0.115 A 
ATOM     24  C   UNL     1       2.549  -0.176  21.940  0.00  0.00    +0.065 A 
BRANCH  22   3
ATOM      3  O   UNL     1       4.000   1.384  23.011  0.00  0.00    -0.490 OA
BRANCH   3  25
ATOM     25  C   UNL     1       5.090   0.466  22.930  0.00  0.00    +0.257 C 
BRANCH  25  26
ATOM     26  C   UNL     1       5.740   0.348  24.295  0.00  0.00    +0.200 C 
BRANCH  26   4
ATOM      4  O   UNL     1       5.692  -1.011  24.716  0.00  0.00    -0.380 OA
ATOM     27  C   UNL     1       4.752  -1.759  23.958  0.00  0.00    +0.194 C 
ENDBRANCH  26   4
ENDBRANCH  25  26
ENDBRANCH   3  25
ENDBRANCH  22   3
ENDBRANCH  17  20
BRANCH  14   9
ATOM      5  N   UNL     1      -4.958   1.618  25.200  0.00  0.00    -0.284 NA
ATOM      9  C   UNL     1      -4.127   2.434  24.293  0.00  0.00    +0.146 C 
ATOM     10  C   UNL     1      -4.342   3.884  24.766  0.00  0.00    +0.030 C 
ATOM     11  C   UNL     1      -5.353   3.788  25.898  0.00  0.00    +0.017 C 
ATOM     12  C   UNL     1      -6.062   2.475  25.633  0.00  0.00    +0.085 C 
BRANCH   5  13
ATOM     13  C   UNL     1      -5.431   0.382  24.589  0.00  0.00    +0.159 C 
BRANCH  13  15
ATOM      2  O   UNL     1      -3.628  -0.728  25.790  0.00  0.00    -0.467 OA
ATOM     15  C   UNL     1      -4.402  -0.714  24.673  0.00  0.00    +0.119 A 
ATOM     16  C   UNL     1      -4.059  -1.749  23.834  0.00  0.00    +0.046 A 
ATOM     18  C   UNL     1      -3.006  -2.443  24.476  0.00  0.00    +0.041 A 
ATOM     19  C   UNL     1      -2.781  -1.783  25.662  0.00  0.00    +0.195 A 
ENDBRANCH  13  15
ENDBRANCH   5  13
ENDBRANCH  14   9
TORSDOF 8
ENDMDL
MODEL 2
REMARK VINA RESULT:      -1.3      1.323      3.135
REMARK  Name = 45783442
REMARK  9 active torsions:
REMARK  status: ('A' for Active; 'I' for Inactive)
REMARK    1  A    between atoms: O_3  and  C_22
REMARK    2  A    between atoms: O_3  and  C_25
REMARK    3  A    between atoms: O_4  and  C_26
REMARK    4  A    between atoms: O_4  and  C_27
REMARK    5  A    between atoms: N_5  and  C_13
REMARK    6  A    between atoms: C_9  and  C_14
REMARK    7  A    between atoms: C_13  and  C_15
REMARK    8  A    between atoms: C_17  and  C_20
REMARK    9  A    between atoms: C_25  and  C_26
REMARK                            x       y       z     vdW  Elec       q    Type
REMARK                         _______ _______ _______ _____ _____    ______ ____
ROOT
ATOM      1  O   UNL     1      -1.225   1.601  26.027  0.00  0.00    -0.336 OA
ATOM      6  N   UNL     1      -1.486   0.514  24.086  0.00  0.00    -0.189 NA
ATOM      7  N   UNL     1       0.047   1.529  25.447  0.00  0.00    -0.054 NA
ATOM     14  C   UNL     1      -2.068   0.980  25.162  0.00  0.00    +0.245 A 
ATOM     17  C   UNL     1      -0.189   0.875  24.306  0.00  0.00    +0.221 A 
ENDROOT
BRANCH  17  20
ATOM      8  N   UNL     1       0.508  -0.291  22.376  0.00  0.00    -0.252 NA
ATOM     20  C   UNL     1       0.849   0.565  23.366  0.00  0.00    +0.115 A 
ATOM     21  C   UNL     1       2.107   1.130  23.502  0.00  0.00    +0.077 A 
ATOM     22  C   UNL     1       3.077   0.795  22.564  0.00  0.00    +0.124 A 
ATOM     23  C   UNL     1       1.476  -0.593  21.482  0.00  0.00    +0.115 A 
ATOM     24  C   UNL     1       2.763  -0.082  21.532  0.00  0.00    +0.065 A 
BRANCH  22   3
ATOM      3  O   UNL     1       4.327   1.324  22.655  0.00  0.00    -0.490 OA
BRANCH   3  25
ATOM     25  C   UNL     1       5.404   0.411  22.869  0.00  0.00    +0.257 C 
BRANCH  25  26
ATOM     26  C   UNL     1       5.590   0.206  24.360  0.00  0.00    +0.200 C 
BRANCH  26   4
ATOM      4  O   UNL     1       5.635  -1.189  24.635  0.00  0.00    -0.380 OA
ATOM     27  C   UNL     1       4.609  -1.889  23.946  0.00  0.00    +0.194 C 
ENDBRANCH  26   4
ENDBRANCH  25  26
ENDBRANCH   3  25
ENDBRANCH  22   3
ENDBRANCH  17  20
BRANCH  14   9
ATOM      5  N   UNL     1      -4.368   1.856  24.789  0.00  0.00    -0.284 NA
ATOM      9  C   UNL     1      -3.527   0.923  25.565  0.00  0.00    +0.146 C 
ATOM     10  C   UNL     1      -4.157  -0.462  25.325  0.00  0.00    +0.030 C 
ATOM     11  C   UNL     1      -5.378  -0.198  24.456  0.00  0.00    +0.017 C 
ATOM     12  C   UNL     1      -5.701   1.257  24.725  0.00  0.00    +0.085 C 
BRANCH   5  13
ATOM     13  C   UNL     1      -4.398   3.202  25.347  0.00  0.00    +0.159 C 
BRANCH  13  15
ATOM      2  O   UNL     1      -2.492   3.744  23.932  0.00  0.00    -0.467 OA
ATOM     15  C   UNL     1      -3.094   3.926  25.137  0.00  0.00    +0.119 A 
ATOM     16  C   UNL     1      -2.346   4.765  25.929  0.00  0.00    +0.046 A 
ATOM     18  C   UNL     1      -1.212   5.122  25.162  0.00  0.00    +0.041 A 
ATOM     19  C   UNL     1      -1.347   4.475  23.955  0.00  0.00    +0.195 A 
ENDBRANCH  13  15
ENDBRANCH   5  13
ENDBRANCH  14   9
TORSDOF 8
ENDMDL
MODEL 3
REMARK VINA RESULT:      -1.2     15.024     18.315
REMARK  Name = 45783442
REMARK  9 active torsions:
REMARK  status: ('A' for Active; 'I' for Inactive)
REMARK    1  A    between atoms: O_3  and  C_22
REMARK    2  A    between atoms: O_3  and  C_25
REMARK    3  A    between atoms: O_4  and  C_26
REMARK    4  A    between atoms: O_4  and  C_27
REMARK    5  A    between atoms: N_5  and  C_13
REMARK    6  A    between atoms: C_9  and  C_14
REMARK    7  A    between atoms: C_13  and  C_15
REMARK    8  A    between atoms: C_17  and  C_20
REMARK    9  A    between atoms: C_25  and  C_26
REMARK                            x       y       z     vdW  Elec       q    Type
REMARK                         _______ _______ _______ _____ _____    ______ ____
ROOT
ATOM      1  O   UNL     1      -4.042  -8.513  11.396  0.00  0.00    -0.336 OA
ATOM      6  N   UNL     1      -5.544 -10.172  11.490  0.00  0.00    -0.189 NA
ATOM      7  N   UNL     1      -5.160  -8.067  10.682  0.00  0.00    -0.054 NA
ATOM     14  C   UNL     1      -4.351  -9.760  11.838  0.00  0.00    +0.245 A 
ATOM     17  C   UNL     1      -6.002  -9.100  10.783  0.00  0.00    +0.221 A 
ENDROOT
BRANCH  17  20
ATOM      8  N   UNL     1      -7.439  -8.338   9.073  0.00  0.00    -0.252 NA
ATOM     20  C   UNL     1      -7.307  -9.092  10.188  0.00  0.00    +0.115 A 
ATOM     21  C   UNL     1      -8.339  -9.826  10.753  0.00  0.00    +0.077 A 
ATOM     22  C   UNL     1      -9.583  -9.782  10.136  0.00  0.00    +0.124 A 
ATOM     23  C   UNL     1      -8.663  -8.320   8.500  0.00  0.00    +0.115 A 
ATOM     24  C   UNL     1      -9.757  -9.018   8.987  0.00  0.00    +0.065 A 
BRANCH  22   3
ATOM      3  O   UNL     1     -10.627 -10.486  10.652  0.00  0.00    -0.490 OA
BRANCH   3  25
ATOM     25  C   UNL     1     -10.589 -10.773  12.050  0.00  0.00    +0.257 C 
BRANCH  25  26
ATOM     26  C   UNL     1     -10.654  -9.472  12.825  0.00  0.00    +0.200 C 
BRANCH  26   4
ATOM      4  O   UNL     1     -10.093  -9.673  14.117  0.00  0.00    -0.380 OA
ATOM     27  C   UNL     1     -10.234  -8.518  14.932  0.00  0.00    +0.194 C 
ENDBRANCH  26   4
ENDBRANCH  25  26
ENDBRANCH   3  25
ENDBRANCH  22   3
ENDBRANCH  17  20
BRANCH  14   9
ATOM      5  N   UNL     1      -2.065  -9.662  12.817  0.00  0.00    -0.284 NA
ATOM      9  C   UNL     1      -3.289 -10.470  12.651  0.00  0.00    +0.146 C 
ATOM     10  C   UNL     1      -3.749 -10.781  14.088  0.00  0.00    +0.030 C 
ATOM     11  C   UNL     1      -2.689 -10.160  14.988  0.00  0.00    +0.017 C 
ATOM     12  C   UNL     1      -1.471 -10.064  14.091  0.00  0.00    +0.085 C 
BRANCH   5  13
ATOM     13  C   UNL     1      -1.130  -9.802  11.708  0.00  0.00    +0.159 C 
BRANCH  13  15
ATOM      2  O   UNL     1       1.011  -8.956  10.917  0.00  0.00    -0.467 OA
ATOM     15  C   UNL     1      -0.040  -8.765  11.758  0.00  0.00    +0.119 A 
ATOM     16  C   UNL     1       0.136  -7.618  12.497  0.00  0.00    +0.046 A 
ATOM     18  C   UNL     1       1.373  -7.070  12.084  0.00  0.00    +0.041 A 
ATOM     19  C   UNL     1       1.866  -7.920  11.121  0.00  0.00    +0.195 A 
ENDBRANCH  13  15
ENDBRANCH   5  13
ENDBRANCH  14   9
TORSDOF 8
ENDMDL
MODEL 4
REMARK VINA RESULT:      -0.5      1.314      3.153
REMARK  Name = 45783442
REMARK  9 active torsions:
REMARK  status: ('A' for Active; 'I' for Inactive)
REMARK    1  A    between atoms: O_3  and  C_22
REMARK    2  A    between atoms: O_3  and  C_25
REMARK    3  A    between atoms: O_4  and  C_26
REMARK    4  A    between atoms: O_4  and  C_27
REMARK    5  A    between atoms: N_5  and  C_13
REMARK    6  A    between atoms: C_9  and  C_14
REMARK    7  A    between atoms: C_13  and  C_15
REMARK    8  A    between atoms: C_17  and  C_20
REMARK    9  A    between atoms: C_25  and  C_26
REMARK                            x       y       z     vdW  Elec       q    Type
REMARK                         _______ _______ _______ _____ _____    ______ ____
ROOT
ATOM      1  O   UNL     1      -1.380   0.595  25.682  0.00  0.00    -0.336 OA
ATOM      6  N   UNL     1      -1.055  -0.661  23.856  0.00  0.00    -0.189 NA
ATOM      7  N   UNL     1      -0.135   0.975  25.164  0.00  0.00    -0.054 NA
ATOM     14  C   UNL     1      -1.853  -0.371  24.853  0.00  0.00    +0.245 A 
ATOM     17  C   UNL     1      -0.015   0.190  24.089  0.00  0.00    +0.221 A 
ENDROOT
BRANCH  17  20
ATOM      8  N   UNL     1       0.997  -0.402  22.041  0.00  0.00    -0.252 NA
ATOM     20  C   UNL     1       1.131   0.231  23.228  0.00  0.00    +0.115 A 
ATOM     21  C   UNL     1       2.284   0.889  23.630  0.00  0.00    +0.077 A 
ATOM     22  C   UNL     1       3.366   0.897  22.758  0.00  0.00    +0.124 A 
ATOM     23  C   UNL     1       2.070  -0.372  21.219  0.00  0.00    +0.115 A 
ATOM     24  C   UNL     1       3.265   0.257  21.527  0.00  0.00    +0.065 A 
BRANCH  22   3
ATOM      3  O   UNL     1       4.519   1.530  23.106  0.00  0.00    -0.490 OA
BRANCH   3  25
ATOM     25  C   UNL     1       5.352   0.881  24.067  0.00  0.00    +0.257 C 
BRANCH  25  26
ATOM     26  C   UNL     1       6.023  -0.312  23.415  0.00  0.00    +0.200 C 
BRANCH  26   4
ATOM      4  O   UNL     1       5.752  -1.476  24.188  0.00  0.00    -0.380 OA
ATOM     27  C   UNL     1       4.435  -1.956  23.964  0.00  0.00    +0.194 C 
ENDBRANCH  26   4
ENDBRANCH  25  26
ENDBRANCH   3  25
ENDBRANCH  22   3
ENDBRANCH  17  20
BRANCH  14   9
ATOM      5  N   UNL     1      -4.315  -0.276  24.503  0.00  0.00    -0.284 NA
ATOM      9  C   UNL     1      -3.206  -0.955  25.202  0.00  0.00    +0.146 C 
ATOM     10  C   UNL     1      -3.337  -2.435  24.795  0.00  0.00    +0.030 C 
ATOM     11  C   UNL     1      -4.581  -2.499  23.921  0.00  0.00    +0.017 C 
ATOM     12  C   UNL     1      -5.371  -1.273  24.334  0.00  0.00    +0.085 C 
BRANCH   5  13
ATOM     13  C   UNL     1      -4.790   0.913  25.200  0.00  0.00    +0.159 C 
BRANCH  13  15
ATOM      2  O   UNL     1      -3.343   2.129  23.667  0.00  0.00    -0.467 OA
ATOM     15  C   UNL     1      -3.953   2.123  24.882  0.00  0.00    +0.119 A 
ATOM     16  C   UNL     1      -3.657   3.272  25.577  0.00  0.00    +0.046 A 
ATOM     18  C   UNL     1      -2.811   4.033  24.736  0.00  0.00    +0.041 A 
ATOM     19  C   UNL     1      -2.650   3.295  23.586  0.00  0.00    +0.195 A 
ENDBRANCH  13  15
ENDBRANCH   5  13
ENDBRANCH  14   9
TORSDOF 8
ENDMDL
