MODEL 1
REMARK VINA RESULT:      -3.5      0.000      0.000
REMARK  Name = 38027174
REMARK  12 active torsions:
REMARK  status: ('A' for Active; 'I' for Inactive)
REMARK    1  A    between atoms: N_3  and  C_13
REMARK    2  A    between atoms: N_4  and  C_20
REMARK    3  A    between atoms: N_4  and  C_21
REMARK    4  A    between atoms: C_6  and  C_10
REMARK    5  A    between atoms: C_7  and  C_13
REMARK    6  A    between atoms: C_9  and  C_14
REMARK    7  A    between atoms: C_10  and  C_15
REMARK    8  A    between atoms: C_10  and  C_16
REMARK    9  A    between atoms: C_11  and  C_17
REMARK   10  A    between atoms: C_14  and  C_18
REMARK   11  A    between atoms: C_19  and  C_22
REMARK   12  A    between atoms: C_20  and  C_23
REMARK                            x       y       z     vdW  Elec       q    Type
REMARK                         _______ _______ _______ _____ _____    ______ ____
ROOT
ATOM      6  C   UNL     1      -1.803   0.661  24.895  0.00  0.00    +0.000 C 
ATOM      7  C   UNL     1      -0.935  -0.592  24.619  0.00  0.00    +0.032 C 
ATOM      8  C   UNL     1      -2.911   0.333  25.908  0.00  0.00    +0.012 C 
ATOM      9  C   UNL     1      -3.831  -0.802  25.418  0.00  0.00    +0.023 C 
ATOM     11  C   UNL     1      -3.039  -1.975  24.877  0.00  0.00    -0.073 C 
ATOM     12  C   UNL     1      -1.742  -1.866  24.538  0.00  0.00    -0.022 C 
ATOM     17  C   UNL     1      -3.760  -3.291  24.778  0.00  0.00    +0.039 C 
ENDROOT
BRANCH   6  10
ATOM     10  C   UNL     1      -0.963   1.834  25.407  0.00  0.00    -0.013 C 
ATOM     15  C   UNL     1      -0.052   2.359  24.302  0.00  0.00    +0.007 C 
ATOM     16  C   UNL     1      -0.147   1.412  26.626  0.00  0.00    +0.007 C 
ENDBRANCH   6  10
BRANCH   7  13
ATOM     13  C   UNL     1      -0.115  -0.424  23.334  0.00  0.00    +0.112 C 
BRANCH  13   3
ATOM      2  O   UNL     1       2.026  -0.192  21.435  0.00  0.00    -0.270 OA
ATOM      3  N   UNL     1       1.284  -0.393  23.625  0.00  0.00    -0.311 N 
ATOM     19  C   UNL     1       2.261  -0.278  22.638  0.00  0.00    +0.246 C 
ATOM     33  H   UNL     1       1.555  -0.373  24.603  0.00  0.00    +0.149 HD
BRANCH  19  22
ATOM      5  N   UNL     1       5.500  -1.489  24.133  0.00  0.00    -0.263 NA
ATOM     22  C   UNL     1       3.673  -0.287  23.102  0.00  0.00    +0.055 A 
ATOM     24  C   UNL     1       4.482   0.835  22.957  0.00  0.00    +0.016 A 
ATOM     25  C   UNL     1       4.225  -1.414  23.691  0.00  0.00    +0.123 A 
ATOM     28  C   UNL     1       5.799   0.796  23.401  0.00  0.00    +0.020 A 
ATOM     31  C   UNL     1       6.256  -0.379  23.977  0.00  0.00    +0.111 A 
ENDBRANCH  19  22
ENDBRANCH  13   3
ENDBRANCH   7  13
BRANCH   9  14
ATOM     14  C   UNL     1      -4.834  -0.290  24.378  0.00  0.00    +0.103 C 
BRANCH  14  18
ATOM      1  O   UNL     1      -4.101   1.738  23.331  0.00  0.00    -0.276 OA
ATOM      4  N   UNL     1      -5.537   1.953  25.139  0.00  0.00    -0.300 N 
ATOM     18  C   UNL     1      -4.779   1.218  24.221  0.00  0.00    +0.216 C 
ATOM     21  C   UNL     1      -6.332   1.316  26.183  0.00  0.00    +0.132 C 
BRANCH   4  20
ATOM     20  C   UNL     1      -5.591   3.412  25.121  0.00  0.00    +0.142 C 
BRANCH  20  23
ATOM     23  C   UNL     1      -4.222   4.025  25.183  0.00  0.00    -0.030 A 
ATOM     26  C   UNL     1      -3.499   3.998  26.376  0.00  0.00    +0.005 A 
ATOM     27  C   UNL     1      -3.673   4.622  24.049  0.00  0.00    +0.005 A 
ATOM     29  C   UNL     1      -2.227   4.567  26.434  0.00  0.00    +0.000 A 
ATOM     30  C   UNL     1      -2.401   5.192  24.107  0.00  0.00    +0.000 A 
ATOM     32  C   UNL     1      -1.677   5.164  25.299  0.00  0.00    +0.000 A 
ENDBRANCH  20  23
ENDBRANCH   4  20
ENDBRANCH  14  18
ENDBRANCH   9  14
TORSDOF 8
ENDMDL
MODEL 2
REMARK VINA RESULT:      -0.0      1.567      4.444
REMARK  Name = 38027174
REMARK  12 active torsions:
REMARK  status: ('A' for Active; 'I' for Inactive)
REMARK    1  A    between atoms: N_3  and  C_13
REMARK    2  A    between atoms: N_4  and  C_20
REMARK    3  A    between atoms: N_4  and  C_21
REMARK    4  A    between atoms: C_6  and  C_10
REMARK    5  A    between atoms: C_7  and  C_13
REMARK    6  A    between atoms: C_9  and  C_14
REMARK    7  A    between atoms: C_10  and  C_15
REMARK    8  A    between atoms: C_10  and  C_16
REMARK    9  A    between atoms: C_11  and  C_17
REMARK   10  A    between atoms: C_14  and  C_18
REMARK   11  A    between atoms: C_19  and  C_22
REMARK   12  A    between atoms: C_20  and  C_23
REMARK                            x       y       z     vdW  Elec       q    Type
REMARK                         _______ _______ _______ _____ _____    ______ ____
ROOT
ATOM      6  C   UNL     1      -2.474   2.478  23.278  0.00  0.00    +0.000 C 
ATOM      7  C   UNL     1      -0.952   2.219  23.150  0.00  0.00    +0.032 C 
ATOM      8  C   UNL     1      -2.744   3.966  23.549  0.00  0.00    +0.012 C 
ATOM      9  C   UNL     1      -2.054   4.459  24.836  0.00  0.00    +0.023 C 
ATOM     11  C   UNL     1      -0.609   4.008  24.907  0.00  0.00    -0.073 C 
ATOM     12  C   UNL     1      -0.131   3.015  24.137  0.00  0.00    -0.022 C 
ATOM     17  C   UNL     1       0.288   4.758  25.853  0.00  0.00    +0.039 C 
ENDROOT
BRANCH   6  10
ATOM     10  C   UNL     1      -3.235   2.033  22.025  0.00  0.00    -0.013 C 
ATOM     15  C   UNL     1      -2.260   1.588  20.941  0.00  0.00    +0.007 C 
ATOM     16  C   UNL     1      -4.131   3.160  21.519  0.00  0.00    +0.007 C 
ENDBRANCH   6  10
BRANCH   7  13
ATOM     13  C   UNL     1      -0.631   0.728  23.303  0.00  0.00    +0.112 C 
BRANCH  13   3
ATOM      2  O   UNL     1       1.334  -0.309  21.485  0.00  0.00    -0.270 OA
ATOM      3  N   UNL     1       0.760   0.533  23.569  0.00  0.00    -0.311 N 
ATOM     19  C   UNL     1       1.649   0.022  22.625  0.00  0.00    +0.246 C 
ATOM     33  H   UNL     1       1.113   0.864  24.462  0.00  0.00    +0.149 HD
BRANCH  19  22
ATOM      5  N   UNL     1       4.771  -1.564  24.014  0.00  0.00    -0.263 NA
ATOM     22  C   UNL     1       3.058  -0.145  23.066  0.00  0.00    +0.055 A 
ATOM     24  C   UNL     1       3.971   0.899  22.960  0.00  0.00    +0.016 A 
ATOM     25  C   UNL     1       3.504  -1.345  23.595  0.00  0.00    +0.123 A 
ATOM     28  C   UNL     1       5.282   0.713  23.381  0.00  0.00    +0.020 A 
ATOM     31  C   UNL     1       5.629  -0.526  23.897  0.00  0.00    +0.111 A 
ENDBRANCH  19  22
ENDBRANCH  13   3
ENDBRANCH   7  13
BRANCH   9  14
ATOM     14  C   UNL     1      -2.829   4.017  26.082  0.00  0.00    +0.103 C 
BRANCH  14  18
ATOM      1  O   UNL     1      -5.137   3.698  25.520  0.00  0.00    -0.276 OA
ATOM      4  N   UNL     1      -3.826   1.793  25.678  0.00  0.00    -0.300 N 
ATOM     18  C   UNL     1      -4.042   3.174  25.735  0.00  0.00    +0.216 C 
ATOM     21  C   UNL     1      -2.521   1.194  25.936  0.00  0.00    +0.132 C 
BRANCH   4  20
ATOM     20  C   UNL     1      -4.890   0.845  25.357  0.00  0.00    +0.142 C 
BRANCH  20  23
ATOM     23  C   UNL     1      -4.351  -0.520  25.043  0.00  0.00    -0.030 A 
ATOM     26  C   UNL     1      -3.691  -1.253  26.030  0.00  0.00    +0.005 A 
ATOM     27  C   UNL     1      -4.510  -1.055  23.765  0.00  0.00    +0.005 A 
ATOM     29  C   UNL     1      -3.190  -2.522  25.739  0.00  0.00    +0.000 A 
ATOM     30  C   UNL     1      -4.008  -2.324  23.474  0.00  0.00    +0.000 A 
ATOM     32  C   UNL     1      -3.349  -3.058  24.460  0.00  0.00    +0.000 A 
ENDBRANCH  20  23
ENDBRANCH   4  20
ENDBRANCH  14  18
ENDBRANCH   9  14
TORSDOF 8
ENDMDL
