MODEL 1
REMARK VINA RESULT:       9.9      0.000      0.000
REMARK  Name = 7127963
REMARK  14 active torsions:
REMARK  status: ('A' for Active; 'I' for Inactive)
REMARK    1  A    between atoms: O_4  and  C_22
REMARK    2  A    between atoms: O_4  and  C_32
REMARK    3  A    between atoms: O_6  and  C_35
REMARK    4  A    between atoms: O_6  and  C_36
REMARK    5  A    between atoms: N_8  and  C_13
REMARK    6  A    between atoms: N_9  and  C_18
REMARK    7  A    between atoms: N_10  and  C_28
REMARK    8  A    between atoms: N_11  and  C_29
REMARK    9  A    between atoms: C_12  and  C_16
REMARK   10  A    between atoms: C_17  and  C_19
REMARK   11  A    between atoms: C_18  and  C_20
REMARK   12  A    between atoms: C_18  and  C_22
REMARK   13  A    between atoms: C_20  and  C_24
REMARK   14  A    between atoms: C_20  and  C_25
REMARK                            x       y       z     vdW  Elec       q    Type
REMARK                         _______ _______ _______ _____ _____    ______ ____
ROOT
ATOM      2  O   UNL     1      -4.873   0.915  23.980  0.00  0.00    -0.268 OA
ATOM      7  N   UNL     1      -3.157   2.417  23.629  0.00  0.00    -0.283 N 
ATOM     12  C   UNL     1      -2.425   1.569  22.699  0.00  0.00    +0.164 C 
ATOM     13  C   UNL     1      -1.136   3.570  23.131  0.00  0.00    +0.094 C 
ATOM     14  C   UNL     1      -1.362   2.477  22.083  0.00  0.00    +0.056 C 
ATOM     15  C   UNL     1      -2.501   3.716  23.794  0.00  0.00    +0.131 C 
ATOM     17  C   UNL     1      -4.389   2.032  24.166  0.00  0.00    +0.264 C 
ENDROOT
BRANCH  13   8
ATOM      3  O   UNL     1      -1.425   3.428  25.977  0.00  0.00    -0.253 OA
ATOM      8  N   UNL     1      -0.115   3.215  24.084  0.00  0.00    -0.295 N 
ATOM     11  N   UNL     1       0.831   2.796  26.137  0.00  0.00    -0.269 N 
ATOM     21  C   UNL     1      -0.338   3.169  25.466  0.00  0.00    +0.304 C 
ATOM     37  H   UNL     1       0.826   3.043  23.742  0.00  0.00    +0.151 HD
ATOM     39  H   UNL     1       1.647   2.609  25.561  0.00  0.00    +0.156 HD
BRANCH  11  29
ATOM     29  C   UNL     1       1.019   2.636  27.529  0.00  0.00    +0.035 A 
ATOM     30  C   UNL     1      -0.081   2.424  28.361  0.00  0.00    +0.027 A 
ATOM     31  C   UNL     1       2.304   2.688  28.070  0.00  0.00    +0.027 A 
ATOM     33  C   UNL     1       0.105   2.264  29.735  0.00  0.00    +0.047 A 
ATOM     34  C   UNL     1       2.489   2.528  29.443  0.00  0.00    +0.047 A 
ATOM     35  C   UNL     1       1.389   2.316  30.276  0.00  0.00    +0.120 A 
BRANCH  35   6
ATOM      6  O   UNL     1       1.571   2.158  31.614  0.00  0.00    -0.495 OA
ATOM     36  C   UNL     1       0.415   2.269  32.445  0.00  0.00    +0.277 C 
ENDBRANCH  35   6
ENDBRANCH  11  29
ENDBRANCH  13   8
BRANCH  17  19
ATOM     10  N   UNL     1      -5.895   2.711  26.048  0.00  0.00    -0.346 N 
ATOM     19  C   UNL     1      -5.070   3.016  24.997  0.00  0.00    +0.104 A 
ATOM     23  C   UNL     1      -5.017   4.389  24.888  0.00  0.00    +0.032 A 
ATOM     26  C   UNL     1      -6.369   3.867  26.612  0.00  0.00    +0.086 A 
ATOM     27  C   UNL     1      -5.839   4.927  25.908  0.00  0.00    +0.020 A 
ATOM     28  C   UNL     1      -6.226   1.380  26.507  0.00  0.00    +0.149 C 
ENDBRANCH  17  19
BRANCH  12  16
ATOM      1  O   UNL     1      -0.594   0.379  23.662  0.00  0.00    -0.274 OA
ATOM      9  N   UNL     1      -2.739  -0.504  23.861  0.00  0.00    -0.301 N 
ATOM     16  C   UNL     1      -1.804   0.436  23.459  0.00  0.00    +0.234 C 
ATOM     38  H   UNL     1      -3.720  -0.347  23.650  0.00  0.00    +0.150 HD
BRANCH   9  18
ATOM     18  C   UNL     1      -2.394  -1.701  24.589  0.00  0.00    +0.184 C 
BRANCH  18  20
ATOM     20  C   UNL     1      -3.387  -2.856  24.330  0.00  0.00    +0.014 C 
ATOM     24  C   UNL     1      -4.699  -2.337  23.735  0.00  0.00    +0.009 C 
ATOM     25  C   UNL     1      -2.810  -3.960  23.438  0.00  0.00    +0.009 C 
ENDBRANCH  18  20
BRANCH  18  22
ATOM      5  O   UNL     1      -3.202  -1.368  26.845  0.00  0.00    -0.249 OA
ATOM     22  C   UNL     1      -2.243  -1.426  26.082  0.00  0.00    +0.328 C 
BRANCH  22   4
ATOM      4  O   UNL     1      -0.940  -1.256  26.445  0.00  0.00    -0.467 OA
ATOM     32  C   UNL     1       0.018  -2.007  25.691  0.00  0.00    +0.280 C 
ENDBRANCH  22   4
ENDBRANCH  18  22
ENDBRANCH   9  18
ENDBRANCH  12  16
TORSDOF 9
ENDMDL
MODEL 2
REMARK VINA RESULT:      10.1      3.072      4.992
REMARK  Name = 7127963
REMARK  14 active torsions:
REMARK  status: ('A' for Active; 'I' for Inactive)
REMARK    1  A    between atoms: O_4  and  C_22
REMARK    2  A    between atoms: O_4  and  C_32
REMARK    3  A    between atoms: O_6  and  C_35
REMARK    4  A    between atoms: O_6  and  C_36
REMARK    5  A    between atoms: N_8  and  C_13
REMARK    6  A    between atoms: N_9  and  C_18
REMARK    7  A    between atoms: N_10  and  C_28
REMARK    8  A    between atoms: N_11  and  C_29
REMARK    9  A    between atoms: C_12  and  C_16
REMARK   10  A    between atoms: C_17  and  C_19
REMARK   11  A    between atoms: C_18  and  C_20
REMARK   12  A    between atoms: C_18  and  C_22
REMARK   13  A    between atoms: C_20  and  C_24
REMARK   14  A    between atoms: C_20  and  C_25
REMARK                            x       y       z     vdW  Elec       q    Type
REMARK                         _______ _______ _______ _____ _____    ______ ____
ROOT
ATOM      2  O   UNL     1      -4.007   3.066  26.235  0.00  0.00    -0.268 OA
ATOM      7  N   UNL     1      -3.234   2.468  24.146  0.00  0.00    -0.283 N 
ATOM     12  C   UNL     1      -4.081   1.289  24.022  0.00  0.00    +0.164 C 
ATOM     13  C   UNL     1      -2.601   1.407  22.112  0.00  0.00    +0.094 C 
ATOM     14  C   UNL     1      -3.960   0.863  22.560  0.00  0.00    +0.056 C 
ATOM     15  C   UNL     1      -2.437   2.680  22.935  0.00  0.00    +0.131 C 
ATOM     17  C   UNL     1      -3.309   3.319  25.252  0.00  0.00    +0.264 C 
ENDROOT
BRANCH  13   8
ATOM      3  O   UNL     1       0.140   2.049  22.645  0.00  0.00    -0.253 OA
ATOM      8  N   UNL     1      -1.529   0.475  22.351  0.00  0.00    -0.295 N 
ATOM     11  N   UNL     1       0.607  -0.247  22.799  0.00  0.00    -0.269 N 
ATOM     21  C   UNL     1      -0.210   0.871  22.606  0.00  0.00    +0.304 C 
ATOM     37  H   UNL     1      -1.727  -0.519  22.279  0.00  0.00    +0.151 HD
ATOM     39  H   UNL     1       0.157  -1.156  22.740  0.00  0.00    +0.156 HD
BRANCH  11  29
ATOM     29  C   UNL     1       1.993  -0.271  23.079  0.00  0.00    +0.035 A 
ATOM     30  C   UNL     1       2.772   0.861  22.840  0.00  0.00    +0.027 A 
ATOM     31  C   UNL     1       2.581  -1.427  23.595  0.00  0.00    +0.027 A 
ATOM     33  C   UNL     1       4.140   0.837  23.118  0.00  0.00    +0.047 A 
ATOM     34  C   UNL     1       3.947  -1.450  23.872  0.00  0.00    +0.047 A 
ATOM     35  C   UNL     1       4.727  -0.318  23.634  0.00  0.00    +0.120 A 
BRANCH  35   6
ATOM      6  O   UNL     1       6.059  -0.340  23.907  0.00  0.00    -0.495 OA
ATOM     36  C   UNL     1       6.947  -0.510  22.801  0.00  0.00    +0.277 C 
ENDBRANCH  35   6
ENDBRANCH  11  29
ENDBRANCH  13   8
BRANCH  17  19
ATOM     10  N   UNL     1      -1.123   4.538  25.323  0.00  0.00    -0.346 N 
ATOM     19  C   UNL     1      -2.488   4.522  25.203  0.00  0.00    +0.104 A 
ATOM     23  C   UNL     1      -2.912   5.821  25.033  0.00  0.00    +0.032 A 
ATOM     26  C   UNL     1      -0.669   5.828  25.233  0.00  0.00    +0.086 A 
ATOM     27  C   UNL     1      -1.762   6.648  25.053  0.00  0.00    +0.020 A 
ATOM     28  C   UNL     1      -0.276   3.382  25.517  0.00  0.00    +0.149 C 
ENDBRANCH  17  19
BRANCH  12  16
ATOM      1  O   UNL     1      -3.911   0.176  26.126  0.00  0.00    -0.274 OA
ATOM      9  N   UNL     1      -2.689  -0.640  24.320  0.00  0.00    -0.301 N 
ATOM     16  C   UNL     1      -3.571   0.225  24.947  0.00  0.00    +0.234 C 
ATOM     38  H   UNL     1      -2.491  -0.513  23.331  0.00  0.00    +0.150 HD
BRANCH   9  18
ATOM     18  C   UNL     1      -2.041  -1.736  24.997  0.00  0.00    +0.184 C 
BRANCH  18  20
ATOM     20  C   UNL     1      -0.575  -1.419  25.366  0.00  0.00    +0.014 C 
ATOM     24  C   UNL     1      -0.492  -0.277  26.381  0.00  0.00    +0.009 C 
ATOM     25  C   UNL     1       0.194  -2.638  25.887  0.00  0.00    +0.009 C 
ENDBRANCH  18  20
BRANCH  18  22
ATOM      5  O   UNL     1      -1.224  -3.451  23.499  0.00  0.00    -0.249 OA
ATOM     22  C   UNL     1      -2.142  -3.030  24.195  0.00  0.00    +0.328 C 
BRANCH  22   4
ATOM      4  O   UNL     1      -3.353  -3.636  24.347  0.00  0.00    -0.467 OA
ATOM     32  C   UNL     1      -4.467  -2.957  23.756  0.00  0.00    +0.280 C 
ENDBRANCH  22   4
ENDBRANCH  18  22
ENDBRANCH   9  18
ENDBRANCH  12  16
TORSDOF 9
ENDMDL
MODEL 3
REMARK VINA RESULT:      10.3      3.049      4.740
REMARK  Name = 7127963
REMARK  14 active torsions:
REMARK  status: ('A' for Active; 'I' for Inactive)
REMARK    1  A    between atoms: O_4  and  C_22
REMARK    2  A    between atoms: O_4  and  C_32
REMARK    3  A    between atoms: O_6  and  C_35
REMARK    4  A    between atoms: O_6  and  C_36
REMARK    5  A    between atoms: N_8  and  C_13
REMARK    6  A    between atoms: N_9  and  C_18
REMARK    7  A    between atoms: N_10  and  C_28
REMARK    8  A    between atoms: N_11  and  C_29
REMARK    9  A    between atoms: C_12  and  C_16
REMARK   10  A    between atoms: C_17  and  C_19
REMARK   11  A    between atoms: C_18  and  C_20
REMARK   12  A    between atoms: C_18  and  C_22
REMARK   13  A    between atoms: C_20  and  C_24
REMARK   14  A    between atoms: C_20  and  C_25
REMARK                            x       y       z     vdW  Elec       q    Type
REMARK                         _______ _______ _______ _____ _____    ______ ____
ROOT
ATOM      2  O   UNL     1      -3.760   2.597  26.034  0.00  0.00    -0.268 OA
ATOM      7  N   UNL     1      -2.987   2.217  23.894  0.00  0.00    -0.283 N 
ATOM     12  C   UNL     1      -3.789   1.022  23.671  0.00  0.00    +0.164 C 
ATOM     13  C   UNL     1      -2.335   1.367  21.769  0.00  0.00    +0.094 C 
ATOM     14  C   UNL     1      -3.667   0.732  22.176  0.00  0.00    +0.056 C 
ATOM     15  C   UNL     1      -2.211   2.567  22.702  0.00  0.00    +0.131 C 
ATOM     17  C   UNL     1      -3.083   2.963  25.072  0.00  0.00    +0.264 C 
ENDROOT
BRANCH  13   8
ATOM      3  O   UNL     1       0.283   2.006  22.741  0.00  0.00    -0.253 OA
ATOM      8  N   UNL     1      -1.226   0.460  21.917  0.00  0.00    -0.295 N 
ATOM     11  N   UNL     1       0.903  -0.237  22.435  0.00  0.00    -0.269 N 
ATOM     21  C   UNL     1       0.028   0.852  22.402  0.00  0.00    +0.304 C 
ATOM     37  H   UNL     1      -1.341  -0.500  21.604  0.00  0.00    +0.151 HD
ATOM     39  H   UNL     1       0.531  -1.130  22.124  0.00  0.00    +0.156 HD
BRANCH  11  29
ATOM     29  C   UNL     1       2.252  -0.255  22.859  0.00  0.00    +0.035 A 
ATOM     30  C   UNL     1       2.763  -1.378  23.512  0.00  0.00    +0.027 A 
ATOM     31  C   UNL     1       3.072   0.848  22.623  0.00  0.00    +0.027 A 
ATOM     33  C   UNL     1       4.095  -1.396  23.928  0.00  0.00    +0.047 A 
ATOM     34  C   UNL     1       4.403   0.829  23.039  0.00  0.00    +0.047 A 
ATOM     35  C   UNL     1       4.914  -0.293  23.692  0.00  0.00    +0.120 A 
BRANCH  35   6
ATOM      6  O   UNL     1       6.213  -0.312  24.096  0.00  0.00    -0.495 OA
ATOM     36  C   UNL     1       7.210  -0.393  23.078  0.00  0.00    +0.277 C 
ENDBRANCH  35   6
ENDBRANCH  11  29
ENDBRANCH  13   8
BRANCH  17  19
ATOM     10  N   UNL     1      -0.958   4.259  25.345  0.00  0.00    -0.346 N 
ATOM     19  C   UNL     1      -2.309   4.196  25.125  0.00  0.00    +0.104 A 
ATOM     23  C   UNL     1      -2.771   5.485  24.970  0.00  0.00    +0.032 A 
ATOM     26  C   UNL     1      -0.550   5.567  25.333  0.00  0.00    +0.086 A 
ATOM     27  C   UNL     1      -1.659   6.352  25.102  0.00  0.00    +0.020 A 
ATOM     28  C   UNL     1      -0.081   3.128  25.559  0.00  0.00    +0.149 C 
ENDBRANCH  17  19
BRANCH  12  16
ATOM      1  O   UNL     1      -3.466  -0.202  25.695  0.00  0.00    -0.274 OA
ATOM      9  N   UNL     1      -2.429  -0.951  23.750  0.00  0.00    -0.301 N 
ATOM     16  C   UNL     1      -3.229  -0.099  24.494  0.00  0.00    +0.234 C 
ATOM     38  H   UNL     1      -2.314  -0.778  22.755  0.00  0.00    +0.150 HD
BRANCH   9  18
ATOM     18  C   UNL     1      -1.754  -2.094  24.312  0.00  0.00    +0.184 C 
BRANCH  18  20
ATOM     20  C   UNL     1      -2.727  -3.069  25.012  0.00  0.00    +0.014 C 
ATOM     24  C   UNL     1      -3.076  -2.587  26.423  0.00  0.00    +0.009 C 
ATOM     25  C   UNL     1      -4.011  -3.318  24.213  0.00  0.00    +0.009 C 
ENDBRANCH  18  20
BRANCH  18  22
ATOM      5  O   UNL     1       0.116  -2.487  25.795  0.00  0.00    -0.249 OA
ATOM     22  C   UNL     1      -0.623  -1.677  25.246  0.00  0.00    +0.328 C 
BRANCH  22   4
ATOM      4  O   UNL     1      -0.546  -0.323  25.389  0.00  0.00    -0.467 OA
ATOM     32  C   UNL     1      -0.610   0.165  26.733  0.00  0.00    +0.280 C 
ENDBRANCH  22   4
ENDBRANCH  18  22
ENDBRANCH   9  18
ENDBRANCH  12  16
TORSDOF 9
ENDMDL
MODEL 4
REMARK VINA RESULT:      10.6      2.913      4.451
REMARK  Name = 7127963
REMARK  14 active torsions:
REMARK  status: ('A' for Active; 'I' for Inactive)
REMARK    1  A    between atoms: O_4  and  C_22
REMARK    2  A    between atoms: O_4  and  C_32
REMARK    3  A    between atoms: O_6  and  C_35
REMARK    4  A    between atoms: O_6  and  C_36
REMARK    5  A    between atoms: N_8  and  C_13
REMARK    6  A    between atoms: N_9  and  C_18
REMARK    7  A    between atoms: N_10  and  C_28
REMARK    8  A    between atoms: N_11  and  C_29
REMARK    9  A    between atoms: C_12  and  C_16
REMARK   10  A    between atoms: C_17  and  C_19
REMARK   11  A    between atoms: C_18  and  C_20
REMARK   12  A    between atoms: C_18  and  C_22
REMARK   13  A    between atoms: C_20  and  C_24
REMARK   14  A    between atoms: C_20  and  C_25
REMARK                            x       y       z     vdW  Elec       q    Type
REMARK                         _______ _______ _______ _____ _____    ______ ____
ROOT
ATOM      2  O   UNL     1      -5.706   1.058  25.727  0.00  0.00    -0.268 OA
ATOM      7  N   UNL     1      -4.209   1.714  24.099  0.00  0.00    -0.283 N 
ATOM     12  C   UNL     1      -3.878   0.363  23.668  0.00  0.00    +0.164 C 
ATOM     13  C   UNL     1      -2.488   1.940  22.472  0.00  0.00    +0.094 C 
ATOM     14  C   UNL     1      -3.096   0.539  22.367  0.00  0.00    +0.056 C 
ATOM     15  C   UNL     1      -3.517   2.717  23.286  0.00  0.00    +0.131 C 
ATOM     17  C   UNL     1      -5.168   1.961  25.085  0.00  0.00    +0.264 C 
ENDROOT
BRANCH  13   8
ATOM      3  O   UNL     1      -0.226   0.337  21.747  0.00  0.00    -0.253 OA
ATOM      8  N   UNL     1      -1.197   1.932  23.111  0.00  0.00    -0.295 N 
ATOM     11  N   UNL     1       0.985   1.323  23.500  0.00  0.00    -0.269 N 
ATOM     21  C   UNL     1      -0.138   1.115  22.695  0.00  0.00    +0.304 C 
ATOM     37  H   UNL     1      -1.064   2.507  23.939  0.00  0.00    +0.151 HD
ATOM     39  H   UNL     1       0.894   2.011  24.242  0.00  0.00    +0.156 HD
BRANCH  11  29
ATOM     29  C   UNL     1       2.249   0.695  23.405  0.00  0.00    +0.035 A 
ATOM     30  C   UNL     1       2.374  -0.667  23.681  0.00  0.00    +0.027 A 
ATOM     31  C   UNL     1       3.371   1.437  23.034  0.00  0.00    +0.027 A 
ATOM     33  C   UNL     1       3.621  -1.287  23.586  0.00  0.00    +0.047 A 
ATOM     34  C   UNL     1       4.617   0.818  22.939  0.00  0.00    +0.047 A 
ATOM     35  C   UNL     1       4.742  -0.544  23.215  0.00  0.00    +0.120 A 
BRANCH  35   6
ATOM      6  O   UNL     1       5.956  -1.149  23.119  0.00  0.00    -0.495 OA
ATOM     36  C   UNL     1       7.107  -0.304  23.138  0.00  0.00    +0.277 C 
ENDBRANCH  35   6
ENDBRANCH  11  29
ENDBRANCH  13   8
BRANCH  17  19
ATOM     10  N   UNL     1      -4.614   4.267  25.889  0.00  0.00    -0.346 N 
ATOM     19  C   UNL     1      -5.485   3.359  25.347  0.00  0.00    +0.104 A 
ATOM     23  C   UNL     1      -6.677   4.008  25.108  0.00  0.00    +0.032 A 
ATOM     26  C   UNL     1      -5.230   5.486  26.000  0.00  0.00    +0.086 A 
ATOM     27  C   UNL     1      -6.516   5.354  25.522  0.00  0.00    +0.020 A 
ATOM     28  C   UNL     1      -3.251   3.998  26.289  0.00  0.00    +0.149 C 
ENDBRANCH  17  19
BRANCH  12  16
ATOM      1  O   UNL     1      -3.539  -0.751  25.752  0.00  0.00    -0.274 OA
ATOM      9  N   UNL     1      -1.694  -0.293  24.408  0.00  0.00    -0.301 N 
ATOM     16  C   UNL     1      -3.043  -0.294  24.725  0.00  0.00    +0.234 C 
ATOM     38  H   UNL     1      -1.396   0.101  23.520  0.00  0.00    +0.150 HD
BRANCH   9  18
ATOM     18  C   UNL     1      -0.679  -0.845  25.270  0.00  0.00    +0.184 C 
BRANCH  18  20
ATOM     20  C   UNL     1      -0.858  -2.362  25.498  0.00  0.00    +0.014 C 
ATOM     24  C   UNL     1      -1.731  -2.988  24.408  0.00  0.00    +0.009 C 
ATOM     25  C   UNL     1       0.471  -3.119  25.601  0.00  0.00    +0.009 C 
ENDBRANCH  18  20
BRANCH  18  22
ATOM      5  O   UNL     1      -0.385  -0.655  27.664  0.00  0.00    -0.249 OA
ATOM     22  C   UNL     1      -0.597  -0.092  26.594  0.00  0.00    +0.328 C 
BRANCH  22   4
ATOM      4  O   UNL     1      -0.787   1.248  26.438  0.00  0.00    -0.467 OA
ATOM     32  C   UNL     1       0.296   2.084  26.860  0.00  0.00    +0.280 C 
ENDBRANCH  22   4
ENDBRANCH  18  22
ENDBRANCH   9  18
ENDBRANCH  12  16
TORSDOF 9
ENDMDL
MODEL 5
REMARK VINA RESULT:      11.0      3.019      5.696
REMARK  Name = 7127963
REMARK  14 active torsions:
REMARK  status: ('A' for Active; 'I' for Inactive)
REMARK    1  A    between atoms: O_4  and  C_22
REMARK    2  A    between atoms: O_4  and  C_32
REMARK    3  A    between atoms: O_6  and  C_35
REMARK    4  A    between atoms: O_6  and  C_36
REMARK    5  A    between atoms: N_8  and  C_13
REMARK    6  A    between atoms: N_9  and  C_18
REMARK    7  A    between atoms: N_10  and  C_28
REMARK    8  A    between atoms: N_11  and  C_29
REMARK    9  A    between atoms: C_12  and  C_16
REMARK   10  A    between atoms: C_17  and  C_19
REMARK   11  A    between atoms: C_18  and  C_20
REMARK   12  A    between atoms: C_18  and  C_22
REMARK   13  A    between atoms: C_20  and  C_24
REMARK   14  A    between atoms: C_20  and  C_25
REMARK                            x       y       z     vdW  Elec       q    Type
REMARK                         _______ _______ _______ _____ _____    ______ ____
ROOT
ATOM      2  O   UNL     1      -4.284   0.673  27.117  0.00  0.00    -0.268 OA
ATOM      7  N   UNL     1      -3.664  -0.583  25.284  0.00  0.00    -0.283 N 
ATOM     12  C   UNL     1      -2.649  -1.355  25.988  0.00  0.00    +0.164 C 
ATOM     13  C   UNL     1      -2.608  -1.943  23.641  0.00  0.00    +0.094 C 
ATOM     14  C   UNL     1      -2.276  -2.488  25.033  0.00  0.00    +0.056 C 
ATOM     15  C   UNL     1      -3.797  -1.021  23.893  0.00  0.00    +0.131 C 
ATOM     17  C   UNL     1      -4.463   0.357  25.940  0.00  0.00    +0.264 C 
ENDROOT
BRANCH  13   8
ATOM      3  O   UNL     1       0.108  -1.945  24.551  0.00  0.00    -0.253 OA
ATOM      8  N   UNL     1      -1.501  -1.236  23.049  0.00  0.00    -0.295 N 
ATOM     11  N   UNL     1       0.662  -0.507  22.780  0.00  0.00    -0.269 N 
ATOM     21  C   UNL     1      -0.197  -1.289  23.557  0.00  0.00    +0.304 C 
ATOM     37  H   UNL     1      -1.684  -0.627  22.258  0.00  0.00    +0.151 HD
ATOM     39  H   UNL     1       0.250  -0.032  21.982  0.00  0.00    +0.156 HD
BRANCH  11  29
ATOM     29  C   UNL     1       2.049  -0.300  22.960  0.00  0.00    +0.035 A 
ATOM     30  C   UNL     1       2.622   0.926  22.621  0.00  0.00    +0.027 A 
ATOM     31  C   UNL     1       2.846  -1.322  23.480  0.00  0.00    +0.027 A 
ATOM     33  C   UNL     1       3.990   1.131  22.801  0.00  0.00    +0.047 A 
ATOM     34  C   UNL     1       4.214  -1.117  23.659  0.00  0.00    +0.047 A 
ATOM     35  C   UNL     1       4.786   0.110  23.320  0.00  0.00    +0.120 A 
BRANCH  35   6
ATOM      6  O   UNL     1       6.119   0.310  23.497  0.00  0.00    -0.495 OA
ATOM     36  C   UNL     1       7.005  -0.639  22.903  0.00  0.00    +0.277 C 
ENDBRANCH  35   6
ENDBRANCH  11  29
ENDBRANCH  13   8
BRANCH  17  19
ATOM     10  N   UNL     1      -5.713   2.334  25.046  0.00  0.00    -0.346 N 
ATOM     19  C   UNL     1      -5.514   0.982  25.147  0.00  0.00    +0.104 A 
ATOM     23  C   UNL     1      -6.470   0.356  24.379  0.00  0.00    +0.032 A 
ATOM     26  C   UNL     1      -6.782   2.581  24.224  0.00  0.00    +0.086 A 
ATOM     27  C   UNL     1      -7.273   1.367  23.795  0.00  0.00    +0.020 A 
ATOM     28  C   UNL     1      -4.927   3.358  25.698  0.00  0.00    +0.149 C 
ENDBRANCH  17  19
BRANCH  12  16
ATOM      1  O   UNL     1      -0.683  -0.712  27.180  0.00  0.00    -0.274 OA
ATOM      9  N   UNL     1      -1.418   0.623  25.419  0.00  0.00    -0.301 N 
ATOM     16  C   UNL     1      -1.473  -0.469  26.271  0.00  0.00    +0.234 C 
ATOM     38  H   UNL     1      -2.120   0.717  24.690  0.00  0.00    +0.150 HD
BRANCH   9  18
ATOM     18  C   UNL     1      -0.396   1.637  25.499  0.00  0.00    +0.184 C 
BRANCH  18  20
ATOM     20  C   UNL     1      -0.599   2.586  26.701  0.00  0.00    +0.014 C 
ATOM     24  C   UNL     1       0.732   2.908  27.385  0.00  0.00    +0.009 C 
ATOM     25  C   UNL     1      -1.323   3.885  26.330  0.00  0.00    +0.009 C 
ENDBRANCH  18  20
BRANCH  18  22
ATOM      5  O   UNL     1       0.458   3.392  24.070  0.00  0.00    -0.249 OA
ATOM     22  C   UNL     1      -0.276   2.417  24.193  0.00  0.00    +0.328 C 
BRANCH  22   4
ATOM      4  O   UNL     1      -1.070   1.904  23.212  0.00  0.00    -0.467 OA
ATOM     32  C   UNL     1      -2.390   2.454  23.129  0.00  0.00    +0.280 C 
ENDBRANCH  22   4
ENDBRANCH  18  22
ENDBRANCH   9  18
ENDBRANCH  12  16
TORSDOF 9
ENDMDL
MODEL 6
REMARK VINA RESULT:      11.1      2.910      4.843
REMARK  Name = 7127963
REMARK  14 active torsions:
REMARK  status: ('A' for Active; 'I' for Inactive)
REMARK    1  A    between atoms: O_4  and  C_22
REMARK    2  A    between atoms: O_4  and  C_32
REMARK    3  A    between atoms: O_6  and  C_35
REMARK    4  A    between atoms: O_6  and  C_36
REMARK    5  A    between atoms: N_8  and  C_13
REMARK    6  A    between atoms: N_9  and  C_18
REMARK    7  A    between atoms: N_10  and  C_28
REMARK    8  A    between atoms: N_11  and  C_29
REMARK    9  A    between atoms: C_12  and  C_16
REMARK   10  A    between atoms: C_17  and  C_19
REMARK   11  A    between atoms: C_18  and  C_20
REMARK   12  A    between atoms: C_18  and  C_22
REMARK   13  A    between atoms: C_20  and  C_24
REMARK   14  A    between atoms: C_20  and  C_25
REMARK                            x       y       z     vdW  Elec       q    Type
REMARK                         _______ _______ _______ _____ _____    ______ ____
ROOT
ATOM      2  O   UNL     1      -5.688   1.208  26.145  0.00  0.00    -0.268 OA
ATOM      7  N   UNL     1      -4.296   1.634  24.355  0.00  0.00    -0.283 N 
ATOM     12  C   UNL     1      -3.963   0.238  24.109  0.00  0.00    +0.164 C 
ATOM     13  C   UNL     1      -2.671   1.638  22.617  0.00  0.00    +0.094 C 
ATOM     14  C   UNL     1      -3.257   0.230  22.754  0.00  0.00    +0.056 C 
ATOM     15  C   UNL     1      -3.669   2.514  23.366  0.00  0.00    +0.131 C 
ATOM     17  C   UNL     1      -5.204   2.013  25.348  0.00  0.00    +0.264 C 
ENDROOT
BRANCH  13   8
ATOM      3  O   UNL     1      -0.363   0.131  21.838  0.00  0.00    -0.253 OA
ATOM      8  N   UNL     1      -1.347   1.740  23.176  0.00  0.00    -0.295 N 
ATOM     11  N   UNL     1       0.887   1.279  23.461  0.00  0.00    -0.269 N 
ATOM     21  C   UNL     1      -0.267   0.964  22.738  0.00  0.00    +0.304 C 
ATOM     37  H   UNL     1      -1.202   2.365  23.963  0.00  0.00    +0.151 HD
ATOM     39  H   UNL     1       0.797   2.000  24.171  0.00  0.00    +0.156 HD
BRANCH  11  29
ATOM     29  C   UNL     1       2.178   0.721  23.321  0.00  0.00    +0.035 A 
ATOM     30  C   UNL     1       3.244   1.523  22.910  0.00  0.00    +0.027 A 
ATOM     31  C   UNL     1       2.388  -0.631  23.596  0.00  0.00    +0.027 A 
ATOM     33  C   UNL     1       4.519   0.972  22.774  0.00  0.00    +0.047 A 
ATOM     34  C   UNL     1       3.663  -1.181  23.460  0.00  0.00    +0.047 A 
ATOM     35  C   UNL     1       4.728  -0.379  23.049  0.00  0.00    +0.120 A 
BRANCH  35   6
ATOM      6  O   UNL     1       5.972  -0.915  22.918  0.00  0.00    -0.495 OA
ATOM     36  C   UNL     1       7.055  -0.196  23.509  0.00  0.00    +0.277 C 
ENDBRANCH  35   6
ENDBRANCH  11  29
ENDBRANCH  13   8
BRANCH  17  19
ATOM     10  N   UNL     1      -4.689   4.404  25.882  0.00  0.00    -0.346 N 
ATOM     19  C   UNL     1      -5.534   3.430  25.420  0.00  0.00    +0.104 A 
ATOM     23  C   UNL     1      -6.715   4.037  25.051  0.00  0.00    +0.032 A 
ATOM     26  C   UNL     1      -5.311   5.624  25.815  0.00  0.00    +0.086 A 
ATOM     27  C   UNL     1      -6.574   5.425  25.301  0.00  0.00    +0.020 A 
ATOM     28  C   UNL     1      -3.344   4.196  26.371  0.00  0.00    +0.149 C 
ENDBRANCH  17  19
BRANCH  12  16
ATOM      1  O   UNL     1      -3.247  -1.317  25.771  0.00  0.00    -0.274 OA
ATOM      9  N   UNL     1      -2.040   0.652  25.480  0.00  0.00    -0.301 N 
ATOM     16  C   UNL     1      -3.058  -0.246  25.201  0.00  0.00    +0.234 C 
ATOM     38  H   UNL     1      -1.971   1.506  24.932  0.00  0.00    +0.150 HD
BRANCH   9  18
ATOM     18  C   UNL     1      -1.049   0.432  26.504  0.00  0.00    +0.184 C 
BRANCH  18  20
ATOM     20  C   UNL     1      -0.021   1.582  26.588  0.00  0.00    +0.014 C 
ATOM     24  C   UNL     1      -0.527   2.833  25.867  0.00  0.00    +0.009 C 
ATOM     25  C   UNL     1       0.377   1.932  28.026  0.00  0.00    +0.009 C 
ENDBRANCH  18  20
BRANCH  18  22
ATOM      5  O   UNL     1      -0.024  -1.614  27.289  0.00  0.00    -0.249 OA
ATOM     22  C   UNL     1      -0.358  -0.917  26.336  0.00  0.00    +0.328 C 
BRANCH  22   4
ATOM      4  O   UNL     1      -0.162  -1.236  25.025  0.00  0.00    -0.467 OA
ATOM     32  C   UNL     1      -0.651  -2.518  24.618  0.00  0.00    +0.280 C 
ENDBRANCH  22   4
ENDBRANCH  18  22
ENDBRANCH   9  18
ENDBRANCH  12  16
TORSDOF 9
ENDMDL
MODEL 7
REMARK VINA RESULT:      11.7      3.113      6.646
REMARK  Name = 7127963
REMARK  14 active torsions:
REMARK  status: ('A' for Active; 'I' for Inactive)
REMARK    1  A    between atoms: O_4  and  C_22
REMARK    2  A    between atoms: O_4  and  C_32
REMARK    3  A    between atoms: O_6  and  C_35
REMARK    4  A    between atoms: O_6  and  C_36
REMARK    5  A    between atoms: N_8  and  C_13
REMARK    6  A    between atoms: N_9  and  C_18
REMARK    7  A    between atoms: N_10  and  C_28
REMARK    8  A    between atoms: N_11  and  C_29
REMARK    9  A    between atoms: C_12  and  C_16
REMARK   10  A    between atoms: C_17  and  C_19
REMARK   11  A    between atoms: C_18  and  C_20
REMARK   12  A    between atoms: C_18  and  C_22
REMARK   13  A    between atoms: C_20  and  C_24
REMARK   14  A    between atoms: C_20  and  C_25
REMARK                            x       y       z     vdW  Elec       q    Type
REMARK                         _______ _______ _______ _____ _____    ______ ____
ROOT
ATOM      2  O   UNL     1       1.350  -0.766  21.459  0.00  0.00    -0.268 OA
ATOM      7  N   UNL     1       0.765  -1.226  23.643  0.00  0.00    -0.283 N 
ATOM     12  C   UNL     1      -0.597  -1.637  23.333  0.00  0.00    +0.164 C 
ATOM     13  C   UNL     1      -0.294  -1.639  25.733  0.00  0.00    +0.094 C 
ATOM     14  C   UNL     1      -1.121  -2.280  24.616  0.00  0.00    +0.056 C 
ATOM     15  C   UNL     1       1.054  -1.372  25.071  0.00  0.00    +0.131 C 
ATOM     17  C   UNL     1       1.674  -0.867  22.643  0.00  0.00    +0.264 C 
ENDROOT
BRANCH  13   8
ATOM      3  O   UNL     1      -0.222   0.944  24.497  0.00  0.00    -0.253 OA
ATOM      8  N   UNL     1      -0.891  -0.427  26.234  0.00  0.00    -0.295 N 
ATOM     11  N   UNL     1      -1.481   1.794  26.287  0.00  0.00    -0.269 N 
ATOM     21  C   UNL     1      -0.811   0.801  25.567  0.00  0.00    +0.304 C 
ATOM     37  H   UNL     1      -1.347  -0.452  27.142  0.00  0.00    +0.151 HD
ATOM     39  H   UNL     1      -1.924   1.506  27.155  0.00  0.00    +0.156 HD
BRANCH  11  29
ATOM     29  C   UNL     1      -1.630   3.159  25.952  0.00  0.00    +0.035 A 
ATOM     30  C   UNL     1      -0.640   3.808  25.213  0.00  0.00    +0.027 A 
ATOM     31  C   UNL     1      -2.767   3.858  26.358  0.00  0.00    +0.027 A 
ATOM     33  C   UNL     1      -0.788   5.155  24.880  0.00  0.00    +0.047 A 
ATOM     34  C   UNL     1      -2.915   5.204  26.026  0.00  0.00    +0.047 A 
ATOM     35  C   UNL     1      -1.925   5.853  25.287  0.00  0.00    +0.120 A 
BRANCH  35   6
ATOM      6  O   UNL     1      -2.070   7.166  24.960  0.00  0.00    -0.495 OA
ATOM     36  C   UNL     1      -2.474   7.463  23.624  0.00  0.00    +0.277 C 
ENDBRANCH  35   6
ENDBRANCH  11  29
ENDBRANCH  13   8
BRANCH  17  19
ATOM     10  N   UNL     1       3.608   0.663  23.077  0.00  0.00    -0.346 N 
ATOM     19  C   UNL     1       3.036  -0.582  23.075  0.00  0.00    +0.104 A 
ATOM     23  C   UNL     1       3.972  -1.478  23.546  0.00  0.00    +0.032 A 
ATOM     26  C   UNL     1       4.895   0.577  23.542  0.00  0.00    +0.086 A 
ATOM     27  C   UNL     1       5.148  -0.745  23.840  0.00  0.00    +0.020 A 
ATOM     28  C   UNL     1       2.968   1.890  22.657  0.00  0.00    +0.149 C 
ENDBRANCH  17  19
BRANCH  12  16
ATOM      1  O   UNL     1      -0.937   0.461  22.246  0.00  0.00    -0.274 OA
ATOM      9  N   UNL     1      -2.662  -0.434  23.529  0.00  0.00    -0.301 N 
ATOM     16  C   UNL     1      -1.398  -0.425  22.961  0.00  0.00    +0.234 C 
ATOM     38  H   UNL     1      -2.944  -1.229  24.095  0.00  0.00    +0.150 HD
BRANCH   9  18
ATOM     18  C   UNL     1      -3.619   0.629  23.344  0.00  0.00    +0.184 C 
BRANCH  18  20
ATOM     20  C   UNL     1      -2.960   1.938  22.856  0.00  0.00    +0.014 C 
ATOM     24  C   UNL     1      -2.779   1.936  21.336  0.00  0.00    +0.009 C 
ATOM     25  C   UNL     1      -3.723   3.196  23.288  0.00  0.00    +0.009 C 
ENDBRANCH  18  20
BRANCH  18  22
ATOM      5  O   UNL     1      -4.158   0.372  25.688  0.00  0.00    -0.249 OA
ATOM     22  C   UNL     1      -4.449   0.863  24.602  0.00  0.00    +0.328 C 
BRANCH  22   4
ATOM      4  O   UNL     1      -5.526   1.664  24.367  0.00  0.00    -0.467 OA
ATOM     32  C   UNL     1      -6.216   2.136  25.530  0.00  0.00    +0.280 C 
ENDBRANCH  22   4
ENDBRANCH  18  22
ENDBRANCH   9  18
ENDBRANCH  12  16
TORSDOF 9
ENDMDL
MODEL 8
REMARK VINA RESULT:      12.0      3.142      7.384
REMARK  Name = 7127963
REMARK  14 active torsions:
REMARK  status: ('A' for Active; 'I' for Inactive)
REMARK    1  A    between atoms: O_4  and  C_22
REMARK    2  A    between atoms: O_4  and  C_32
REMARK    3  A    between atoms: O_6  and  C_35
REMARK    4  A    between atoms: O_6  and  C_36
REMARK    5  A    between atoms: N_8  and  C_13
REMARK    6  A    between atoms: N_9  and  C_18
REMARK    7  A    between atoms: N_10  and  C_28
REMARK    8  A    between atoms: N_11  and  C_29
REMARK    9  A    between atoms: C_12  and  C_16
REMARK   10  A    between atoms: C_17  and  C_19
REMARK   11  A    between atoms: C_18  and  C_20
REMARK   12  A    between atoms: C_18  and  C_22
REMARK   13  A    between atoms: C_20  and  C_24
REMARK   14  A    between atoms: C_20  and  C_25
REMARK                            x       y       z     vdW  Elec       q    Type
REMARK                         _______ _______ _______ _____ _____    ______ ____
ROOT
ATOM      2  O   UNL     1       1.966  -0.230  21.323  0.00  0.00    -0.268 OA
ATOM      7  N   UNL     1       1.060  -1.003  23.299  0.00  0.00    -0.283 N 
ATOM     12  C   UNL     1      -0.271  -1.235  22.755  0.00  0.00    +0.164 C 
ATOM     13  C   UNL     1      -0.299  -1.672  25.134  0.00  0.00    +0.094 C 
ATOM     14  C   UNL     1      -1.005  -2.040  23.826  0.00  0.00    +0.056 C 
ATOM     15  C   UNL     1       1.141  -1.415  24.702  0.00  0.00    +0.131 C 
ATOM     17  C   UNL     1       2.118  -0.559  22.500  0.00  0.00    +0.264 C 
ENDROOT
BRANCH  13   8
ATOM      3  O   UNL     1      -2.750  -0.376  24.412  0.00  0.00    -0.253 OA
ATOM      8  N   UNL     1      -0.881  -0.517  25.767  0.00  0.00    -0.295 N 
ATOM     11  N   UNL     1      -2.403   1.164  26.150  0.00  0.00    -0.269 N 
ATOM     21  C   UNL     1      -2.089   0.060  25.352  0.00  0.00    +0.304 C 
ATOM     37  H   UNL     1      -0.365  -0.064  26.516  0.00  0.00    +0.151 HD
ATOM     39  H   UNL     1      -1.749   1.389  26.895  0.00  0.00    +0.156 HD
BRANCH  11  29
ATOM     29  C   UNL     1      -3.531   2.010  26.055  0.00  0.00    +0.035 A 
ATOM     30  C   UNL     1      -3.411   3.369  26.349  0.00  0.00    +0.027 A 
ATOM     31  C   UNL     1      -4.765   1.487  25.665  0.00  0.00    +0.027 A 
ATOM     33  C   UNL     1      -4.525   4.204  26.254  0.00  0.00    +0.047 A 
ATOM     34  C   UNL     1      -5.878   2.323  25.570  0.00  0.00    +0.047 A 
ATOM     35  C   UNL     1      -5.758   3.681  25.864  0.00  0.00    +0.120 A 
BRANCH  35   6
ATOM      6  O   UNL     1      -6.843   4.496  25.769  0.00  0.00    -0.495 OA
ATOM     36  C   UNL     1      -6.612   5.840  25.346  0.00  0.00    +0.277 C 
ENDBRANCH  35   6
ENDBRANCH  11  29
ENDBRANCH  13   8
BRANCH  17  19
ATOM     10  N   UNL     1       4.206   0.653  23.165  0.00  0.00    -0.346 N 
ATOM     19  C   UNL     1       3.424  -0.472  23.141  0.00  0.00    +0.104 A 
ATOM     23  C   UNL     1       4.093  -1.466  23.820  0.00  0.00    +0.032 A 
ATOM     26  C   UNL     1       5.365   0.392  23.848  0.00  0.00    +0.086 A 
ATOM     27  C   UNL     1       5.322  -0.920  24.267  0.00  0.00    +0.020 A 
ATOM     28  C   UNL     1       3.876   1.927  22.565  0.00  0.00    +0.149 C 
ENDBRANCH  17  19
BRANCH  12  16
ATOM      1  O   UNL     1      -1.906   0.196  21.769  0.00  0.00    -0.274 OA
ATOM      9  N   UNL     1      -0.312   1.122  23.190  0.00  0.00    -0.301 N 
ATOM     16  C   UNL     1      -0.934   0.087  22.511  0.00  0.00    +0.234 C 
ATOM     38  H   UNL     1       0.481   0.913  23.791  0.00  0.00    +0.150 HD
BRANCH   9  18
ATOM     18  C   UNL     1      -0.743   2.495  23.105  0.00  0.00    +0.184 C 
BRANCH  18  20
ATOM     20  C   UNL     1      -0.722   3.207  24.476  0.00  0.00    +0.014 C 
ATOM     24  C   UNL     1       0.367   2.631  25.384  0.00  0.00    +0.009 C 
ATOM     25  C   UNL     1      -0.560   4.727  24.366  0.00  0.00    +0.009 C 
ENDBRANCH  18  20
BRANCH  18  22
ATOM      5  O   UNL     1      -2.275   2.481  21.233  0.00  0.00    -0.249 OA
ATOM     22  C   UNL     1      -2.111   2.615  22.441  0.00  0.00    +0.328 C 
BRANCH  22   4
ATOM      4  O   UNL     1      -3.099   2.885  23.341  0.00  0.00    -0.467 OA
ATOM     32  C   UNL     1      -4.059   3.867  22.935  0.00  0.00    +0.280 C 
ENDBRANCH  22   4
ENDBRANCH  18  22
ENDBRANCH   9  18
ENDBRANCH  12  16
TORSDOF 9
ENDMDL
