MODEL 1
REMARK VINA RESULT:      -5.6      0.000      0.000
REMARK  Name = 75368577
REMARK  3 active torsions:
REMARK  status: ('A' for Active; 'I' for Inactive)
REMARK    1  A    between atoms: N_3  and  C_13
REMARK    2  A    between atoms: N_4  and  C_14
REMARK    3  A    between atoms: C_13  and  C_15
REMARK                            x       y       z     vdW  Elec       q    Type
REMARK                         _______ _______ _______ _____ _____    ______ ____
ROOT
ATOM      1  O   UNL     1      -2.694 -10.690  15.799  0.00  0.00    -0.252 OA
ATOM      2  N   UNL     1      -3.647 -10.603  13.674  0.00  0.00    -0.278 N 
ATOM      3  N   UNL     1      -3.969  -9.908  10.966  0.00  0.00    -0.292 NA
ATOM      4  N   UNL     1      -5.057 -10.554  15.445  0.00  0.00    -0.254 N 
ATOM      7  C   UNL     1      -4.962 -10.669  13.086  0.00  0.00    +0.109 C 
ATOM      8  C   UNL     1      -5.078  -9.690  11.918  0.00  0.00    +0.109 C 
ATOM      9  C   UNL     1      -5.891 -10.384  14.259  0.00  0.00    +0.139 C 
ATOM     10  C   UNL     1      -2.484 -10.656  12.812  0.00  0.00    +0.125 C 
ATOM     11  C   UNL     1      -2.664  -9.705  11.625  0.00  0.00    +0.104 C 
ATOM     12  C   UNL     1      -3.680 -10.630  15.077  0.00  0.00    +0.309 C 
ENDROOT
BRANCH   4  14
ATOM     14  C   UNL     1      -5.596 -10.553  16.763  0.00  0.00    +0.038 A 
ATOM     16  C   UNL     1      -6.958 -10.323  16.959  0.00  0.00    +0.023 A 
ATOM     17  C   UNL     1      -4.763 -10.781  17.858  0.00  0.00    +0.023 A 
ATOM     18  C   UNL     1      -7.486 -10.322  18.250  0.00  0.00    +0.002 A 
ATOM     19  C   UNL     1      -5.291 -10.780  19.149  0.00  0.00    +0.002 A 
ATOM     21  C   UNL     1      -6.653 -10.550  19.345  0.00  0.00    +0.000 A 
ENDBRANCH   4  14
BRANCH   3  13
ATOM     13  C   UNL     1      -4.104  -9.015   9.815  0.00  0.00    +0.158 C 
BRANCH  13  15
ATOM      5  N   UNL     1      -6.238  -8.145   8.831  0.00  0.00    -0.347 N 
ATOM      6  N   UNL     1      -5.935 -10.342   8.694  0.00  0.00    -0.239 NA
ATOM     15  C   UNL     1      -5.421  -9.205   9.110  0.00  0.00    +0.121 A 
ATOM     20  C   UNL     1      -7.344  -8.638   8.197  0.00  0.00    +0.104 A 
ATOM     22  C   UNL     1      -7.134  -9.994   8.124  0.00  0.00    +0.130 A 
ATOM     23  H   UNL     1      -6.059  -7.175   9.052  0.00  0.00    +0.167 HD
ENDBRANCH  13  15
ENDBRANCH   3  13
TORSDOF 3
ENDMDL
MODEL 2
REMARK VINA RESULT:      -4.6      1.833      2.726
REMARK  Name = 75368577
REMARK  3 active torsions:
REMARK  status: ('A' for Active; 'I' for Inactive)
REMARK    1  A    between atoms: N_3  and  C_13
REMARK    2  A    between atoms: N_4  and  C_14
REMARK    3  A    between atoms: C_13  and  C_15
REMARK                            x       y       z     vdW  Elec       q    Type
REMARK                         _______ _______ _______ _____ _____    ______ ____
ROOT
ATOM      1  O   UNL     1      -5.468 -10.016  17.593  0.00  0.00    -0.252 OA
ATOM      2  N   UNL     1      -5.120 -10.527  15.346  0.00  0.00    -0.278 N 
ATOM      3  N   UNL     1      -3.856 -10.593  12.833  0.00  0.00    -0.292 NA
ATOM      4  N   UNL     1      -7.237 -10.039  15.982  0.00  0.00    -0.254 N 
ATOM      7  C   UNL     1      -5.914 -10.781  14.170  0.00  0.00    +0.109 C 
ATOM      8  C   UNL     1      -5.263 -10.155  12.937  0.00  0.00    +0.109 C 
ATOM      9  C   UNL     1      -7.280 -10.215  14.534  0.00  0.00    +0.139 C 
ATOM     10  C   UNL     1      -3.693 -10.780  15.304  0.00  0.00    +0.125 C 
ATOM     11  C   UNL     1      -3.091 -10.188  14.028  0.00  0.00    +0.104 C 
ATOM     12  C   UNL     1      -5.900 -10.177  16.460  0.00  0.00    +0.309 C 
ENDROOT
BRANCH   4  14
ATOM     14  C   UNL     1      -8.391  -9.697  16.744  0.00  0.00    +0.038 A 
ATOM     16  C   UNL     1      -9.048  -8.489  16.510  0.00  0.00    +0.023 A 
ATOM     17  C   UNL     1      -8.865 -10.569  17.724  0.00  0.00    +0.023 A 
ATOM     18  C   UNL     1     -10.177  -8.153  17.255  0.00  0.00    +0.002 A 
ATOM     19  C   UNL     1      -9.994 -10.235  18.470  0.00  0.00    +0.002 A 
ATOM     21  C   UNL     1     -10.651  -9.026  18.236  0.00  0.00    +0.000 A 
ENDBRANCH   4  14
BRANCH   3  13
ATOM     13  C   UNL     1      -3.241 -10.046  11.623  0.00  0.00    +0.158 C 
BRANCH  13  15
ATOM      5  N   UNL     1      -4.690  -8.566  10.213  0.00  0.00    -0.347 N 
ATOM      6  N   UNL     1      -4.824 -10.741   9.785  0.00  0.00    -0.239 NA
ATOM     15  C   UNL     1      -4.254  -9.821  10.532  0.00  0.00    +0.121 A 
ATOM     20  C   UNL     1      -5.595  -8.693   9.197  0.00  0.00    +0.104 A 
ATOM     22  C   UNL     1      -5.661 -10.043   8.950  0.00  0.00    +0.130 A 
ATOM     23  H   UNL     1      -4.397  -7.701  10.647  0.00  0.00    +0.167 HD
ENDBRANCH  13  15
ENDBRANCH   3  13
TORSDOF 3
ENDMDL
MODEL 3
REMARK VINA RESULT:      -2.7     16.019     17.231
REMARK  Name = 75368577
REMARK  3 active torsions:
REMARK  status: ('A' for Active; 'I' for Inactive)
REMARK    1  A    between atoms: N_3  and  C_13
REMARK    2  A    between atoms: N_4  and  C_14
REMARK    3  A    between atoms: C_13  and  C_15
REMARK                            x       y       z     vdW  Elec       q    Type
REMARK                         _______ _______ _______ _____ _____    ______ ____
ROOT
ATOM      1  O   UNL     1      -1.905   3.997  24.914  0.00  0.00    -0.252 OA
ATOM      2  N   UNL     1      -0.591   2.091  24.646  0.00  0.00    -0.278 N 
ATOM      3  N   UNL     1       1.464   0.433  23.674  0.00  0.00    -0.292 NA
ATOM      4  N   UNL     1      -2.823   1.787  24.875  0.00  0.00    -0.254 N 
ATOM      7  C   UNL     1      -0.751   0.660  24.722  0.00  0.00    +0.109 C 
ATOM      8  C   UNL     1       0.063  -0.030  23.628  0.00  0.00    +0.109 C 
ATOM      9  C   UNL     1      -2.258   0.465  24.622  0.00  0.00    +0.139 C 
ATOM     10  C   UNL     1       0.743   2.648  24.536  0.00  0.00    +0.125 C 
ATOM     11  C   UNL     1       1.542   1.893  23.472  0.00  0.00    +0.104 C 
ATOM     12  C   UNL     1      -1.799   2.781  24.831  0.00  0.00    +0.309 C 
ENDROOT
BRANCH   4  14
ATOM     14  C   UNL     1      -4.220   2.000  25.051  0.00  0.00    +0.038 A 
ATOM     16  C   UNL     1      -4.681   3.208  25.576  0.00  0.00    +0.023 A 
ATOM     17  C   UNL     1      -5.128   1.002  24.699  0.00  0.00    +0.023 A 
ATOM     18  C   UNL     1      -6.048   3.417  25.749  0.00  0.00    +0.002 A 
ATOM     19  C   UNL     1      -6.496   1.210  24.872  0.00  0.00    +0.002 A 
ATOM     21  C   UNL     1      -6.957   2.419  25.396  0.00  0.00    +0.000 A 
ENDBRANCH   4  14
BRANCH   3  13
ATOM     13  C   UNL     1       2.265  -0.265  22.668  0.00  0.00    +0.158 C 
BRANCH  13  15
ATOM      5  N   UNL     1       4.204  -1.340  23.837  0.00  0.00    -0.347 N 
ATOM      6  N   UNL     1       4.662   0.524  22.720  0.00  0.00    -0.239 NA
ATOM     15  C   UNL     1       3.719  -0.329  23.056  0.00  0.00    +0.121 A 
ATOM     20  C   UNL     1       5.541  -1.118  24.010  0.00  0.00    +0.104 A 
ATOM     22  C   UNL     1       5.800   0.037  23.312  0.00  0.00    +0.130 A 
ATOM     23  H   UNL     1       3.673  -2.112  24.217  0.00  0.00    +0.167 HD
ENDBRANCH  13  15
ENDBRANCH   3  13
TORSDOF 3
ENDMDL
MODEL 4
REMARK VINA RESULT:      -2.0     15.352     16.738
REMARK  Name = 75368577
REMARK  3 active torsions:
REMARK  status: ('A' for Active; 'I' for Inactive)
REMARK    1  A    between atoms: N_3  and  C_13
REMARK    2  A    between atoms: N_4  and  C_14
REMARK    3  A    between atoms: C_13  and  C_15
REMARK                            x       y       z     vdW  Elec       q    Type
REMARK                         _______ _______ _______ _____ _____    ______ ____
ROOT
ATOM      1  O   UNL     1      -2.088  -0.364  26.227  0.00  0.00    -0.252 OA
ATOM      2  N   UNL     1      -0.841  -0.249  24.261  0.00  0.00    -0.278 N 
ATOM      3  N   UNL     1       1.414  -0.234  22.578  0.00  0.00    -0.292 NA
ATOM      4  N   UNL     1      -2.629   1.129  24.437  0.00  0.00    -0.254 N 
ATOM      7  C   UNL     1      -0.938   0.378  22.966  0.00  0.00    +0.109 C 
ATOM      8  C   UNL     1       0.433   0.868  22.502  0.00  0.00    +0.109 C 
ATOM      9  C   UNL     1      -1.975   1.473  23.177  0.00  0.00    +0.139 C 
ATOM     10  C   UNL     1       0.190  -1.241  24.491  0.00  0.00    +0.125 C 
ATOM     11  C   UNL     1       1.534  -0.735  23.961  0.00  0.00    +0.104 C 
ATOM     12  C   UNL     1      -1.893   0.114  25.117  0.00  0.00    +0.309 C 
ENDROOT
BRANCH   4  14
ATOM     14  C   UNL     1      -3.790   1.809  24.904  0.00  0.00    +0.038 A 
ATOM     16  C   UNL     1      -5.001   1.124  25.014  0.00  0.00    +0.023 A 
ATOM     17  C   UNL     1      -3.718   3.157  25.252  0.00  0.00    +0.023 A 
ATOM     18  C   UNL     1      -6.139   1.788  25.471  0.00  0.00    +0.002 A 
ATOM     19  C   UNL     1      -4.855   3.822  25.710  0.00  0.00    +0.002 A 
ATOM     21  C   UNL     1      -6.066   3.137  25.820  0.00  0.00    +0.000 A 
ENDBRANCH   4  14
BRANCH   3  13
ATOM     13  C   UNL     1       2.717   0.209  22.080  0.00  0.00    +0.158 C 
BRANCH  13  15
ATOM      5  N   UNL     1       4.669   0.789  23.540  0.00  0.00    -0.347 N 
ATOM      6  N   UNL     1       4.135  -1.365  23.452  0.00  0.00    -0.239 NA
ATOM     15  C   UNL     1       3.831  -0.159  23.024  0.00  0.00    +0.121 A 
ATOM     20  C   UNL     1       5.564   0.147  24.350  0.00  0.00    +0.104 A 
ATOM     22  C   UNL     1       5.214  -1.180  24.279  0.00  0.00    +0.130 A 
ATOM     23  H   UNL     1       4.635   1.783  23.359  0.00  0.00    +0.167 HD
ENDBRANCH  13  15
ENDBRANCH   3  13
TORSDOF 3
ENDMDL
