MODEL 1
REMARK VINA RESULT:       7.9      0.000      0.000
REMARK  Name = 51138049
REMARK  9 active torsions:
REMARK  status: ('A' for Active; 'I' for Inactive)
REMARK    1  A    between atoms: N_3  and  C_20
REMARK    2  A    between atoms: N_4  and  C_25
REMARK    3  A    between atoms: C_7  and  C_11
REMARK    4  A    between atoms: C_10  and  C_18
REMARK    5  A    between atoms: C_11  and  C_15
REMARK    6  A    between atoms: C_15  and  C_22
REMARK    7  A    between atoms: C_15  and  C_23
REMARK    8  A    between atoms: C_20  and  C_24
REMARK    9  A    between atoms: C_25  and  C_28
REMARK                            x       y       z     vdW  Elec       q    Type
REMARK                         _______ _______ _______ _____ _____    ______ ____
ROOT
ATOM      2  N   UNL     1       0.377  -0.979  23.811  0.00  0.00    -0.299 NA
ATOM      3  N   UNL     1      -1.851   3.473  24.667  0.00  0.00    -0.342 N 
ATOM      7  C   UNL     1      -1.044  -1.178  23.497  0.00  0.00    +0.085 C 
ATOM      8  C   UNL     1      -1.977  -0.015  23.853  0.00  0.00    -0.021 A 
ATOM      9  C   UNL     1      -1.559   1.318  24.129  0.00  0.00    +0.008 A 
ATOM     10  C   UNL     1       1.018   0.099  23.072  0.00  0.00    +0.145 C 
ATOM     12  C   UNL     1      -0.281   1.978  24.160  0.00  0.00    -0.020 A 
ATOM     13  C   UNL     1       1.062   1.390  23.887  0.00  0.00    +0.065 C 
ATOM     14  C   UNL     1      -2.516   2.294  24.427  0.00  0.00    +0.050 A 
ATOM     16  C   UNL     1      -0.508   3.297  24.504  0.00  0.00    +0.091 A 
ATOM     17  C   UNL     1      -3.378  -0.240  23.836  0.00  0.00    +0.006 A 
ATOM     19  C   UNL     1      -3.889   2.041  24.452  0.00  0.00    +0.026 A 
ATOM     21  C   UNL     1      -4.306   0.756  24.136  0.00  0.00    +0.002 A 
ATOM     35  H   UNL     1       0.516  -0.870  24.815  0.00  0.00    +0.123 HD
ENDROOT
BRANCH  10  18
ATOM      1  O   UNL     1       3.074   0.020  21.864  0.00  0.00    -0.274 OA
ATOM      4  N   UNL     1       2.838  -1.289  23.774  0.00  0.00    -0.308 N 
ATOM     18  C   UNL     1       2.419  -0.374  22.824  0.00  0.00    +0.231 C 
ATOM     36  H   UNL     1       2.221  -1.527  24.546  0.00  0.00    +0.149 HD
BRANCH   4  25
ATOM     25  C   UNL     1       4.141  -1.913  23.749  0.00  0.00    +0.159 C 
BRANCH  25  28
ATOM      6  N   UNL     1       5.018   0.245  24.437  0.00  0.00    -0.258 NA
ATOM     28  C   UNL     1       5.249  -0.900  23.756  0.00  0.00    +0.058 A 
ATOM     31  C   UNL     1       6.427  -1.178  23.082  0.00  0.00    +0.025 A 
ATOM     32  C   UNL     1       7.434  -0.219  23.108  0.00  0.00    +0.003 A 
ATOM     33  C   UNL     1       6.019   1.154  24.439  0.00  0.00    +0.111 A 
ATOM     34  C   UNL     1       7.234   0.972  23.797  0.00  0.00    +0.020 A 
ENDBRANCH  25  28
ENDBRANCH   4  25
ENDBRANCH  10  18
BRANCH   7  11
ATOM     11  C   UNL     1      -1.425  -2.482  24.222  0.00  0.00    +0.026 C 
BRANCH  11  15
ATOM     15  C   UNL     1      -2.893  -2.516  24.658  0.00  0.00    -0.015 C 
ATOM     22  C   UNL     1      -2.963  -2.593  26.185  0.00  0.00    +0.007 C 
ATOM     23  C   UNL     1      -3.662  -3.686  24.045  0.00  0.00    +0.007 C 
ENDBRANCH  11  15
ENDBRANCH   7  11
BRANCH   3  20
ATOM     20  C   UNL     1      -2.468   4.732  25.022  0.00  0.00    +0.157 C 
BRANCH  20  24
ATOM      5  N   UNL     1      -6.631   4.363  26.047  0.00  0.00    -0.263 NA
ATOM     24  C   UNL     1      -3.927   4.603  25.382  0.00  0.00    -0.025 A 
ATOM     26  C   UNL     1      -4.325   3.715  26.375  0.00  0.00    +0.025 A 
ATOM     27  C   UNL     1      -4.879   5.370  24.720  0.00  0.00    +0.025 A 
ATOM     29  C   UNL     1      -5.677   3.634  26.668  0.00  0.00    +0.111 A 
ATOM     30  C   UNL     1      -6.206   5.215  25.087  0.00  0.00    +0.111 A 
ENDBRANCH  20  24
ENDBRANCH   3  20
TORSDOF 7
ENDMDL
MODEL 2
REMARK VINA RESULT:       8.8      1.260      1.789
REMARK  Name = 51138049
REMARK  9 active torsions:
REMARK  status: ('A' for Active; 'I' for Inactive)
REMARK    1  A    between atoms: N_3  and  C_20
REMARK    2  A    between atoms: N_4  and  C_25
REMARK    3  A    between atoms: C_7  and  C_11
REMARK    4  A    between atoms: C_10  and  C_18
REMARK    5  A    between atoms: C_11  and  C_15
REMARK    6  A    between atoms: C_15  and  C_22
REMARK    7  A    between atoms: C_15  and  C_23
REMARK    8  A    between atoms: C_20  and  C_24
REMARK    9  A    between atoms: C_25  and  C_28
REMARK                            x       y       z     vdW  Elec       q    Type
REMARK                         _______ _______ _______ _____ _____    ______ ____
ROOT
ATOM      2  N   UNL     1      -0.170  -0.865  23.426  0.00  0.00    -0.299 NA
ATOM      3  N   UNL     1      -2.660   2.885  25.717  0.00  0.00    -0.342 N 
ATOM      7  C   UNL     1      -1.594  -1.199  23.301  0.00  0.00    +0.085 C 
ATOM      8  C   UNL     1      -2.563  -0.302  24.081  0.00  0.00    -0.021 A 
ATOM      9  C   UNL     1      -2.245   0.980  24.614  0.00  0.00    +0.008 A 
ATOM     10  C   UNL     1       0.200   0.437  22.890  0.00  0.00    +0.145 C 
ATOM     12  C   UNL     1      -1.064   1.800  24.609  0.00  0.00    -0.020 A 
ATOM     13  C   UNL     1       0.258   1.499  23.987  0.00  0.00    +0.065 C 
ATOM     14  C   UNL     1      -3.228   1.706  25.296  0.00  0.00    +0.050 A 
ATOM     16  C   UNL     1      -1.362   2.955  25.304  0.00  0.00    +0.091 A 
ATOM     17  C   UNL     1      -3.908  -0.726  24.229  0.00  0.00    +0.006 A 
ATOM     19  C   UNL     1      -4.536   1.250  25.473  0.00  0.00    +0.026 A 
ATOM     21  C   UNL     1      -4.864   0.023  24.914  0.00  0.00    +0.002 A 
ATOM     35  H   UNL     1       0.145  -0.969  24.391  0.00  0.00    +0.123 HD
ENDROOT
BRANCH  10  18
ATOM      1  O   UNL     1       1.815  -0.637  21.500  0.00  0.00    -0.274 OA
ATOM      4  N   UNL     1       2.481   1.161  22.822  0.00  0.00    -0.308 N 
ATOM     18  C   UNL     1       1.570   0.250  22.314  0.00  0.00    +0.231 C 
ATOM     36  H   UNL     1       2.164   1.871  23.476  0.00  0.00    +0.149 HD
BRANCH   4  25
ATOM     25  C   UNL     1       3.875   1.178  22.444  0.00  0.00    +0.159 C 
BRANCH  25  28
ATOM      6  N   UNL     1       4.047  -1.037  23.426  0.00  0.00    -0.258 NA
ATOM     28  C   UNL     1       4.670   0.137  23.179  0.00  0.00    +0.058 A 
ATOM     31  C   UNL     1       5.971   0.421  23.560  0.00  0.00    +0.025 A 
ATOM     32  C   UNL     1       6.680  -0.564  24.239  0.00  0.00    +0.003 A 
ATOM     33  C   UNL     1       4.767  -1.970  24.089  0.00  0.00    +0.111 A 
ATOM     34  C   UNL     1       6.073  -1.785  24.513  0.00  0.00    +0.020 A 
ENDBRANCH  25  28
ENDBRANCH   4  25
ENDBRANCH  10  18
BRANCH   7  11
ATOM     11  C   UNL     1      -1.688  -2.676  23.725  0.00  0.00    +0.026 C 
BRANCH  11  15
ATOM     15  C   UNL     1      -1.534  -2.875  25.236  0.00  0.00    -0.015 C 
ATOM     22  C   UNL     1      -2.919  -2.895  25.885  0.00  0.00    +0.007 C 
ATOM     23  C   UNL     1      -0.673  -1.793  25.888  0.00  0.00    +0.007 C 
ENDBRANCH  11  15
ENDBRANCH   7  11
BRANCH   3  20
ATOM     20  C   UNL     1      -3.330   3.922  26.471  0.00  0.00    +0.157 C 
BRANCH  20  24
ATOM      5  N   UNL     1      -6.322   6.021  24.199  0.00  0.00    -0.263 NA
ATOM     24  C   UNL     1      -4.379   4.658  25.675  0.00  0.00    -0.025 A 
ATOM     26  C   UNL     1      -5.680   4.754  26.155  0.00  0.00    +0.025 A 
ATOM     27  C   UNL     1      -4.048   5.242  24.457  0.00  0.00    +0.025 A 
ATOM     29  C   UNL     1      -6.606   5.441  25.386  0.00  0.00    +0.111 A 
ATOM     30  C   UNL     1      -5.046   5.907  23.764  0.00  0.00    +0.111 A 
ENDBRANCH  20  24
ENDBRANCH   3  20
TORSDOF 7
ENDMDL
MODEL 3
REMARK VINA RESULT:       9.8      1.761      2.511
REMARK  Name = 51138049
REMARK  9 active torsions:
REMARK  status: ('A' for Active; 'I' for Inactive)
REMARK    1  A    between atoms: N_3  and  C_20
REMARK    2  A    between atoms: N_4  and  C_25
REMARK    3  A    between atoms: C_7  and  C_11
REMARK    4  A    between atoms: C_10  and  C_18
REMARK    5  A    between atoms: C_11  and  C_15
REMARK    6  A    between atoms: C_15  and  C_22
REMARK    7  A    between atoms: C_15  and  C_23
REMARK    8  A    between atoms: C_20  and  C_24
REMARK    9  A    between atoms: C_25  and  C_28
REMARK                            x       y       z     vdW  Elec       q    Type
REMARK                         _______ _______ _______ _____ _____    ______ ____
ROOT
ATOM      2  N   UNL     1      -1.149  -1.197  24.717  0.00  0.00    -0.299 NA
ATOM      3  N   UNL     1      -2.662   3.539  25.609  0.00  0.00    -0.342 N 
ATOM      7  C   UNL     1      -2.601  -1.196  24.501  0.00  0.00    +0.085 C 
ATOM      8  C   UNL     1      -3.335   0.093  24.888  0.00  0.00    -0.021 A 
ATOM      9  C   UNL     1      -2.714   1.357  25.105  0.00  0.00    +0.008 A 
ATOM     10  C   UNL     1      -0.413  -0.233  23.912  0.00  0.00    +0.145 C 
ATOM     12  C   UNL     1      -1.357   1.829  25.038  0.00  0.00    -0.020 A 
ATOM     13  C   UNL     1      -0.132   1.051  24.692  0.00  0.00    +0.065 C 
ATOM     14  C   UNL     1      -3.502   2.464  25.441  0.00  0.00    +0.050 A 
ATOM     16  C   UNL     1      -1.371   3.171  25.364  0.00  0.00    +0.091 A 
ATOM     17  C   UNL     1      -4.751   0.070  24.967  0.00  0.00    +0.006 A 
ATOM     19  C   UNL     1      -4.891   2.410  25.561  0.00  0.00    +0.026 A 
ATOM     21  C   UNL     1      -5.507   1.192  25.303  0.00  0.00    +0.002 A 
ATOM     35  H   UNL     1      -0.929  -1.094  25.707  0.00  0.00    +0.123 HD
ENDROOT
BRANCH  10  18
ATOM      1  O   UNL     1       1.343  -1.804  24.284  0.00  0.00    -0.274 OA
ATOM      4  N   UNL     1       1.481  -0.372  22.454  0.00  0.00    -0.308 N 
ATOM     18  C   UNL     1       0.887  -0.903  23.586  0.00  0.00    +0.231 C 
ATOM     36  H   UNL     1       1.002   0.359  21.935  0.00  0.00    +0.149 HD
BRANCH   4  25
ATOM     25  C   UNL     1       2.751  -0.829  21.940  0.00  0.00    +0.159 C 
BRANCH  25  28
ATOM      6  N   UNL     1       4.437  -1.429  23.583  0.00  0.00    -0.258 NA
ATOM     28  C   UNL     1       3.892  -0.442  22.837  0.00  0.00    +0.058 A 
ATOM     31  C   UNL     1       4.322   0.875  22.858  0.00  0.00    +0.025 A 
ATOM     32  C   UNL     1       5.381   1.200  23.699  0.00  0.00    +0.003 A 
ATOM     33  C   UNL     1       5.463  -1.075  24.389  0.00  0.00    +0.111 A 
ATOM     34  C   UNL     1       5.967   0.213  24.482  0.00  0.00    +0.020 A 
ENDBRANCH  25  28
ENDBRANCH   4  25
ENDBRANCH  10  18
BRANCH   7  11
ATOM     11  C   UNL     1      -3.113  -2.421  25.279  0.00  0.00    +0.026 C 
BRANCH  11  15
ATOM     15  C   UNL     1      -3.658  -3.524  24.366  0.00  0.00    -0.015 C 
ATOM     22  C   UNL     1      -2.539  -4.014  23.444  0.00  0.00    +0.007 C 
ATOM     23  C   UNL     1      -4.851  -3.060  23.529  0.00  0.00    +0.007 C 
ENDBRANCH  11  15
ENDBRANCH   7  11
BRANCH   3  20
ATOM     20  C   UNL     1      -3.069   4.879  25.974  0.00  0.00    +0.157 C 
BRANCH  20  24
ATOM      5  N   UNL     1      -3.180   7.595  22.638  0.00  0.00    -0.263 NA
ATOM     24  C   UNL     1      -3.108   5.831  24.805  0.00  0.00    -0.025 A 
ATOM     26  C   UNL     1      -4.087   5.694  23.827  0.00  0.00    +0.025 A 
ATOM     27  C   UNL     1      -2.166   6.847  24.701  0.00  0.00    +0.025 A 
ATOM     29  C   UNL     1      -4.080   6.595  22.773  0.00  0.00    +0.111 A 
ATOM     30  C   UNL     1      -2.244   7.696  23.609  0.00  0.00    +0.111 A 
ENDBRANCH  20  24
ENDBRANCH   3  20
TORSDOF 7
ENDMDL
