MODEL 1
REMARK VINA RESULT:      -3.2      0.000      0.000
REMARK  Name = 25338306
REMARK  7 active torsions:
REMARK  status: ('A' for Active; 'I' for Inactive)
REMARK    1  A    between atoms: S_1  and  N_6
REMARK    2  A    between atoms: S_1  and  C_17
REMARK    3  A    between atoms: N_5  and  C_16
REMARK    4  A    between atoms: N_6  and  C_11
REMARK    5  A    between atoms: C_12  and  C_15
REMARK    6  A    between atoms: C_18  and  C_23
REMARK    7  A    between atoms: C_24  and  C_25
REMARK                            x       y       z     vdW  Elec       q    Type
REMARK                         _______ _______ _______ _____ _____    ______ ____
ROOT
ATOM      5  N   UNL     1      -2.026   4.593  24.969  0.00  0.00    -0.293 NA
ATOM     11  C   UNL     1      -3.981   4.021  26.105  0.00  0.00    +0.092 C 
ATOM     12  C   UNL     1      -1.589   3.566  25.934  0.00  0.00    +0.147 C 
ATOM     13  C   UNL     1      -2.898   3.044  26.557  0.00  0.00    +0.050 C 
ATOM     14  C   UNL     1      -3.216   5.214  25.557  0.00  0.00    +0.105 C 
ATOM     16  C   UNL     1      -0.992   5.576  24.669  0.00  0.00    +0.105 C 
ENDROOT
BRANCH  12  15
ATOM      2  O   UNL     1      -0.976   1.206  25.782  0.00  0.00    -0.336 OA
ATOM      7  N   UNL     1       0.150   2.536  24.375  0.00  0.00    -0.189 NA
ATOM      8  N   UNL     1      -0.107   0.371  25.067  0.00  0.00    -0.054 NA
ATOM     15  C   UNL     1      -0.760   2.463  25.312  0.00  0.00    +0.245 A 
ATOM     18  C   UNL     1       0.522   1.228  24.258  0.00  0.00    +0.222 A 
BRANCH  18  23
ATOM      9  N   UNL     1       2.767   1.300  23.509  0.00  0.00    -0.249 NA
ATOM     10  N   UNL     1       2.161  -0.442  21.396  0.00  0.00    -0.260 NA
ATOM     23  C   UNL     1       1.525   0.812  23.321  0.00  0.00    +0.129 A 
ATOM     26  C   UNL     1       1.227  -0.043  22.283  0.00  0.00    +0.142 A 
ATOM     27  C   UNL     1       3.702   0.902  22.622  0.00  0.00    +0.131 A 
ATOM     28  C   UNL     1       3.403   0.047  21.584  0.00  0.00    +0.130 A 
ENDBRANCH  18  23
ENDBRANCH  12  15
BRANCH  11   6
ATOM      6  N   UNL     1      -4.799   3.404  25.029  0.00  0.00    -0.186 NA
ATOM     29  H   UNL     1      -4.950   3.955  24.176  0.00  0.00    +0.148 HD
BRANCH   6   1
ATOM      1  S   UNL     1      -5.767   2.055  25.376  0.00  0.00    +0.059 S 
ATOM      3  O   UNL     1      -6.846   1.971  24.411  0.00  0.00    -0.153 OA
ATOM      4  O   UNL     1      -6.059   2.044  26.797  0.00  0.00    -0.153 OA
BRANCH   1  17
ATOM     17  C   UNL     1      -4.654   0.716  25.067  0.00  0.00    +0.105 A 
ATOM     19  C   UNL     1      -4.024   0.606  23.827  0.00  0.00    +0.029 A 
ATOM     20  C   UNL     1      -4.408  -0.230  26.061  0.00  0.00    +0.029 A 
ATOM     21  C   UNL     1      -3.149  -0.451  23.581  0.00  0.00    +0.005 A 
ATOM     22  C   UNL     1      -3.532  -1.288  25.816  0.00  0.00    +0.005 A 
ATOM     24  C   UNL     1      -2.903  -1.398  24.576  0.00  0.00    -0.050 A 
ATOM     25  C   UNL     1      -1.966  -2.528  24.314  0.00  0.00    +0.044 C 
ENDBRANCH   1  17
ENDBRANCH   6   1
ENDBRANCH  11   6
TORSDOF 5
ENDMDL
MODEL 2
REMARK VINA RESULT:      -2.3      1.548      4.333
REMARK  Name = 25338306
REMARK  7 active torsions:
REMARK  status: ('A' for Active; 'I' for Inactive)
REMARK    1  A    between atoms: S_1  and  N_6
REMARK    2  A    between atoms: S_1  and  C_17
REMARK    3  A    between atoms: N_5  and  C_16
REMARK    4  A    between atoms: N_6  and  C_11
REMARK    5  A    between atoms: C_12  and  C_15
REMARK    6  A    between atoms: C_18  and  C_23
REMARK    7  A    between atoms: C_24  and  C_25
REMARK                            x       y       z     vdW  Elec       q    Type
REMARK                         _______ _______ _______ _____ _____    ______ ____
ROOT
ATOM      5  N   UNL     1      -2.670  -1.717  24.729  0.00  0.00    -0.293 NA
ATOM     11  C   UNL     1      -4.559  -0.388  24.400  0.00  0.00    +0.092 C 
ATOM     12  C   UNL     1      -2.345  -0.927  23.525  0.00  0.00    +0.147 C 
ATOM     13  C   UNL     1      -3.499   0.086  23.409  0.00  0.00    +0.050 C 
ATOM     14  C   UNL     1      -4.133  -1.800  24.769  0.00  0.00    +0.105 C 
ATOM     16  C   UNL     1      -2.051  -3.037  24.735  0.00  0.00    +0.105 C 
ENDROOT
BRANCH  12  15
ATOM      2  O   UNL     1      -0.971   1.041  23.983  0.00  0.00    -0.336 OA
ATOM      7  N   UNL     1       0.193  -0.751  23.311  0.00  0.00    -0.189 NA
ATOM      8  N   UNL     1       0.373   1.435  23.962  0.00  0.00    -0.054 NA
ATOM     15  C   UNL     1      -0.988  -0.259  23.587  0.00  0.00    +0.245 A 
ATOM     18  C   UNL     1       0.996   0.326  23.555  0.00  0.00    +0.222 A 
BRANCH  18  23
ATOM      9  N   UNL     1       3.034   1.387  22.984  0.00  0.00    -0.249 NA
ATOM     10  N   UNL     1       4.451  -0.986  23.464  0.00  0.00    -0.260 NA
ATOM     23  C   UNL     1       2.419   0.257  23.385  0.00  0.00    +0.129 A 
ATOM     26  C   UNL     1       3.115  -0.908  23.620  0.00  0.00    +0.142 A 
ATOM     27  C   UNL     1       4.371   1.310  22.827  0.00  0.00    +0.131 A 
ATOM     28  C   UNL     1       5.066   0.144  23.062  0.00  0.00    +0.130 A 
ENDBRANCH  18  23
ENDBRANCH  12  15
BRANCH  11   6
ATOM      6  N   UNL     1      -4.546   0.479  25.605  0.00  0.00    -0.186 NA
ATOM     29  H   UNL     1      -4.315   0.037  26.503  0.00  0.00    +0.148 HD
BRANCH   6   1
ATOM      1  S   UNL     1      -5.285   2.005  25.553  0.00  0.00    +0.059 S 
ATOM      3  O   UNL     1      -5.853   2.314  26.851  0.00  0.00    -0.153 OA
ATOM      4  O   UNL     1      -6.106   2.084  24.360  0.00  0.00    -0.153 OA
BRANCH   1  17
ATOM     17  C   UNL     1      -3.899   3.074  25.298  0.00  0.00    +0.105 A 
ATOM     19  C   UNL     1      -2.792   2.994  26.143  0.00  0.00    +0.029 A 
ATOM     20  C   UNL     1      -3.913   3.997  24.253  0.00  0.00    +0.029 A 
ATOM     21  C   UNL     1      -1.701   3.838  25.944  0.00  0.00    +0.005 A 
ATOM     22  C   UNL     1      -2.821   4.842  24.053  0.00  0.00    +0.005 A 
ATOM     24  C   UNL     1      -1.715   4.762  24.899  0.00  0.00    -0.050 A 
ATOM     25  C   UNL     1      -0.547   5.665  24.686  0.00  0.00    +0.044 C 
ENDBRANCH   1  17
ENDBRANCH   6   1
ENDBRANCH  11   6
TORSDOF 5
ENDMDL
MODEL 3
REMARK VINA RESULT:      -1.7      1.688      2.098
REMARK  Name = 25338306
REMARK  7 active torsions:
REMARK  status: ('A' for Active; 'I' for Inactive)
REMARK    1  A    between atoms: S_1  and  N_6
REMARK    2  A    between atoms: S_1  and  C_17
REMARK    3  A    between atoms: N_5  and  C_16
REMARK    4  A    between atoms: N_6  and  C_11
REMARK    5  A    between atoms: C_12  and  C_15
REMARK    6  A    between atoms: C_18  and  C_23
REMARK    7  A    between atoms: C_24  and  C_25
REMARK                            x       y       z     vdW  Elec       q    Type
REMARK                         _______ _______ _______ _____ _____    ______ ____
ROOT
ATOM      5  N   UNL     1      -2.762   2.496  23.096  0.00  0.00    -0.293 NA
ATOM     11  C   UNL     1      -3.205   3.684  25.053  0.00  0.00    +0.092 C 
ATOM     12  C   UNL     1      -1.431   2.947  23.548  0.00  0.00    +0.147 C 
ATOM     13  C   UNL     1      -1.688   3.567  24.935  0.00  0.00    +0.050 C 
ATOM     14  C   UNL     1      -3.718   3.465  23.639  0.00  0.00    +0.105 C 
ATOM     16  C   UNL     1      -2.868   2.383  21.646  0.00  0.00    +0.105 C 
ENDROOT
BRANCH  12  15
ATOM      2  O   UNL     1      -0.868   0.580  23.782  0.00  0.00    -0.336 OA
ATOM      7  N   UNL     1       0.903   1.915  23.463  0.00  0.00    -0.189 NA
ATOM      8  N   UNL     1       0.256  -0.256  23.782  0.00  0.00    -0.054 NA
ATOM     15  C   UNL     1      -0.398   1.841  23.587  0.00  0.00    +0.245 A 
ATOM     18  C   UNL     1       1.260   0.604  23.589  0.00  0.00    +0.222 A 
BRANCH  18  23
ATOM      9  N   UNL     1       3.531   1.130  23.170  0.00  0.00    -0.249 NA
ATOM     10  N   UNL     1       4.286  -1.516  23.715  0.00  0.00    -0.260 NA
ATOM     23  C   UNL     1       2.631   0.187  23.514  0.00  0.00    +0.129 A 
ATOM     26  C   UNL     1       3.002  -1.112  23.782  0.00  0.00    +0.142 A 
ATOM     27  C   UNL     1       4.816   0.726  23.103  0.00  0.00    +0.131 A 
ATOM     28  C   UNL     1       5.186  -0.574  23.371  0.00  0.00    +0.130 A 
ENDBRANCH  18  23
ENDBRANCH  12  15
BRANCH  11   6
ATOM      6  N   UNL     1      -3.725   2.623  25.953  0.00  0.00    -0.186 NA
ATOM     29  H   UNL     1      -3.097   2.281  26.691  0.00  0.00    +0.148 HD
BRANCH   6   1
ATOM      1  S   UNL     1      -5.107   1.745  25.511  0.00  0.00    +0.059 S 
ATOM      3  O   UNL     1      -5.660   2.295  24.289  0.00  0.00    -0.153 OA
ATOM      4  O   UNL     1      -5.947   1.579  26.682  0.00  0.00    -0.153 OA
BRANCH   1  17
ATOM     17  C   UNL     1      -4.426   0.157  25.134  0.00  0.00    +0.105 A 
ATOM     19  C   UNL     1      -3.588  -0.477  26.051  0.00  0.00    +0.029 A 
ATOM     20  C   UNL     1      -4.726  -0.460  23.920  0.00  0.00    +0.029 A 
ATOM     21  C   UNL     1      -3.049  -1.728  25.754  0.00  0.00    +0.005 A 
ATOM     22  C   UNL     1      -4.187  -1.712  23.622  0.00  0.00    +0.005 A 
ATOM     24  C   UNL     1      -3.349  -2.345  24.539  0.00  0.00    -0.050 A 
ATOM     25  C   UNL     1      -2.772  -3.684  24.221  0.00  0.00    +0.044 C 
ENDBRANCH   1  17
ENDBRANCH   6   1
ENDBRANCH  11   6
TORSDOF 5
ENDMDL
MODEL 4
REMARK VINA RESULT:      -0.7      2.432      5.111
REMARK  Name = 25338306
REMARK  7 active torsions:
REMARK  status: ('A' for Active; 'I' for Inactive)
REMARK    1  A    between atoms: S_1  and  N_6
REMARK    2  A    between atoms: S_1  and  C_17
REMARK    3  A    between atoms: N_5  and  C_16
REMARK    4  A    between atoms: N_6  and  C_11
REMARK    5  A    between atoms: C_12  and  C_15
REMARK    6  A    between atoms: C_18  and  C_23
REMARK    7  A    between atoms: C_24  and  C_25
REMARK                            x       y       z     vdW  Elec       q    Type
REMARK                         _______ _______ _______ _____ _____    ______ ____
ROOT
ATOM      5  N   UNL     1      -2.385  -1.020  24.981  0.00  0.00    -0.293 NA
ATOM     11  C   UNL     1      -4.374  -0.083  24.201  0.00  0.00    +0.092 C 
ATOM     12  C   UNL     1      -1.946   0.174  24.232  0.00  0.00    +0.147 C 
ATOM     13  C   UNL     1      -3.256   0.904  23.876  0.00  0.00    +0.050 C 
ATOM     14  C   UNL     1      -3.666  -1.415  24.388  0.00  0.00    +0.105 C 
ATOM     16  C   UNL     1      -1.413  -2.107  24.948  0.00  0.00    +0.105 C 
ENDROOT
BRANCH  12  15
ATOM      2  O   UNL     1      -0.369   2.039  24.298  0.00  0.00    -0.336 OA
ATOM      7  N   UNL     1      -0.642   1.001  26.265  0.00  0.00    -0.189 NA
ATOM      8  N   UNL     1       0.462   2.705  25.208  0.00  0.00    -0.054 NA
ATOM     15  C   UNL     1      -0.982   1.052  25.002  0.00  0.00    +0.245 A 
ATOM     18  C   UNL     1       0.246   2.035  26.344  0.00  0.00    +0.222 A 
BRANCH  18  23
ATOM      9  N   UNL     1       2.158   2.846  27.483  0.00  0.00    -0.249 NA
ATOM     10  N   UNL     1       0.868   2.533  29.954  0.00  0.00    -0.260 NA
ATOM     23  C   UNL     1       0.899   2.373  27.576  0.00  0.00    +0.129 A 
ATOM     26  C   UNL     1       0.266   2.219  28.790  0.00  0.00    +0.142 A 
ATOM     27  C   UNL     1       2.761   3.160  28.647  0.00  0.00    +0.131 A 
ATOM     28  C   UNL     1       2.127   3.006  29.860  0.00  0.00    +0.130 A 
ENDBRANCH  18  23
ENDBRANCH  12  15
BRANCH  11   6
ATOM      6  N   UNL     1      -5.047   0.317  25.464  0.00  0.00    -0.186 NA
ATOM     29  H   UNL     1      -5.225  -0.420  26.157  0.00  0.00    +0.148 HD
BRANCH   6   1
ATOM      1  S   UNL     1      -5.848   1.809  25.555  0.00  0.00    +0.059 S 
ATOM      3  O   UNL     1      -6.397   1.984  26.886  0.00  0.00    -0.153 OA
ATOM      4  O   UNL     1      -6.700   1.953  24.390  0.00  0.00    -0.153 OA
BRANCH   1  17
ATOM     17  C   UNL     1      -4.512   2.952  25.362  0.00  0.00    +0.105 A 
ATOM     19  C   UNL     1      -3.701   3.267  26.453  0.00  0.00    +0.029 A 
ATOM     20  C   UNL     1      -4.271   3.541  24.121  0.00  0.00    +0.029 A 
ATOM     21  C   UNL     1      -2.651   4.171  26.302  0.00  0.00    +0.005 A 
ATOM     22  C   UNL     1      -3.220   4.444  23.970  0.00  0.00    +0.005 A 
ATOM     24  C   UNL     1      -2.410   4.759  25.061  0.00  0.00    -0.050 A 
ATOM     25  C   UNL     1      -1.285   5.726  24.899  0.00  0.00    +0.044 C 
ENDBRANCH   1  17
ENDBRANCH   6   1
ENDBRANCH  11   6
TORSDOF 5
ENDMDL
MODEL 5
REMARK VINA RESULT:      -0.2      2.526      3.738
REMARK  Name = 25338306
REMARK  7 active torsions:
REMARK  status: ('A' for Active; 'I' for Inactive)
REMARK    1  A    between atoms: S_1  and  N_6
REMARK    2  A    between atoms: S_1  and  C_17
REMARK    3  A    between atoms: N_5  and  C_16
REMARK    4  A    between atoms: N_6  and  C_11
REMARK    5  A    between atoms: C_12  and  C_15
REMARK    6  A    between atoms: C_18  and  C_23
REMARK    7  A    between atoms: C_24  and  C_25
REMARK                            x       y       z     vdW  Elec       q    Type
REMARK                         _______ _______ _______ _____ _____    ______ ____
ROOT
ATOM      5  N   UNL     1      -3.077   2.383  23.755  0.00  0.00    -0.293 NA
ATOM     11  C   UNL     1      -4.667   3.775  24.744  0.00  0.00    +0.092 C 
ATOM     12  C   UNL     1      -2.288   3.524  24.259  0.00  0.00    +0.147 C 
ATOM     13  C   UNL     1      -3.295   4.354  25.079  0.00  0.00    +0.050 C 
ATOM     14  C   UNL     1      -4.427   2.904  23.521  0.00  0.00    +0.105 C 
ATOM     16  C   UNL     1      -2.512   1.780  22.554  0.00  0.00    +0.105 C 
ENDROOT
BRANCH  12  15
ATOM      2  O   UNL     1      -0.066   2.514  24.387  0.00  0.00    -0.336 OA
ATOM      7  N   UNL     1      -0.854   3.244  26.353  0.00  0.00    -0.189 NA
ATOM      8  N   UNL     1       0.925   2.228  25.335  0.00  0.00    -0.054 NA
ATOM     15  C   UNL     1      -1.078   3.112  25.070  0.00  0.00    +0.245 A 
ATOM     18  C   UNL     1       0.387   2.688  26.468  0.00  0.00    +0.222 A 
BRANCH  18  23
ATOM      9  N   UNL     1       2.383   2.879  27.728  0.00  0.00    -0.249 NA
ATOM     10  N   UNL     1       1.012   2.195  30.078  0.00  0.00    -0.260 NA
ATOM     23  C   UNL     1       1.062   2.609  27.731  0.00  0.00    +0.129 A 
ATOM     26  C   UNL     1       0.390   2.273  28.885  0.00  0.00    +0.142 A 
ATOM     27  C   UNL     1       3.007   2.802  28.921  0.00  0.00    +0.131 A 
ATOM     28  C   UNL     1       2.333   2.465  30.075  0.00  0.00    +0.130 A 
ENDBRANCH  18  23
ENDBRANCH  12  15
BRANCH  11   6
ATOM      6  N   UNL     1      -5.152   2.942  25.874  0.00  0.00    -0.186 NA
ATOM     29  H   UNL     1      -4.704   3.080  26.788  0.00  0.00    +0.148 HD
BRANCH   6   1
ATOM      1  S   UNL     1      -6.088   1.562  25.564  0.00  0.00    +0.059 S 
ATOM      3  O   UNL     1      -6.860   1.762  24.353  0.00  0.00    -0.153 OA
ATOM      4  O   UNL     1      -6.748   1.161  26.791  0.00  0.00    -0.153 OA
BRANCH   1  17
ATOM     17  C   UNL     1      -4.847   0.348  25.224  0.00  0.00    +0.105 A 
ATOM     19  C   UNL     1      -3.667   0.331  25.967  0.00  0.00    +0.029 A 
ATOM     20  C   UNL     1      -5.048  -0.590  24.212  0.00  0.00    +0.029 A 
ATOM     21  C   UNL     1      -2.687  -0.624  25.697  0.00  0.00    +0.005 A 
ATOM     22  C   UNL     1      -4.069  -1.546  23.942  0.00  0.00    +0.005 A 
ATOM     24  C   UNL     1      -2.888  -1.562  24.685  0.00  0.00    -0.050 A 
ATOM     25  C   UNL     1      -1.841  -2.584  24.397  0.00  0.00    +0.044 C 
ENDBRANCH   1  17
ENDBRANCH   6   1
ENDBRANCH  11   6
TORSDOF 5
ENDMDL
