MODEL 1
REMARK VINA RESULT:       8.4      0.000      0.000
REMARK  Name = 7113923
REMARK  7 active torsions:
REMARK  status: ('A' for Active; 'I' for Inactive)
REMARK    1  A    between atoms: S_1  and  N_13
REMARK    2  A    between atoms: S_1  and  C_30
REMARK    3  A    between atoms: O_9  and  C_35
REMARK    4  A    between atoms: N_13  and  C_24
REMARK    5  A    between atoms: C_23  and  C_26
REMARK    6  A    between atoms: C_29  and  C_35
REMARK    7  A    between atoms: C_36  and  C_39
REMARK                            x       y       z     vdW  Elec       q    Type
REMARK                         _______ _______ _______ _____ _____    ______ ____
ROOT
ATOM      5  O   UNL     1      -3.593   0.916  21.938  0.00  0.00    -0.266 OA
ATOM      6  O   UNL     1       0.120   3.783  24.138  0.00  0.00    -0.270 OA
ATOM     11  N   UNL     1      -1.903   4.320  25.184  0.00  0.00    -0.297 N 
ATOM     12  N   UNL     1      -3.930   2.325  23.780  0.00  0.00    -0.310 N 
ATOM     14  C   UNL     1      -3.769   4.877  23.632  0.00  0.00    +0.027 C 
ATOM     15  C   UNL     1      -4.254   3.803  25.795  0.00  0.00    +0.054 C 
ATOM     16  C   UNL     1      -4.740   4.864  24.808  0.00  0.00    +0.018 C 
ATOM     17  C   UNL     1      -2.346   5.214  24.114  0.00  0.00    +0.113 C 
ATOM     18  C   UNL     1      -3.832   3.517  22.926  0.00  0.00    +0.130 C 
ATOM     19  C   UNL     1      -2.848   4.178  26.304  0.00  0.00    +0.117 C 
ATOM     20  C   UNL     1      -4.215   2.431  25.148  0.00  0.00    +0.027 A 
ATOM     21  C   UNL     1      -4.414   1.328  25.890  0.00  0.00    +0.024 A 
ATOM     22  C   UNL     1      -3.825   1.075  23.136  0.00  0.00    +0.274 A 
ATOM     23  C   UNL     1      -0.673   3.668  25.071  0.00  0.00    +0.247 C 
ATOM     24  C   UNL     1      -4.030  -0.106  24.013  0.00  0.00    +0.112 A 
ATOM     25  C   UNL     1      -4.318   0.016  25.308  0.00  0.00    +0.031 A 
ENDROOT
BRANCH  23  26
ATOM     26  C   UNL     1      -0.284   2.746  26.143  0.00  0.00    +0.038 A 
ATOM     27  C   UNL     1       0.689   3.125  27.064  0.00  0.00    +0.028 A 
ATOM     28  C   UNL     1      -0.890   1.495  26.233  0.00  0.00    +0.013 A 
ATOM     29  C   UNL     1       1.059   2.246  28.083  0.00  0.00    +0.060 A 
ATOM     31  C   UNL     1      -0.520   0.617  27.251  0.00  0.00    +0.002 A 
ATOM     32  C   UNL     1       0.454   0.993  28.177  0.00  0.00    +0.015 A 
BRANCH  29  35
ATOM     10  O   UNL     1       2.952   3.485  28.860  0.00  0.00    -0.245 OA
ATOM     35  C   UNL     1       2.074   2.637  29.048  0.00  0.00    +0.337 C 
BRANCH  35   9
ATOM      9  O   UNL     1       1.964   1.957  30.222  0.00  0.00    -0.477 OA
ATOM     41  H   UNL     1       2.542   1.165  30.240  0.00  0.00    +0.295 HD
ENDBRANCH  35   9
ENDBRANCH  29  35
ENDBRANCH  23  26
BRANCH  24  13
ATOM     13  N   UNL     1      -3.933  -1.405  23.484  0.00  0.00    -0.211 N 
ATOM     40  H   UNL     1      -4.766  -1.680  22.942  0.00  0.00    +0.174 HD
BRANCH  13   1
ATOM      1  S   UNL     1      -3.331  -2.611  24.508  0.00  0.00    +0.073 S 
ATOM      7  O   UNL     1      -3.867  -2.431  25.844  0.00  0.00    -0.150 OA
ATOM      8  O   UNL     1      -3.426  -3.901  23.851  0.00  0.00    -0.150 OA
BRANCH   1  30
ATOM     30  C   UNL     1      -1.619  -2.171  24.563  0.00  0.00    +0.109 A 
ATOM     33  C   UNL     1      -1.167  -1.121  23.784  0.00  0.00    +0.041 A 
ATOM     34  C   UNL     1      -0.766  -2.886  25.384  0.00  0.00    +0.029 A 
ATOM     36  C   UNL     1       0.184  -0.775  23.827  0.00  0.00    +0.057 A 
ATOM     37  C   UNL     1       0.585  -2.540  25.427  0.00  0.00    +0.002 A 
ATOM     38  C   UNL     1       1.059  -1.484  24.649  0.00  0.00    +0.012 A 
BRANCH  36  39
ATOM      2  F   UNL     1       1.588   1.154  23.645  0.00  0.00    -0.166 F 
ATOM      3  F   UNL     1       1.333  -0.050  21.859  0.00  0.00    -0.166 F 
ATOM      4  F   UNL     1      -0.305   1.187  22.576  0.00  0.00    -0.166 F 
ATOM     39  C   UNL     1       0.691   0.355  22.995  0.00  0.00    +0.417 C 
ENDBRANCH  36  39
ENDBRANCH   1  30
ENDBRANCH  13   1
ENDBRANCH  24  13
TORSDOF 7
ENDMDL
MODEL 2
REMARK VINA RESULT:       9.4      2.709      5.105
REMARK  Name = 7113923
REMARK  7 active torsions:
REMARK  status: ('A' for Active; 'I' for Inactive)
REMARK    1  A    between atoms: S_1  and  N_13
REMARK    2  A    between atoms: S_1  and  C_30
REMARK    3  A    between atoms: O_9  and  C_35
REMARK    4  A    between atoms: N_13  and  C_24
REMARK    5  A    between atoms: C_23  and  C_26
REMARK    6  A    between atoms: C_29  and  C_35
REMARK    7  A    between atoms: C_36  and  C_39
REMARK                            x       y       z     vdW  Elec       q    Type
REMARK                         _______ _______ _______ _____ _____    ______ ____
ROOT
ATOM      5  O   UNL     1       0.547   1.889  26.810  0.00  0.00    -0.266 OA
ATOM      6  O   UNL     1      -4.002   4.324  27.288  0.00  0.00    -0.270 OA
ATOM     11  N   UNL     1      -3.212   4.716  25.120  0.00  0.00    -0.297 N 
ATOM     12  N   UNL     1      -0.548   2.995  25.059  0.00  0.00    -0.310 N 
ATOM     14  C   UNL     1      -0.864   5.536  24.993  0.00  0.00    +0.027 C 
ATOM     15  C   UNL     1      -1.774   4.141  23.178  0.00  0.00    +0.054 C 
ATOM     16  C   UNL     1      -0.890   5.350  23.479  0.00  0.00    +0.018 C 
ATOM     17  C   UNL     1      -2.288   5.773  25.529  0.00  0.00    +0.113 C 
ATOM     18  C   UNL     1      -0.206   4.305  25.629  0.00  0.00    +0.130 C 
ATOM     19  C   UNL     1      -3.207   4.412  23.680  0.00  0.00    +0.117 C 
ATOM     20  C   UNL     1      -1.230   2.887  23.839  0.00  0.00    +0.027 A 
ATOM     21  C   UNL     1      -1.434   1.684  23.275  0.00  0.00    +0.024 A 
ATOM     22  C   UNL     1      -0.070   1.860  25.746  0.00  0.00    +0.274 A 
ATOM     23  C   UNL     1      -3.993   4.074  26.083  0.00  0.00    +0.247 C 
ATOM     24  C   UNL     1      -0.348   0.559  25.087  0.00  0.00    +0.112 A 
ATOM     25  C   UNL     1      -0.981   0.479  23.917  0.00  0.00    +0.031 A 
ENDROOT
BRANCH  23  26
ATOM     26  C   UNL     1      -4.875   2.989  25.640  0.00  0.00    +0.038 A 
ATOM     27  C   UNL     1      -4.349   1.724  25.393  0.00  0.00    +0.028 A 
ATOM     28  C   UNL     1      -6.236   3.231  25.469  0.00  0.00    +0.013 A 
ATOM     29  C   UNL     1      -5.189   0.693  24.971  0.00  0.00    +0.060 A 
ATOM     31  C   UNL     1      -7.076   2.200  25.048  0.00  0.00    +0.002 A 
ATOM     32  C   UNL     1      -6.552   0.931  24.799  0.00  0.00    +0.015 A 
BRANCH  29  35
ATOM     10  O   UNL     1      -4.890  -1.325  23.721  0.00  0.00    -0.245 OA
ATOM     35  C   UNL     1      -4.643  -0.630  24.712  0.00  0.00    +0.337 C 
BRANCH  35   9
ATOM      9  O   UNL     1      -3.805  -1.048  25.699  0.00  0.00    -0.477 OA
ATOM     41  H   UNL     1      -3.253  -0.314  26.044  0.00  0.00    +0.295 HD
ENDBRANCH  35   9
ENDBRANCH  29  35
ENDBRANCH  23  26
BRANCH  24  13
ATOM     13  N   UNL     1       0.068  -0.642  25.689  0.00  0.00    -0.211 N 
ATOM     40  H   UNL     1       0.725  -0.492  26.469  0.00  0.00    +0.174 HD
BRANCH  13   1
ATOM      1  S   UNL     1       0.481  -1.918  24.657  0.00  0.00    +0.073 S 
ATOM      7  O   UNL     1       1.203  -2.934  25.399  0.00  0.00    -0.150 OA
ATOM      8  O   UNL     1      -0.667  -2.283  23.848  0.00  0.00    -0.150 OA
BRANCH   1  30
ATOM     30  C   UNL     1       1.644  -1.118  23.591  0.00  0.00    +0.109 A 
ATOM     33  C   UNL     1       2.944  -0.937  24.027  0.00  0.00    +0.041 A 
ATOM     34  C   UNL     1       1.230  -0.688  22.344  0.00  0.00    +0.029 A 
ATOM     36  C   UNL     1       3.861  -0.305  23.187  0.00  0.00    +0.057 A 
ATOM     37  C   UNL     1       2.147  -0.056  21.503  0.00  0.00    +0.002 A 
ATOM     38  C   UNL     1       3.463   0.134  21.925  0.00  0.00    +0.012 A 
BRANCH  36  39
ATOM      2  F   UNL     1       5.609  -0.851  24.727  0.00  0.00    -0.166 F 
ATOM      3  F   UNL     1       6.198  -0.411  22.686  0.00  0.00    -0.166 F 
ATOM      4  F   UNL     1       5.524   1.193  23.990  0.00  0.00    -0.166 F 
ATOM     39  C   UNL     1       5.269  -0.100  23.638  0.00  0.00    +0.417 C 
ENDBRANCH  36  39
ENDBRANCH   1  30
ENDBRANCH  13   1
ENDBRANCH  24  13
TORSDOF 7
ENDMDL
MODEL 3
REMARK VINA RESULT:      10.0      3.085      5.788
REMARK  Name = 7113923
REMARK  7 active torsions:
REMARK  status: ('A' for Active; 'I' for Inactive)
REMARK    1  A    between atoms: S_1  and  N_13
REMARK    2  A    between atoms: S_1  and  C_30
REMARK    3  A    between atoms: O_9  and  C_35
REMARK    4  A    between atoms: N_13  and  C_24
REMARK    5  A    between atoms: C_23  and  C_26
REMARK    6  A    between atoms: C_29  and  C_35
REMARK    7  A    between atoms: C_36  and  C_39
REMARK                            x       y       z     vdW  Elec       q    Type
REMARK                         _______ _______ _______ _____ _____    ______ ____
ROOT
ATOM      5  O   UNL     1      -3.867   2.446  25.904  0.00  0.00    -0.266 OA
ATOM      6  O   UNL     1      -0.140  -1.120  26.396  0.00  0.00    -0.270 OA
ATOM     11  N   UNL     1      -1.706  -1.938  24.860  0.00  0.00    -0.297 N 
ATOM     12  N   UNL     1      -3.742   0.483  24.631  0.00  0.00    -0.310 N 
ATOM     14  C   UNL     1      -4.072  -1.852  25.631  0.00  0.00    +0.027 C 
ATOM     15  C   UNL     1      -3.555  -1.607  23.235  0.00  0.00    +0.054 C 
ATOM     16  C   UNL     1      -4.534  -2.231  24.228  0.00  0.00    +0.018 C 
ATOM     17  C   UNL     1      -2.649  -2.379  25.888  0.00  0.00    +0.113 C 
ATOM     18  C   UNL     1      -4.160  -0.328  25.783  0.00  0.00    +0.130 C 
ATOM     19  C   UNL     1      -2.143  -2.178  23.475  0.00  0.00    +0.117 C 
ATOM     20  C   UNL     1      -3.525  -0.096  23.373  0.00  0.00    +0.027 A 
ATOM     21  C   UNL     1      -3.256   0.675  22.305  0.00  0.00    +0.024 A 
ATOM     22  C   UNL     1      -3.672   1.877  24.830  0.00  0.00    +0.274 A 
ATOM     23  C   UNL     1      -0.511  -1.323  25.240  0.00  0.00    +0.247 C 
ATOM     24  C   UNL     1      -3.346   2.673  23.620  0.00  0.00    +0.112 A 
ATOM     25  C   UNL     1      -3.161   2.105  22.428  0.00  0.00    +0.031 A 
ENDROOT
BRANCH  23  26
ATOM     26  C   UNL     1       0.388  -0.855  24.180  0.00  0.00    +0.038 A 
ATOM     27  C   UNL     1       1.766  -0.982  24.333  0.00  0.00    +0.028 A 
ATOM     28  C   UNL     1      -0.143  -0.286  23.024  0.00  0.00    +0.013 A 
ATOM     29  C   UNL     1       2.620  -0.536  23.323  0.00  0.00    +0.060 A 
ATOM     31  C   UNL     1       0.711   0.159  22.016  0.00  0.00    +0.002 A 
ATOM     32  C   UNL     1       2.093   0.034  22.165  0.00  0.00    +0.015 A 
BRANCH  29  35
ATOM     10  O   UNL     1       4.899   0.152  23.091  0.00  0.00    -0.245 OA
ATOM     35  C   UNL     1       4.060  -0.667  23.479  0.00  0.00    +0.337 C 
BRANCH  35   9
ATOM      9  O   UNL     1       4.412  -1.818  24.115  0.00  0.00    -0.477 OA
ATOM     41  H   UNL     1       4.833  -2.459  23.503  0.00  0.00    +0.295 HD
ENDBRANCH  35   9
ENDBRANCH  29  35
ENDBRANCH  23  26
BRANCH  24  13
ATOM     13  N   UNL     1      -3.233   4.072  23.702  0.00  0.00    -0.211 N 
ATOM     40  H   UNL     1      -2.817   4.490  22.856  0.00  0.00    +0.174 HD
BRANCH  13   1
ATOM      1  S   UNL     1      -2.662   4.715  25.159  0.00  0.00    +0.073 S 
ATOM      7  O   UNL     1      -2.206   6.076  24.947  0.00  0.00    -0.150 OA
ATOM      8  O   UNL     1      -3.599   4.417  26.225  0.00  0.00    -0.150 OA
BRANCH   1  30
ATOM     30  C   UNL     1      -1.227   3.715  25.421  0.00  0.00    +0.109 A 
ATOM     33  C   UNL     1      -0.841   3.416  26.716  0.00  0.00    +0.041 A 
ATOM     34  C   UNL     1      -0.520   3.250  24.327  0.00  0.00    +0.029 A 
ATOM     36  C   UNL     1       0.291   2.628  26.923  0.00  0.00    +0.057 A 
ATOM     37  C   UNL     1       0.613   2.461  24.534  0.00  0.00    +0.002 A 
ATOM     38  C   UNL     1       1.017   2.150  25.832  0.00  0.00    +0.012 A 
BRANCH  36  39
ATOM      2  F   UNL     1       0.001   2.931  29.278  0.00  0.00    -0.166 F 
ATOM      3  F   UNL     1       0.625   0.965  28.609  0.00  0.00    -0.166 F 
ATOM      4  F   UNL     1       2.027   2.626  28.548  0.00  0.00    -0.166 F 
ATOM     39  C   UNL     1       0.724   2.294  28.311  0.00  0.00    +0.417 C 
ENDBRANCH  36  39
ENDBRANCH   1  30
ENDBRANCH  13   1
ENDBRANCH  24  13
TORSDOF 7
ENDMDL
MODEL 4
REMARK VINA RESULT:      10.6      2.518      3.825
REMARK  Name = 7113923
REMARK  7 active torsions:
REMARK  status: ('A' for Active; 'I' for Inactive)
REMARK    1  A    between atoms: S_1  and  N_13
REMARK    2  A    between atoms: S_1  and  C_30
REMARK    3  A    between atoms: O_9  and  C_35
REMARK    4  A    between atoms: N_13  and  C_24
REMARK    5  A    between atoms: C_23  and  C_26
REMARK    6  A    between atoms: C_29  and  C_35
REMARK    7  A    between atoms: C_36  and  C_39
REMARK                            x       y       z     vdW  Elec       q    Type
REMARK                         _______ _______ _______ _____ _____    ______ ____
ROOT
ATOM      5  O   UNL     1      -4.000  -1.432  23.068  0.00  0.00    -0.266 OA
ATOM      6  O   UNL     1      -4.339   3.704  22.467  0.00  0.00    -0.270 OA
ATOM     11  N   UNL     1      -5.127   3.187  24.608  0.00  0.00    -0.297 N 
ATOM     12  N   UNL     1      -4.648   0.055  24.758  0.00  0.00    -0.310 N 
ATOM     14  C   UNL     1      -6.839   1.380  24.686  0.00  0.00    +0.027 C 
ATOM     15  C   UNL     1      -5.288   1.680  26.576  0.00  0.00    +0.054 C 
ATOM     16  C   UNL     1      -6.736   1.359  26.208  0.00  0.00    +0.018 C 
ATOM     17  C   UNL     1      -6.448   2.766  24.141  0.00  0.00    +0.113 C 
ATOM     18  C   UNL     1      -5.954   0.265  24.117  0.00  0.00    +0.130 C 
ATOM     19  C   UNL     1      -4.925   3.088  26.063  0.00  0.00    +0.117 C 
ATOM     20  C   UNL     1      -4.334   0.658  25.983  0.00  0.00    +0.027 A 
ATOM     21  C   UNL     1      -3.182   0.366  26.612  0.00  0.00    +0.024 A 
ATOM     22  C   UNL     1      -3.775  -0.858  24.133  0.00  0.00    +0.274 A 
ATOM     23  C   UNL     1      -4.175   3.618  23.683  0.00  0.00    +0.247 C 
ATOM     24  C   UNL     1      -2.509  -1.121  24.862  0.00  0.00    +0.112 A 
ATOM     25  C   UNL     1      -2.236  -0.551  26.036  0.00  0.00    +0.031 A 
ENDROOT
BRANCH  23  26
ATOM     26  C   UNL     1      -2.848   3.991  24.186  0.00  0.00    +0.038 A 
ATOM     27  C   UNL     1      -1.867   3.016  24.343  0.00  0.00    +0.028 A 
ATOM     28  C   UNL     1      -2.578   5.320  24.504  0.00  0.00    +0.013 A 
ATOM     29  C   UNL     1      -0.606   3.371  24.822  0.00  0.00    +0.060 A 
ATOM     31  C   UNL     1      -1.317   5.675  24.982  0.00  0.00    +0.002 A 
ATOM     32  C   UNL     1      -0.331   4.701  25.141  0.00  0.00    +0.015 A 
BRANCH  29  35
ATOM     10  O   UNL     1       1.290   2.074  24.155  0.00  0.00    -0.245 OA
ATOM     35  C   UNL     1       0.422   2.356  24.987  0.00  0.00    +0.337 C 
BRANCH  35   9
ATOM      9  O   UNL     1       0.337   1.721  26.188  0.00  0.00    -0.477 OA
ATOM     41  H   UNL     1      -0.104   0.849  26.109  0.00  0.00    +0.295 HD
ENDBRANCH  35   9
ENDBRANCH  29  35
ENDBRANCH  23  26
BRANCH  24  13
ATOM     13  N   UNL     1      -1.553  -2.003  24.326  0.00  0.00    -0.211 N 
ATOM     40  H   UNL     1      -1.948  -2.926  24.091  0.00  0.00    +0.174 HD
BRANCH  13   1
ATOM      1  S   UNL     1      -0.042  -2.056  25.085  0.00  0.00    +0.073 S 
ATOM      7  O   UNL     1      -0.057  -1.211  26.264  0.00  0.00    -0.150 OA
ATOM      8  O   UNL     1       0.409  -3.432  25.179  0.00  0.00    -0.150 OA
BRANCH   1  30
ATOM     30  C   UNL     1       0.965  -1.252  23.873  0.00  0.00    +0.109 A 
ATOM     33  C   UNL     1       2.317  -1.094  24.117  0.00  0.00    +0.041 A 
ATOM     34  C   UNL     1       0.380  -0.797  22.706  0.00  0.00    +0.029 A 
ATOM     36  C   UNL     1       3.111  -0.460  23.162  0.00  0.00    +0.057 A 
ATOM     37  C   UNL     1       1.173  -0.162  21.749  0.00  0.00    +0.002 A 
ATOM     38  C   UNL     1       2.539   0.005  21.978  0.00  0.00    +0.012 A 
BRANCH  36  39
ATOM      2  F   UNL     1       5.282   0.018  22.278  0.00  0.00    -0.166 F 
ATOM      3  F   UNL     1       4.859   0.725  24.284  0.00  0.00    -0.166 F 
ATOM      4  F   UNL     1       5.159  -1.398  23.924  0.00  0.00    -0.166 F 
ATOM     39  C   UNL     1       4.572  -0.280  23.405  0.00  0.00    +0.417 C 
ENDBRANCH  36  39
ENDBRANCH   1  30
ENDBRANCH  13   1
ENDBRANCH  24  13
TORSDOF 7
ENDMDL
MODEL 5
REMARK VINA RESULT:      11.1      2.889      5.960
REMARK  Name = 7113923
REMARK  7 active torsions:
REMARK  status: ('A' for Active; 'I' for Inactive)
REMARK    1  A    between atoms: S_1  and  N_13
REMARK    2  A    between atoms: S_1  and  C_30
REMARK    3  A    between atoms: O_9  and  C_35
REMARK    4  A    between atoms: N_13  and  C_24
REMARK    5  A    between atoms: C_23  and  C_26
REMARK    6  A    between atoms: C_29  and  C_35
REMARK    7  A    between atoms: C_36  and  C_39
REMARK                            x       y       z     vdW  Elec       q    Type
REMARK                         _______ _______ _______ _____ _____    ______ ____
ROOT
ATOM      5  O   UNL     1      -4.687   0.134  27.090  0.00  0.00    -0.266 OA
ATOM      6  O   UNL     1       0.043  -1.751  26.131  0.00  0.00    -0.270 OA
ATOM     11  N   UNL     1      -1.316  -2.281  24.301  0.00  0.00    -0.297 N 
ATOM     12  N   UNL     1      -4.054  -0.878  25.075  0.00  0.00    -0.310 N 
ATOM     14  C   UNL     1      -3.479  -3.367  24.883  0.00  0.00    +0.027 C 
ATOM     15  C   UNL     1      -3.332  -1.919  22.896  0.00  0.00    +0.054 C 
ATOM     16  C   UNL     1      -3.936  -3.215  23.435  0.00  0.00    +0.018 C 
ATOM     17  C   UNL     1      -1.943  -3.428  24.958  0.00  0.00    +0.113 C 
ATOM     18  C   UNL     1      -4.052  -2.206  25.705  0.00  0.00    +0.130 C 
ATOM     19  C   UNL     1      -1.793  -2.012  22.935  0.00  0.00    +0.117 C 
ATOM     20  C   UNL     1      -3.792  -0.722  23.707  0.00  0.00    +0.027 A 
ATOM     21  C   UNL     1      -3.910   0.484  23.124  0.00  0.00    +0.024 A 
ATOM     22  C   UNL     1      -4.430   0.209  25.890  0.00  0.00    +0.274 A 
ATOM     23  C   UNL     1      -0.360  -1.531  24.990  0.00  0.00    +0.247 C 
ATOM     24  C   UNL     1      -4.518   1.518  25.195  0.00  0.00    +0.112 A 
ATOM     25  C   UNL     1      -4.283   1.644  23.889  0.00  0.00    +0.031 A 
ENDROOT
BRANCH  23  26
ATOM     26  C   UNL     1       0.214  -0.363  24.314  0.00  0.00    +0.038 A 
ATOM     27  C   UNL     1       1.532  -0.397  23.867  0.00  0.00    +0.028 A 
ATOM     28  C   UNL     1      -0.565   0.777  24.123  0.00  0.00    +0.013 A 
ATOM     29  C   UNL     1       2.077   0.715  23.225  0.00  0.00    +0.060 A 
ATOM     31  C   UNL     1      -0.020   1.888  23.481  0.00  0.00    +0.002 A 
ATOM     32  C   UNL     1       1.301   1.858  23.032  0.00  0.00    +0.015 A 
BRANCH  29  35
ATOM     10  O   UNL     1       4.455   0.766  23.473  0.00  0.00    -0.245 OA
ATOM     35  C   UNL     1       3.453   0.683  22.756  0.00  0.00    +0.337 C 
BRANCH  35   9
ATOM      9  O   UNL     1       3.538   0.549  21.404  0.00  0.00    -0.477 OA
ATOM     41  H   UNL     1       3.874   1.366  20.977  0.00  0.00    +0.295 HD
ENDBRANCH  35   9
ENDBRANCH  29  35
ENDBRANCH  23  26
BRANCH  24  13
ATOM     13  N   UNL     1      -4.869   2.677  25.910  0.00  0.00    -0.211 N 
ATOM     40  H   UNL     1      -5.785   2.598  26.375  0.00  0.00    +0.174 HD
BRANCH  13   1
ATOM      1  S   UNL     1      -4.590   4.164  25.152  0.00  0.00    +0.073 S 
ATOM      7  O   UNL     1      -4.907   4.061  23.740  0.00  0.00    -0.150 OA
ATOM      8  O   UNL     1      -5.158   5.234  25.951  0.00  0.00    -0.150 OA
BRANCH   1  30
ATOM     30  C   UNL     1      -2.830   4.280  25.290  0.00  0.00    +0.109 A 
ATOM     33  C   UNL     1      -2.153   3.355  26.065  0.00  0.00    +0.041 A 
ATOM     34  C   UNL     1      -2.167   5.291  24.621  0.00  0.00    +0.029 A 
ATOM     36  C   UNL     1      -0.765   3.446  26.174  0.00  0.00    +0.057 A 
ATOM     37  C   UNL     1      -0.779   5.383  24.730  0.00  0.00    +0.002 A 
ATOM     38  C   UNL     1      -0.079   4.460  25.506  0.00  0.00    +0.012 A 
BRANCH  36  39
ATOM      2  F   UNL     1      -0.033   2.743  28.341  0.00  0.00    -0.166 F 
ATOM      3  F   UNL     1      -0.496   1.185  26.905  0.00  0.00    -0.166 F 
ATOM      4  F   UNL     1       1.303   2.381  26.664  0.00  0.00    -0.166 F 
ATOM     39  C   UNL     1      -0.016   2.460  27.005  0.00  0.00    +0.417 C 
ENDBRANCH  36  39
ENDBRANCH   1  30
ENDBRANCH  13   1
ENDBRANCH  24  13
TORSDOF 7
ENDMDL
