MODEL 1
REMARK VINA RESULT:       3.5      0.000      0.000
REMARK  Name = 45360967
REMARK  9 active torsions:
REMARK  status: ('A' for Active; 'I' for Inactive)
REMARK    1  A    between atoms: N_3  and  C_16
REMARK    2  A    between atoms: N_4  and  C_18
REMARK    3  A    between atoms: N_6  and  C_24
REMARK    4  A    between atoms: N_8  and  C_27
REMARK    5  A    between atoms: C_13  and  C_17
REMARK    6  A    between atoms: C_16  and  C_19
REMARK    7  A    between atoms: C_17  and  C_20
REMARK    8  A    between atoms: C_20  and  C_21
REMARK    9  A    between atoms: C_27  and  C_30
REMARK                            x       y       z     vdW  Elec       q    Type
REMARK                         _______ _______ _______ _____ _____    ______ ____
ROOT
ATOM      1  O   UNL     1      -1.242   2.085  23.447  0.00  0.00    -0.274 OA
ATOM      3  N   UNL     1      -0.054  -0.288  23.950  0.00  0.00    -0.283 NA
ATOM      4  N   UNL     1      -3.329  -0.380  25.580  0.00  0.00    -0.296 NA
ATOM      5  N   UNL     1      -3.337   1.208  23.172  0.00  0.00    -0.312 N 
ATOM      9  C   UNL     1      -2.142  -1.006  24.957  0.00  0.00    +0.084 C 
ATOM     10  C   UNL     1      -1.509  -0.320  23.712  0.00  0.00    +0.161 C 
ATOM     11  C   UNL     1      -0.933  -1.133  25.903  0.00  0.00    +0.036 C 
ATOM     12  C   UNL     1       0.237  -1.302  24.957  0.00  0.00    +0.087 C 
ATOM     13  C   UNL     1      -4.531  -0.330  24.703  0.00  0.00    +0.074 C 
ATOM     14  C   UNL     1      -1.986   1.106  23.449  0.00  0.00    +0.232 C 
ATOM     15  C   UNL     1      -4.254   0.088  23.246  0.00  0.00    +0.123 C 
ATOM     18  C   UNL     1      -3.656  -1.035  26.859  0.00  0.00    +0.105 C 
ATOM     36  H   UNL     1      -3.715   2.127  22.965  0.00  0.00    +0.149 HD
ENDROOT
BRANCH   3  16
ATOM     16  C   UNL     1       0.734  -0.474  22.739  0.00  0.00    +0.159 C 
BRANCH  16  19
ATOM      6  N   UNL     1       2.935   0.689  23.066  0.00  0.00    -0.330 N 
ATOM      7  N   UNL     1       2.954  -1.527  23.250  0.00  0.00    -0.231 NA
ATOM     19  C   UNL     1       2.209  -0.468  23.021  0.00  0.00    +0.125 A 
ATOM     22  C   UNL     1       4.237   0.355  23.343  0.00  0.00    +0.069 A 
ATOM     23  C   UNL     1       4.222  -1.033  23.454  0.00  0.00    +0.089 A 
ATOM     24  C   UNL     1       2.428   2.026  22.860  0.00  0.00    +0.150 C 
ATOM     25  C   UNL     1       5.390   1.124  23.502  0.00  0.00    +0.028 A 
ATOM     26  C   UNL     1       5.420  -1.710  23.738  0.00  0.00    +0.030 A 
ATOM     28  C   UNL     1       6.573   0.434  23.786  0.00  0.00    +0.002 A 
ATOM     29  C   UNL     1       6.590  -0.958  23.902  0.00  0.00    +0.002 A 
ENDBRANCH  16  19
ENDBRANCH   3  16
BRANCH  13  17
ATOM     17  C   UNL     1      -5.576   0.651  25.276  0.00  0.00    +0.029 C 
BRANCH  17  20
ATOM     20  C   UNL     1      -5.821   1.797  24.312  0.00  0.00    +0.097 C 
BRANCH  20  21
ATOM      2  O   UNL     1      -4.457   3.716  23.745  0.00  0.00    -0.276 OA
ATOM      8  N   UNL     1      -4.707   3.128  25.976  0.00  0.00    -0.311 N 
ATOM     21  C   UNL     1      -4.924   2.984  24.614  0.00  0.00    +0.213 C 
ATOM     37  H   UNL     1      -5.140   2.468  26.617  0.00  0.00    +0.149 HD
BRANCH   8  27
ATOM     27  C   UNL     1      -3.886   4.185  26.518  0.00  0.00    +0.139 C 
BRANCH  27  30
ATOM     30  C   UNL     1      -2.450   4.053  26.098  0.00  0.00    -0.030 A 
ATOM     31  C   UNL     1      -1.691   2.970  26.540  0.00  0.00    +0.005 A 
ATOM     32  C   UNL     1      -1.877   5.013  25.264  0.00  0.00    +0.005 A 
ATOM     33  C   UNL     1      -0.357   2.847  26.149  0.00  0.00    +0.000 A 
ATOM     34  C   UNL     1      -0.543   4.890  24.874  0.00  0.00    +0.000 A 
ATOM     35  C   UNL     1       0.217   3.808  25.316  0.00  0.00    +0.000 A 
ENDBRANCH  27  30
ENDBRANCH   8  27
ENDBRANCH  20  21
ENDBRANCH  17  20
ENDBRANCH  13  17
TORSDOF 7
ENDMDL
MODEL 2
REMARK VINA RESULT:       5.2      2.075      3.007
REMARK  Name = 45360967
REMARK  9 active torsions:
REMARK  status: ('A' for Active; 'I' for Inactive)
REMARK    1  A    between atoms: N_3  and  C_16
REMARK    2  A    between atoms: N_4  and  C_18
REMARK    3  A    between atoms: N_6  and  C_24
REMARK    4  A    between atoms: N_8  and  C_27
REMARK    5  A    between atoms: C_13  and  C_17
REMARK    6  A    between atoms: C_16  and  C_19
REMARK    7  A    between atoms: C_17  and  C_20
REMARK    8  A    between atoms: C_20  and  C_21
REMARK    9  A    between atoms: C_27  and  C_30
REMARK                            x       y       z     vdW  Elec       q    Type
REMARK                         _______ _______ _______ _____ _____    ______ ____
ROOT
ATOM      1  O   UNL     1       0.000   1.219  24.458  0.00  0.00    -0.274 OA
ATOM      3  N   UNL     1      -1.299  -1.148  24.383  0.00  0.00    -0.283 NA
ATOM      4  N   UNL     1      -3.820   1.420  25.048  0.00  0.00    -0.296 NA
ATOM      5  N   UNL     1      -1.657   2.393  23.406  0.00  0.00    -0.312 N 
ATOM      9  C   UNL     1      -3.374   0.100  24.551  0.00  0.00    +0.084 C 
ATOM     10  C   UNL     1      -2.009   0.010  23.808  0.00  0.00    +0.161 C 
ATOM     11  C   UNL     1      -3.209  -0.961  25.655  0.00  0.00    +0.036 C 
ATOM     12  C   UNL     1      -2.303  -1.994  25.018  0.00  0.00    +0.087 C 
ATOM     13  C   UNL     1      -4.066   2.429  23.982  0.00  0.00    +0.074 C 
ATOM     14  C   UNL     1      -1.117   1.240  23.945  0.00  0.00    +0.232 C 
ATOM     15  C   UNL     1      -3.002   2.470  22.868  0.00  0.00    +0.123 C 
ATOM     18  C   UNL     1      -5.011   1.282  25.905  0.00  0.00    +0.105 C 
ATOM     36  H   UNL     1      -1.105   3.244  23.444  0.00  0.00    +0.149 HD
ENDROOT
BRANCH   3  16
ATOM     16  C   UNL     1      -0.502  -1.880  23.408  0.00  0.00    +0.159 C 
BRANCH  16  19
ATOM      6  N   UNL     1       1.310  -0.548  22.291  0.00  0.00    -0.330 N 
ATOM      7  N   UNL     1       1.868  -1.585  24.176  0.00  0.00    -0.231 NA
ATOM     19  C   UNL     1       0.901  -1.352  23.317  0.00  0.00    +0.125 A 
ATOM     22  C   UNL     1       2.631  -0.241  22.501  0.00  0.00    +0.069 A 
ATOM     23  C   UNL     1       2.956  -0.900  23.683  0.00  0.00    +0.089 A 
ATOM     24  C   UNL     1       0.501  -0.098  21.181  0.00  0.00    +0.150 C 
ATOM     25  C   UNL     1       3.541   0.532  21.780  0.00  0.00    +0.028 A 
ATOM     26  C   UNL     1       4.261  -0.793  24.191  0.00  0.00    +0.030 A 
ATOM     28  C   UNL     1       4.836   0.629  22.300  0.00  0.00    +0.002 A 
ATOM     29  C   UNL     1       5.192  -0.021  23.484  0.00  0.00    +0.002 A 
ENDBRANCH  16  19
ENDBRANCH   3  16
BRANCH  13  17
ATOM     17  C   UNL     1      -4.156   3.845  24.590  0.00  0.00    +0.029 C 
BRANCH  17  20
ATOM     20  C   UNL     1      -3.426   3.905  25.919  0.00  0.00    +0.097 C 
BRANCH  20  21
ATOM      2  O   UNL     1      -1.490   5.116  25.112  0.00  0.00    -0.276 OA
ATOM      8  N   UNL     1      -1.176   3.171  26.340  0.00  0.00    -0.311 N 
ATOM     21  C   UNL     1      -1.941   4.155  25.731  0.00  0.00    +0.213 C 
ATOM     37  H   UNL     1      -1.646   2.414  26.830  0.00  0.00    +0.149 HD
BRANCH   8  27
ATOM     27  C   UNL     1       0.267   3.183  26.303  0.00  0.00    +0.139 C 
BRANCH  27  30
ATOM     30  C   UNL     1       0.867   2.905  27.652  0.00  0.00    -0.030 A 
ATOM     31  C   UNL     1       2.248   2.977  27.829  0.00  0.00    +0.005 A 
ATOM     32  C   UNL     1       0.041   2.577  28.728  0.00  0.00    +0.005 A 
ATOM     33  C   UNL     1       2.805   2.719  29.082  0.00  0.00    +0.000 A 
ATOM     34  C   UNL     1       0.599   2.318  29.980  0.00  0.00    +0.000 A 
ATOM     35  C   UNL     1       1.980   2.389  30.157  0.00  0.00    +0.000 A 
ENDBRANCH  27  30
ENDBRANCH   8  27
ENDBRANCH  20  21
ENDBRANCH  17  20
ENDBRANCH  13  17
TORSDOF 7
ENDMDL
MODEL 3
REMARK VINA RESULT:       6.5      1.232      1.748
REMARK  Name = 45360967
REMARK  9 active torsions:
REMARK  status: ('A' for Active; 'I' for Inactive)
REMARK    1  A    between atoms: N_3  and  C_16
REMARK    2  A    between atoms: N_4  and  C_18
REMARK    3  A    between atoms: N_6  and  C_24
REMARK    4  A    between atoms: N_8  and  C_27
REMARK    5  A    between atoms: C_13  and  C_17
REMARK    6  A    between atoms: C_16  and  C_19
REMARK    7  A    between atoms: C_17  and  C_20
REMARK    8  A    between atoms: C_20  and  C_21
REMARK    9  A    between atoms: C_27  and  C_30
REMARK                            x       y       z     vdW  Elec       q    Type
REMARK                         _______ _______ _______ _____ _____    ______ ____
ROOT
ATOM      1  O   UNL     1      -2.502   2.599  22.877  0.00  0.00    -0.274 OA
ATOM      3  N   UNL     1      -0.286   1.390  23.837  0.00  0.00    -0.283 NA
ATOM      4  N   UNL     1      -3.154  -0.295  25.364  0.00  0.00    -0.296 NA
ATOM      5  N   UNL     1      -3.726   0.674  22.707  0.00  0.00    -0.312 N 
ATOM      9  C   UNL     1      -1.751  -0.229  24.898  0.00  0.00    +0.084 C 
ATOM     10  C   UNL     1      -1.445   0.518  23.567  0.00  0.00    +0.161 C 
ATOM     11  C   UNL     1      -0.798   0.471  25.885  0.00  0.00    +0.036 C 
ATOM     12  C   UNL     1       0.383   0.858  25.019  0.00  0.00    +0.087 C 
ATOM     13  C   UNL     1      -4.069  -1.044  24.459  0.00  0.00    +0.074 C 
ATOM     14  C   UNL     1      -2.586   1.383  23.037  0.00  0.00    +0.232 C 
ATOM     15  C   UNL     1      -3.885  -0.745  22.958  0.00  0.00    +0.123 C 
ATOM     18  C   UNL     1      -3.227  -0.841  26.730  0.00  0.00    +0.105 C 
ATOM     36  H   UNL     1      -4.515   1.187  22.327  0.00  0.00    +0.149 HD
ENDROOT
BRANCH   3  16
ATOM     16  C   UNL     1       0.620   1.513  22.703  0.00  0.00    +0.159 C 
BRANCH  16  19
ATOM      6  N   UNL     1       2.147  -0.422  23.175  0.00  0.00    -0.330 N 
ATOM      7  N   UNL     1       3.095   1.587  23.102  0.00  0.00    -0.231 NA
ATOM     19  C   UNL     1       1.968   0.920  22.992  0.00  0.00    +0.125 A 
ATOM     22  C   UNL     1       3.480  -0.637  23.419  0.00  0.00    +0.069 A 
ATOM     23  C   UNL     1       4.050   0.632  23.367  0.00  0.00    +0.089 A 
ATOM     24  C   UNL     1       1.120  -1.438  23.122  0.00  0.00    +0.150 C 
ATOM     25  C   UNL     1       4.213  -1.796  23.671  0.00  0.00    +0.028 A 
ATOM     26  C   UNL     1       5.432   0.771  23.579  0.00  0.00    +0.030 A 
ATOM     28  C   UNL     1       5.588  -1.640  23.879  0.00  0.00    +0.002 A 
ATOM     29  C   UNL     1       6.188  -0.380  23.834  0.00  0.00    +0.002 A 
ENDBRANCH  16  19
ENDBRANCH   3  16
BRANCH  13  17
ATOM     17  C   UNL     1      -5.541  -0.748  24.814  0.00  0.00    +0.029 C 
BRANCH  17  20
ATOM     20  C   UNL     1      -5.923   0.659  24.391  0.00  0.00    +0.097 C 
BRANCH  20  21
ATOM      2  O   UNL     1      -6.215   1.609  26.599  0.00  0.00    -0.276 OA
ATOM      8  N   UNL     1      -4.759   2.636  25.111  0.00  0.00    -0.311 N 
ATOM     21  C   UNL     1      -5.670   1.665  25.499  0.00  0.00    +0.213 C 
ATOM     37  H   UNL     1      -4.362   2.594  24.176  0.00  0.00    +0.149 HD
BRANCH   8  27
ATOM     27  C   UNL     1      -4.352   3.707  25.990  0.00  0.00    +0.139 C 
BRANCH  27  30
ATOM     30  C   UNL     1      -2.981   4.220  25.655  0.00  0.00    -0.030 A 
ATOM     31  C   UNL     1      -1.853   3.499  26.044  0.00  0.00    +0.005 A 
ATOM     32  C   UNL     1      -2.837   5.417  24.953  0.00  0.00    +0.005 A 
ATOM     33  C   UNL     1      -0.579   3.975  25.731  0.00  0.00    +0.000 A 
ATOM     34  C   UNL     1      -1.564   5.893  24.642  0.00  0.00    +0.000 A 
ATOM     35  C   UNL     1      -0.434   5.173  25.031  0.00  0.00    +0.000 A 
ENDBRANCH  27  30
ENDBRANCH   8  27
ENDBRANCH  20  21
ENDBRANCH  17  20
ENDBRANCH  13  17
TORSDOF 7
ENDMDL
MODEL 4
REMARK VINA RESULT:       6.6      1.570      3.615
REMARK  Name = 45360967
REMARK  9 active torsions:
REMARK  status: ('A' for Active; 'I' for Inactive)
REMARK    1  A    between atoms: N_3  and  C_16
REMARK    2  A    between atoms: N_4  and  C_18
REMARK    3  A    between atoms: N_6  and  C_24
REMARK    4  A    between atoms: N_8  and  C_27
REMARK    5  A    between atoms: C_13  and  C_17
REMARK    6  A    between atoms: C_16  and  C_19
REMARK    7  A    between atoms: C_17  and  C_20
REMARK    8  A    between atoms: C_20  and  C_21
REMARK    9  A    between atoms: C_27  and  C_30
REMARK                            x       y       z     vdW  Elec       q    Type
REMARK                         _______ _______ _______ _____ _____    ______ ____
ROOT
ATOM      1  O   UNL     1      -1.887   2.341  21.402  0.00  0.00    -0.274 OA
ATOM      3  N   UNL     1       0.046   1.611  23.142  0.00  0.00    -0.283 NA
ATOM      4  N   UNL     1      -2.521   3.352  25.084  0.00  0.00    -0.296 NA
ATOM      5  N   UNL     1      -3.620   1.918  22.835  0.00  0.00    -0.312 N 
ATOM      9  C   UNL     1      -1.401   2.399  24.925  0.00  0.00    +0.084 C 
ATOM     10  C   UNL     1      -1.343   1.533  23.632  0.00  0.00    +0.161 C 
ATOM     11  C   UNL     1      -0.011   3.061  24.930  0.00  0.00    +0.036 C 
ATOM     12  C   UNL     1       0.874   2.026  24.268  0.00  0.00    +0.087 C 
ATOM     13  C   UNL     1      -3.865   2.717  25.167  0.00  0.00    +0.074 C 
ATOM     14  C   UNL     1      -2.277   1.982  22.512  0.00  0.00    +0.232 C 
ATOM     15  C   UNL     1      -4.108   1.578  24.157  0.00  0.00    +0.123 C 
ATOM     18  C   UNL     1      -2.299   4.231  26.246  0.00  0.00    +0.105 C 
ATOM     36  H   UNL     1      -4.296   2.182  22.126  0.00  0.00    +0.149 HD
ENDROOT
BRANCH   3  16
ATOM     16  C   UNL     1       0.517   0.371  22.540  0.00  0.00    +0.159 C 
BRANCH  16  19
ATOM      6  N   UNL     1       2.415  -0.908  23.571  0.00  0.00    -0.330 N 
ATOM      7  N   UNL     1       2.969   0.871  22.360  0.00  0.00    -0.231 NA
ATOM     19  C   UNL     1       1.975   0.135  22.807  0.00  0.00    +0.125 A 
ATOM     22  C   UNL     1       3.785  -0.844  23.620  0.00  0.00    +0.069 A 
ATOM     23  C   UNL     1       4.106   0.275  22.856  0.00  0.00    +0.089 A 
ATOM     24  C   UNL     1       1.590  -1.906  24.214  0.00  0.00    +0.150 C 
ATOM     25  C   UNL     1       4.741  -1.642  24.247  0.00  0.00    +0.028 A 
ATOM     26  C   UNL     1       5.455   0.633  22.699  0.00  0.00    +0.030 A 
ATOM     28  C   UNL     1       6.080  -1.273  24.079  0.00  0.00    +0.002 A 
ATOM     29  C   UNL     1       6.432  -0.155  23.319  0.00  0.00    +0.002 A 
ENDBRANCH  16  19
ENDBRANCH   3  16
BRANCH  13  17
ATOM     17  C   UNL     1      -4.974   3.769  24.955  0.00  0.00    +0.029 C 
BRANCH  17  20
ATOM     20  C   UNL     1      -6.324   3.218  25.377  0.00  0.00    +0.097 C 
BRANCH  20  21
ATOM      2  O   UNL     1      -6.692   1.908  27.380  0.00  0.00    -0.276 OA
ATOM      8  N   UNL     1      -5.397   1.019  25.671  0.00  0.00    -0.311 N 
ATOM     21  C   UNL     1      -6.176   1.999  26.269  0.00  0.00    +0.213 C 
ATOM     37  H   UNL     1      -5.014   1.190  24.745  0.00  0.00    +0.149 HD
BRANCH   8  27
ATOM     27  C   UNL     1      -5.109  -0.238  26.320  0.00  0.00    +0.139 C 
BRANCH  27  30
ATOM     30  C   UNL     1      -3.986  -0.973  25.647  0.00  0.00    -0.030 A 
ATOM     31  C   UNL     1      -2.678  -0.820  26.106  0.00  0.00    +0.005 A 
ATOM     32  C   UNL     1      -4.251  -1.811  24.563  0.00  0.00    +0.005 A 
ATOM     33  C   UNL     1      -1.635  -1.504  25.480  0.00  0.00    +0.000 A 
ATOM     34  C   UNL     1      -3.208  -2.493  23.937  0.00  0.00    +0.000 A 
ATOM     35  C   UNL     1      -1.900  -2.340  24.396  0.00  0.00    +0.000 A 
ENDBRANCH  27  30
ENDBRANCH   8  27
ENDBRANCH  20  21
ENDBRANCH  17  20
ENDBRANCH  13  17
TORSDOF 7
ENDMDL
