MODEL 1
REMARK VINA RESULT:      -4.5      0.000      0.000
REMARK  Name = 51137298
REMARK  4 active torsions:
REMARK  status: ('A' for Active; 'I' for Inactive)
REMARK    1  A    between atoms: N_3  and  C_11
REMARK    2  A    between atoms: C_7  and  C_12
REMARK    3  A    between atoms: C_11  and  C_13
REMARK    4  A    between atoms: C_16  and  C_19
REMARK                            x       y       z     vdW  Elec       q    Type
REMARK                         _______ _______ _______ _____ _____    ______ ____
ROOT
ATOM      3  N   UNL     1      -5.422  -8.774   9.042  0.00  0.00    -0.297 NA
ATOM      7  C   UNL     1      -3.587  -9.669  10.195  0.00  0.00    +0.092 C 
ATOM      8  C   UNL     1      -4.273 -10.779   9.380  0.00  0.00    +0.029 C 
ATOM      9  C   UNL     1      -4.611  -8.527  10.236  0.00  0.00    +0.097 C 
ATOM     10  C   UNL     1      -5.646 -10.220   9.032  0.00  0.00    +0.085 C 
ENDROOT
BRANCH   7  12
ATOM      2  O   UNL     1      -4.038 -10.054  12.571  0.00  0.00    -0.420 OA
ATOM      4  N   UNL     1      -1.931 -10.492  11.961  0.00  0.00    -0.112 NA
ATOM      5  N   UNL     1      -2.046 -10.748  13.314  0.00  0.00    -0.107 NA
ATOM     12  C   UNL     1      -3.118 -10.088  11.569  0.00  0.00    +0.222 A 
ATOM     16  C   UNL     1      -3.292 -10.479  13.627  0.00  0.00    +0.248 A 
BRANCH  16  19
ATOM      6  N   UNL     1      -5.307 -10.730  17.337  0.00  0.00    -0.263 NA
ATOM     19  C   UNL     1      -3.976 -10.563  14.885  0.00  0.00    +0.041 A 
ATOM     21  C   UNL     1      -5.365 -10.532  14.928  0.00  0.00    +0.033 A 
ATOM     22  C   UNL     1      -3.251 -10.679  16.067  0.00  0.00    +0.033 A 
ATOM     23  C   UNL     1      -5.977 -10.617  16.168  0.00  0.00    +0.111 A 
ATOM     24  C   UNL     1      -3.958 -10.757  17.256  0.00  0.00    +0.111 A 
ENDBRANCH  16  19
ENDBRANCH   7  12
BRANCH   3  11
ATOM     11  C   UNL     1      -6.668  -8.021   9.050  0.00  0.00    +0.122 C 
BRANCH  11  13
ATOM      1  F   UNL     1      -6.629  -8.634  11.815  0.00  0.00    -0.205 F 
ATOM     13  C   UNL     1      -7.774  -8.774   9.741  0.00  0.00    +0.002 A 
ATOM     14  C   UNL     1      -7.690  -9.042  11.107  0.00  0.00    +0.128 A 
ATOM     15  C   UNL     1      -8.884  -9.202   9.012  0.00  0.00    +0.008 A 
ATOM     17  C   UNL     1      -8.717  -9.740  11.744  0.00  0.00    +0.038 A 
ATOM     18  C   UNL     1      -9.909  -9.900   9.649  0.00  0.00    +0.000 A 
ATOM     20  C   UNL     1      -9.826 -10.168  11.016  0.00  0.00    +0.003 A 
ENDBRANCH  11  13
ENDBRANCH   3  11
TORSDOF 4
ENDMDL
MODEL 2
REMARK VINA RESULT:      -3.2     14.633     16.904
REMARK  Name = 51137298
REMARK  4 active torsions:
REMARK  status: ('A' for Active; 'I' for Inactive)
REMARK    1  A    between atoms: N_3  and  C_11
REMARK    2  A    between atoms: C_7  and  C_12
REMARK    3  A    between atoms: C_11  and  C_13
REMARK    4  A    between atoms: C_16  and  C_19
REMARK                            x       y       z     vdW  Elec       q    Type
REMARK                         _______ _______ _______ _____ _____    ______ ____
ROOT
ATOM      3  N   UNL     1      -3.021   1.665  24.889  0.00  0.00    -0.297 NA
ATOM      7  C   UNL     1      -0.846   1.765  24.018  0.00  0.00    +0.092 C 
ATOM      8  C   UNL     1      -1.806   2.531  23.092  0.00  0.00    +0.029 C 
ATOM      9  C   UNL     1      -1.761   0.918  24.914  0.00  0.00    +0.097 C 
ATOM     10  C   UNL     1      -3.198   2.059  23.491  0.00  0.00    +0.085 C 
ENDROOT
BRANCH   7  12
ATOM      2  O   UNL     1       1.453   0.938  23.846  0.00  0.00    -0.420 OA
ATOM      4  N   UNL     1       0.099   0.215  22.218  0.00  0.00    -0.112 NA
ATOM      5  N   UNL     1       1.353  -0.322  22.001  0.00  0.00    -0.107 NA
ATOM     12  C   UNL     1       0.203   0.944  23.305  0.00  0.00    +0.222 A 
ATOM     16  C   UNL     1       2.111   0.126  22.975  0.00  0.00    +0.248 A 
BRANCH  16  19
ATOM      6  N   UNL     1       6.202  -0.551  23.808  0.00  0.00    -0.263 NA
ATOM     19  C   UNL     1       3.499  -0.104  23.256  0.00  0.00    +0.041 A 
ATOM     21  C   UNL     1       4.430   0.905  23.041  0.00  0.00    +0.033 A 
ATOM     22  C   UNL     1       3.917  -1.336  23.748  0.00  0.00    +0.033 A 
ATOM     23  C   UNL     1       5.758   0.633  23.329  0.00  0.00    +0.111 A 
ATOM     24  C   UNL     1       5.267  -1.507  24.005  0.00  0.00    +0.111 A 
ENDBRANCH  16  19
ENDBRANCH   7  12
BRANCH   3  11
ATOM     11  C   UNL     1      -4.141   0.881  25.390  0.00  0.00    +0.122 C 
BRANCH  11  13
ATOM      1  F   UNL     1      -2.914  -1.032  27.081  0.00  0.00    -0.205 F 
ATOM     13  C   UNL     1      -4.014  -0.575  25.027  0.00  0.00    +0.002 A 
ATOM     14  C   UNL     1      -3.397  -1.464  25.908  0.00  0.00    +0.128 A 
ATOM     15  C   UNL     1      -4.514  -1.034  23.809  0.00  0.00    +0.008 A 
ATOM     17  C   UNL     1      -3.281  -2.813  25.569  0.00  0.00    +0.038 A 
ATOM     18  C   UNL     1      -4.397  -2.381  23.470  0.00  0.00    +0.000 A 
ATOM     20  C   UNL     1      -3.781  -3.271  24.350  0.00  0.00    +0.003 A 
ENDBRANCH  11  13
ENDBRANCH   3  11
TORSDOF 4
ENDMDL
MODEL 3
REMARK VINA RESULT:      -2.9      1.646      2.292
REMARK  Name = 51137298
REMARK  4 active torsions:
REMARK  status: ('A' for Active; 'I' for Inactive)
REMARK    1  A    between atoms: N_3  and  C_11
REMARK    2  A    between atoms: C_7  and  C_12
REMARK    3  A    between atoms: C_11  and  C_13
REMARK    4  A    between atoms: C_16  and  C_19
REMARK                            x       y       z     vdW  Elec       q    Type
REMARK                         _______ _______ _______ _____ _____    ______ ____
ROOT
ATOM      3  N   UNL     1      -6.988  -8.831   9.644  0.00  0.00    -0.297 NA
ATOM      7  C   UNL     1      -4.696  -8.899  10.135  0.00  0.00    +0.092 C 
ATOM      8  C   UNL     1      -4.948  -9.551   8.765  0.00  0.00    +0.029 C 
ATOM      9  C   UNL     1      -6.081  -8.830  10.794  0.00  0.00    +0.097 C 
ATOM     10  C   UNL     1      -6.443  -9.839   8.734  0.00  0.00    +0.085 C 
ENDROOT
BRANCH   7  12
ATOM      2  O   UNL     1      -3.872  -9.576  12.340  0.00  0.00    -0.420 OA
ATOM      4  N   UNL     1      -2.586 -10.252  10.639  0.00  0.00    -0.112 NA
ATOM      5  N   UNL     1      -2.010 -10.697  11.813  0.00  0.00    -0.107 NA
ATOM     12  C   UNL     1      -3.670  -9.601  10.994  0.00  0.00    +0.222 A 
ATOM     16  C   UNL     1      -2.794 -10.280  12.780  0.00  0.00    +0.248 A 
BRANCH  16  19
ATOM      6  N   UNL     1      -2.492 -10.781  16.969  0.00  0.00    -0.263 NA
ATOM     19  C   UNL     1      -2.692 -10.449  14.201  0.00  0.00    +0.041 A 
ATOM     21  C   UNL     1      -3.840 -10.479  14.984  0.00  0.00    +0.033 A 
ATOM     22  C   UNL     1      -1.444 -10.585  14.799  0.00  0.00    +0.033 A 
ATOM     23  C   UNL     1      -3.687 -10.646  16.351  0.00  0.00    +0.111 A 
ATOM     24  C   UNL     1      -1.399 -10.747  16.174  0.00  0.00    +0.111 A 
ENDBRANCH  16  19
ENDBRANCH   7  12
BRANCH   3  11
ATOM     11  C   UNL     1      -8.365  -9.113  10.023  0.00  0.00    +0.122 C 
BRANCH  11  13
ATOM      1  F   UNL     1     -10.719  -8.932  11.589  0.00  0.00    -0.205 F 
ATOM     13  C   UNL     1      -8.462  -9.651  11.427  0.00  0.00    +0.002 A 
ATOM     14  C   UNL     1      -9.653  -9.527  12.142  0.00  0.00    +0.128 A 
ATOM     15  C   UNL     1      -7.359 -10.272  12.011  0.00  0.00    +0.008 A 
ATOM     17  C   UNL     1      -9.740 -10.026  13.442  0.00  0.00    +0.038 A 
ATOM     18  C   UNL     1      -7.446 -10.770  13.310  0.00  0.00    +0.000 A 
ATOM     20  C   UNL     1      -8.637 -10.647  14.026  0.00  0.00    +0.003 A 
ENDBRANCH  11  13
ENDBRANCH   3  11
TORSDOF 4
ENDMDL
MODEL 4
REMARK VINA RESULT:      -2.7     15.582     17.237
REMARK  Name = 51137298
REMARK  4 active torsions:
REMARK  status: ('A' for Active; 'I' for Inactive)
REMARK    1  A    between atoms: N_3  and  C_11
REMARK    2  A    between atoms: C_7  and  C_12
REMARK    3  A    between atoms: C_11  and  C_13
REMARK    4  A    between atoms: C_16  and  C_19
REMARK                            x       y       z     vdW  Elec       q    Type
REMARK                         _______ _______ _______ _____ _____    ______ ____
ROOT
ATOM      3  N   UNL     1      -3.482  -0.978  25.108  0.00  0.00    -0.297 NA
ATOM      7  C   UNL     1      -1.283  -1.398  24.406  0.00  0.00    +0.092 C 
ATOM      8  C   UNL     1      -1.276  -0.944  25.876  0.00  0.00    +0.029 C 
ATOM      9  C   UNL     1      -2.675  -1.010  23.886  0.00  0.00    +0.097 C 
ATOM     10  C   UNL     1      -2.641  -0.304  26.097  0.00  0.00    +0.085 C 
ENDROOT
BRANCH   7  12
ATOM      2  O   UNL     1       1.099  -0.952  24.059  0.00  0.00    -0.420 OA
ATOM      4  N   UNL     1      -0.214  -0.241  22.393  0.00  0.00    -0.112 NA
ATOM      5  N   UNL     1       1.093   0.073  22.072  0.00  0.00    -0.107 NA
ATOM     12  C   UNL     1      -0.163  -0.837  23.562  0.00  0.00    +0.222 A 
ATOM     16  C   UNL     1       1.825  -0.361  23.071  0.00  0.00    +0.248 A 
BRANCH  16  19
ATOM      6  N   UNL     1       6.006  -0.207  23.686  0.00  0.00    -0.263 NA
ATOM     19  C   UNL     1       3.243  -0.309  23.279  0.00  0.00    +0.041 A 
ATOM     21  C   UNL     1       3.953   0.843  22.960  0.00  0.00    +0.033 A 
ATOM     22  C   UNL     1       3.913  -1.410  23.802  0.00  0.00    +0.033 A 
ATOM     23  C   UNL     1       5.321   0.843  23.180  0.00  0.00    +0.111 A 
ATOM     24  C   UNL     1       5.282  -1.309  23.984  0.00  0.00    +0.111 A 
ENDBRANCH  16  19
ENDBRANCH   7  12
BRANCH   3  11
ATOM     11  C   UNL     1      -4.758  -0.305  24.914  0.00  0.00    +0.122 C 
BRANCH  11  13
ATOM      1  F   UNL     1      -6.287   1.518  26.450  0.00  0.00    -0.205 F 
ATOM     13  C   UNL     1      -4.595   1.189  24.819  0.00  0.00    +0.002 A 
ATOM     14  C   UNL     1      -5.382   2.030  25.606  0.00  0.00    +0.128 A 
ATOM     15  C   UNL     1      -3.655   1.732  23.943  0.00  0.00    +0.008 A 
ATOM     17  C   UNL     1      -5.229   3.414  25.516  0.00  0.00    +0.038 A 
ATOM     18  C   UNL     1      -3.502   3.114  23.852  0.00  0.00    +0.000 A 
ATOM     20  C   UNL     1      -4.289   3.956  24.640  0.00  0.00    +0.003 A 
ENDBRANCH  11  13
ENDBRANCH   3  11
TORSDOF 4
ENDMDL
MODEL 5
REMARK VINA RESULT:      -1.9     15.683     17.836
REMARK  Name = 51137298
REMARK  4 active torsions:
REMARK  status: ('A' for Active; 'I' for Inactive)
REMARK    1  A    between atoms: N_3  and  C_11
REMARK    2  A    between atoms: C_7  and  C_12
REMARK    3  A    between atoms: C_11  and  C_13
REMARK    4  A    between atoms: C_16  and  C_19
REMARK                            x       y       z     vdW  Elec       q    Type
REMARK                         _______ _______ _______ _____ _____    ______ ____
ROOT
ATOM      3  N   UNL     1      -2.893   0.237  24.978  0.00  0.00    -0.297 NA
ATOM      7  C   UNL     1      -1.282  -0.839  23.656  0.00  0.00    +0.092 C 
ATOM      8  C   UNL     1      -1.124  -1.282  25.120  0.00  0.00    +0.029 C 
ATOM      9  C   UNL     1      -2.162   0.418  23.723  0.00  0.00    +0.097 C 
ATOM     10  C   UNL     1      -1.892  -0.246  25.930  0.00  0.00    +0.085 C 
ENDROOT
BRANCH   7  12
ATOM      2  O   UNL     1       1.154  -0.588  23.665  0.00  0.00    -0.420 OA
ATOM      4  N   UNL     1       0.228  -0.423  21.636  0.00  0.00    -0.112 NA
ATOM      5  N   UNL     1       1.594  -0.264  21.497  0.00  0.00    -0.107 NA
ATOM     12  C   UNL     1       0.016  -0.610  22.918  0.00  0.00    +0.222 A 
ATOM     16  C   UNL     1       2.094  -0.367  22.707  0.00  0.00    +0.248 A 
BRANCH  16  19
ATOM      6  N   UNL     1       6.096  -0.127  24.052  0.00  0.00    -0.263 NA
ATOM     19  C   UNL     1       3.451  -0.286  23.164  0.00  0.00    +0.041 A 
ATOM     21  C   UNL     1       4.053  -1.387  23.761  0.00  0.00    +0.033 A 
ATOM     22  C   UNL     1       4.170   0.894  23.009  0.00  0.00    +0.033 A 
ATOM     23  C   UNL     1       5.365  -1.257  24.185  0.00  0.00    +0.111 A 
ATOM     24  C   UNL     1       5.477   0.922  23.467  0.00  0.00    +0.111 A 
ENDBRANCH  16  19
ENDBRANCH   7  12
BRANCH   3  11
ATOM     11  C   UNL     1      -3.539   1.462  25.427  0.00  0.00    +0.122 C 
BRANCH  11  13
ATOM      1  F   UNL     1      -4.460   4.014  24.612  0.00  0.00    -0.205 F 
ATOM     13  C   UNL     1      -2.633   2.657  25.288  0.00  0.00    +0.002 A 
ATOM     14  C   UNL     1      -3.154   3.886  24.882  0.00  0.00    +0.128 A 
ATOM     15  C   UNL     1      -1.272   2.534  25.567  0.00  0.00    +0.008 A 
ATOM     17  C   UNL     1      -2.312   4.991  24.754  0.00  0.00    +0.038 A 
ATOM     18  C   UNL     1      -0.431   3.639  25.439  0.00  0.00    +0.000 A 
ATOM     20  C   UNL     1      -0.951   4.868  25.033  0.00  0.00    +0.003 A 
ENDBRANCH  11  13
ENDBRANCH   3  11
TORSDOF 4
ENDMDL
MODEL 6
REMARK VINA RESULT:      -1.9     15.004     17.694
REMARK  Name = 51137298
REMARK  4 active torsions:
REMARK  status: ('A' for Active; 'I' for Inactive)
REMARK    1  A    between atoms: N_3  and  C_11
REMARK    2  A    between atoms: C_7  and  C_12
REMARK    3  A    between atoms: C_11  and  C_13
REMARK    4  A    between atoms: C_16  and  C_19
REMARK                            x       y       z     vdW  Elec       q    Type
REMARK                         _______ _______ _______ _____ _____    ______ ____
ROOT
ATOM      3  N   UNL     1      -1.666   4.660  25.623  0.00  0.00    -0.297 NA
ATOM      7  C   UNL     1      -0.239   2.832  25.270  0.00  0.00    +0.092 C 
ATOM      8  C   UNL     1       0.055   3.923  24.226  0.00  0.00    +0.029 C 
ATOM      9  C   UNL     1      -1.604   3.216  25.860  0.00  0.00    +0.097 C 
ATOM     10  C   UNL     1      -1.160   4.841  24.262  0.00  0.00    +0.085 C 
ENDROOT
BRANCH   7  12
ATOM      2  O   UNL     1      -1.362   0.706  24.808  0.00  0.00    -0.420 OA
ATOM      4  N   UNL     1       0.790   0.750  24.201  0.00  0.00    -0.112 NA
ATOM      5  N   UNL     1       0.283  -0.497  23.888  0.00  0.00    -0.107 NA
ATOM     12  C   UNL     1      -0.205   1.419  24.737  0.00  0.00    +0.222 A 
ATOM     16  C   UNL     1      -0.976  -0.478  24.259  0.00  0.00    +0.248 A 
BRANCH  16  19
ATOM      6  N   UNL     1      -3.957  -3.468  24.018  0.00  0.00    -0.263 NA
ATOM     19  C   UNL     1      -1.986  -1.492  24.176  0.00  0.00    +0.041 A 
ATOM     21  C   UNL     1      -1.634  -2.835  24.242  0.00  0.00    +0.033 A 
ATOM     22  C   UNL     1      -3.323  -1.136  24.032  0.00  0.00    +0.033 A 
ATOM     23  C   UNL     1      -2.647  -3.776  24.159  0.00  0.00    +0.111 A 
ATOM     24  C   UNL     1      -4.261  -2.152  23.958  0.00  0.00    +0.111 A 
ENDBRANCH  16  19
ENDBRANCH   7  12
BRANCH   3  11
ATOM     11  C   UNL     1      -3.010   5.193  25.790  0.00  0.00    +0.122 C 
BRANCH  11  13
ATOM      1  F   UNL     1      -3.584   4.062  23.257  0.00  0.00    -0.205 F 
ATOM     13  C   UNL     1      -4.063   4.136  25.581  0.00  0.00    +0.002 A 
ATOM     14  C   UNL     1      -4.294   3.622  24.305  0.00  0.00    +0.128 A 
ATOM     15  C   UNL     1      -4.806   3.672  26.666  0.00  0.00    +0.008 A 
ATOM     17  C   UNL     1      -5.269   2.643  24.115  0.00  0.00    +0.038 A 
ATOM     18  C   UNL     1      -5.782   2.694  26.475  0.00  0.00    +0.000 A 
ATOM     20  C   UNL     1      -6.013   2.179  25.199  0.00  0.00    +0.003 A 
ENDBRANCH  11  13
ENDBRANCH   3  11
TORSDOF 4
ENDMDL
MODEL 7
REMARK VINA RESULT:      -1.9     15.170     18.311
REMARK  Name = 51137298
REMARK  4 active torsions:
REMARK  status: ('A' for Active; 'I' for Inactive)
REMARK    1  A    between atoms: N_3  and  C_11
REMARK    2  A    between atoms: C_7  and  C_12
REMARK    3  A    between atoms: C_11  and  C_13
REMARK    4  A    between atoms: C_16  and  C_19
REMARK                            x       y       z     vdW  Elec       q    Type
REMARK                         _______ _______ _______ _____ _____    ______ ____
ROOT
ATOM      3  N   UNL     1      -2.896   5.023  25.310  0.00  0.00    -0.297 NA
ATOM      7  C   UNL     1      -4.739   3.611  24.974  0.00  0.00    +0.092 C 
ATOM      8  C   UNL     1      -4.729   4.106  26.430  0.00  0.00    +0.029 C 
ATOM      9  C   UNL     1      -3.329   3.921  24.449  0.00  0.00    +0.097 C 
ATOM     10  C   UNL     1      -3.320   4.638  26.656  0.00  0.00    +0.085 C 
ENDROOT
BRANCH   7  12
ATOM      2  O   UNL     1      -4.112   1.258  24.715  0.00  0.00    -0.420 OA
ATOM      4  N   UNL     1      -6.319   1.619  24.712  0.00  0.00    -0.112 NA
ATOM      5  N   UNL     1      -6.108   0.262  24.559  0.00  0.00    -0.107 NA
ATOM     12  C   UNL     1      -5.126   2.162  24.798  0.00  0.00    +0.222 A 
ATOM     16  C   UNL     1      -4.805   0.097  24.567  0.00  0.00    +0.248 A 
BRANCH  16  19
ATOM      6  N   UNL     1      -2.482  -3.419  24.211  0.00  0.00    -0.263 NA
ATOM     19  C   UNL     1      -4.017  -1.095  24.445  0.00  0.00    +0.041 A 
ATOM     21  C   UNL     1      -2.710  -1.118  24.919  0.00  0.00    +0.033 A 
ATOM     22  C   UNL     1      -4.557  -2.232  23.856  0.00  0.00    +0.033 A 
ATOM     23  C   UNL     1      -1.991  -2.293  24.779  0.00  0.00    +0.111 A 
ATOM     24  C   UNL     1      -3.755  -3.358  23.763  0.00  0.00    +0.111 A 
ENDBRANCH  16  19
ENDBRANCH   7  12
BRANCH   3  11
ATOM     11  C   UNL     1      -1.463   5.262  25.227  0.00  0.00    +0.122 C 
BRANCH  11  13
ATOM      1  F   UNL     1       0.160   4.755  22.961  0.00  0.00    -0.205 F 
ATOM     13  C   UNL     1      -0.690   3.983  25.040  0.00  0.00    +0.002 A 
ATOM     14  C   UNL     1       0.090   3.799  23.898  0.00  0.00    +0.128 A 
ATOM     15  C   UNL     1      -0.756   2.983  26.009  0.00  0.00    +0.008 A 
ATOM     17  C   UNL     1       0.805   2.613  23.727  0.00  0.00    +0.038 A 
ATOM     18  C   UNL     1      -0.042   1.798  25.838  0.00  0.00    +0.000 A 
ATOM     20  C   UNL     1       0.740   1.613  24.697  0.00  0.00    +0.003 A 
ENDBRANCH  11  13
ENDBRANCH   3  11
TORSDOF 4
ENDMDL
MODEL 8
REMARK VINA RESULT:      -1.8      2.993      4.379
REMARK  Name = 51137298
REMARK  4 active torsions:
REMARK  status: ('A' for Active; 'I' for Inactive)
REMARK    1  A    between atoms: N_3  and  C_11
REMARK    2  A    between atoms: C_7  and  C_12
REMARK    3  A    between atoms: C_11  and  C_13
REMARK    4  A    between atoms: C_16  and  C_19
REMARK                            x       y       z     vdW  Elec       q    Type
REMARK                         _______ _______ _______ _____ _____    ______ ____
ROOT
ATOM      3  N   UNL     1      -6.584  -9.051   8.646  0.00  0.00    -0.297 NA
ATOM      7  C   UNL     1      -4.302  -9.499   8.946  0.00  0.00    +0.092 C 
ATOM      8  C   UNL     1      -5.020 -10.777   8.480  0.00  0.00    +0.029 C 
ATOM      9  C   UNL     1      -5.431  -8.564   9.405  0.00  0.00    +0.097 C 
ATOM     10  C   UNL     1      -6.499 -10.509   8.724  0.00  0.00    +0.085 C 
ENDROOT
BRANCH   7  12
ATOM      2  O   UNL     1      -2.224  -8.817  10.049  0.00  0.00    -0.420 OA
ATOM      4  N   UNL     1      -3.161 -10.651  10.922  0.00  0.00    -0.112 NA
ATOM      5  N   UNL     1      -2.006 -10.381  11.632  0.00  0.00    -0.107 NA
ATOM     12  C   UNL     1      -3.248  -9.713  10.007  0.00  0.00    +0.222 A 
ATOM     16  C   UNL     1      -1.492  -9.303  11.088  0.00  0.00    +0.248 A 
BRANCH  16  19
ATOM      6  N   UNL     1       2.019  -7.150  12.050  0.00  0.00    -0.263 NA
ATOM     19  C   UNL     1      -0.302  -8.572  11.414  0.00  0.00    +0.041 A 
ATOM     21  C   UNL     1      -0.328  -7.606  12.413  0.00  0.00    +0.033 A 
ATOM     22  C   UNL     1       0.883  -8.829  10.733  0.00  0.00    +0.033 A 
ATOM     23  C   UNL     1       0.848  -6.928  12.690  0.00  0.00    +0.111 A 
ATOM     24  C   UNL     1       2.005  -8.097  11.086  0.00  0.00    +0.111 A 
ENDBRANCH  16  19
ENDBRANCH   7  12
BRANCH   3  11
ATOM     11  C   UNL     1      -7.846  -8.541   9.164  0.00  0.00    +0.122 C 
BRANCH  11  13
ATOM      1  F   UNL     1     -10.269  -9.965   9.518  0.00  0.00    -0.205 F 
ATOM     13  C   UNL     1      -8.228  -9.203  10.462  0.00  0.00    +0.002 A 
ATOM     14  C   UNL     1      -9.438  -9.889  10.566  0.00  0.00    +0.128 A 
ATOM     15  C   UNL     1      -7.370  -9.130  11.559  0.00  0.00    +0.008 A 
ATOM     17  C   UNL     1      -9.790 -10.503  11.769  0.00  0.00    +0.038 A 
ATOM     18  C   UNL     1      -7.722  -9.742  12.761  0.00  0.00    +0.000 A 
ATOM     20  C   UNL     1      -8.932 -10.429  12.867  0.00  0.00    +0.003 A 
ENDBRANCH  11  13
ENDBRANCH   3  11
TORSDOF 4
ENDMDL
MODEL 9
REMARK VINA RESULT:      -1.7     15.709     17.538
REMARK  Name = 51137298
REMARK  4 active torsions:
REMARK  status: ('A' for Active; 'I' for Inactive)
REMARK    1  A    between atoms: N_3  and  C_11
REMARK    2  A    between atoms: C_7  and  C_12
REMARK    3  A    between atoms: C_11  and  C_13
REMARK    4  A    between atoms: C_16  and  C_19
REMARK                            x       y       z     vdW  Elec       q    Type
REMARK                         _______ _______ _______ _____ _____    ______ ____
ROOT
ATOM      3  N   UNL     1      -5.185   0.927  24.705  0.00  0.00    -0.297 NA
ATOM      7  C   UNL     1      -3.699  -0.870  24.456  0.00  0.00    +0.092 C 
ATOM      8  C   UNL     1      -4.283  -0.880  25.879  0.00  0.00    +0.029 C 
ATOM      9  C   UNL     1      -4.019   0.530  23.914  0.00  0.00    +0.097 C 
ATOM     10  C   UNL     1      -4.871   0.512  26.073  0.00  0.00    +0.085 C 
ENDROOT
BRANCH   7  12
ATOM      2  O   UNL     1      -1.392  -0.230  23.940  0.00  0.00    -0.420 OA
ATOM      4  N   UNL     1      -1.615  -2.338  24.653  0.00  0.00    -0.112 NA
ATOM      5  N   UNL     1      -0.276  -2.111  24.400  0.00  0.00    -0.107 NA
ATOM     12  C   UNL     1      -2.230  -1.213  24.370  0.00  0.00    +0.222 A 
ATOM     16  C   UNL     1      -0.192  -0.869  23.986  0.00  0.00    +0.248 A 
BRANCH  16  19
ATOM      6  N   UNL     1       3.168   1.410  22.801  0.00  0.00    -0.263 NA
ATOM     19  C   UNL     1       0.947  -0.096  23.584  0.00  0.00    +0.041 A 
ATOM     21  C   UNL     1       1.022   1.255  23.904  0.00  0.00    +0.033 A 
ATOM     22  C   UNL     1       1.982  -0.695  22.873  0.00  0.00    +0.033 A 
ATOM     23  C   UNL     1       2.143   1.957  23.493  0.00  0.00    +0.111 A 
ATOM     24  C   UNL     1       3.060   0.094  22.509  0.00  0.00    +0.111 A 
ENDBRANCH  16  19
ENDBRANCH   7  12
BRANCH   3  11
ATOM     11  C   UNL     1      -5.463   2.353  24.609  0.00  0.00    +0.122 C 
BRANCH  11  13
ATOM      1  F   UNL     1      -3.656   3.148  22.578  0.00  0.00    -0.205 F 
ATOM     13  C   UNL     1      -4.237   3.183  24.880  0.00  0.00    +0.002 A 
ATOM     14  C   UNL     1      -3.389   3.540  23.832  0.00  0.00    +0.128 A 
ATOM     15  C   UNL     1      -3.950   3.595  26.181  0.00  0.00    +0.008 A 
ATOM     17  C   UNL     1      -2.253   4.309  24.085  0.00  0.00    +0.038 A 
ATOM     18  C   UNL     1      -2.815   4.364  26.435  0.00  0.00    +0.000 A 
ATOM     20  C   UNL     1      -1.966   4.722  25.387  0.00  0.00    +0.003 A 
ENDBRANCH  11  13
ENDBRANCH   3  11
TORSDOF 4
ENDMDL
MODEL 10
REMARK VINA RESULT:      -1.3      1.493      1.961
REMARK  Name = 51137298
REMARK  4 active torsions:
REMARK  status: ('A' for Active; 'I' for Inactive)
REMARK    1  A    between atoms: N_3  and  C_11
REMARK    2  A    between atoms: C_7  and  C_12
REMARK    3  A    between atoms: C_11  and  C_13
REMARK    4  A    between atoms: C_16  and  C_19
REMARK                            x       y       z     vdW  Elec       q    Type
REMARK                         _______ _______ _______ _____ _____    ______ ____
ROOT
ATOM      3  N   UNL     1      -5.829  -9.258   9.053  0.00  0.00    -0.297 NA
ATOM      7  C   UNL     1      -4.090  -8.886  10.583  0.00  0.00    +0.092 C 
ATOM      8  C   UNL     1      -3.553  -8.743   9.149  0.00  0.00    +0.029 C 
ATOM      9  C   UNL     1      -5.440  -9.600  10.422  0.00  0.00    +0.097 C 
ATOM     10  C   UNL     1      -4.604  -9.403   8.266  0.00  0.00    +0.085 C 
ENDROOT
BRANCH   7  12
ATOM      2  O   UNL     1      -3.481  -9.537  12.864  0.00  0.00    -0.420 OA
ATOM      4  N   UNL     1      -2.064 -10.271  11.297  0.00  0.00    -0.112 NA
ATOM      5  N   UNL     1      -1.605 -10.704  12.526  0.00  0.00    -0.107 NA
ATOM     12  C   UNL     1      -3.161  -9.592  11.542  0.00  0.00    +0.222 A 
ATOM     16  C   UNL     1      -2.463 -10.253  13.411  0.00  0.00    +0.248 A 
BRANCH  16  19
ATOM      6  N   UNL     1      -2.547 -10.675  17.618  0.00  0.00    -0.263 NA
ATOM     19  C   UNL     1      -2.491 -10.397  14.838  0.00  0.00    +0.041 A 
ATOM     21  C   UNL     1      -1.316 -10.648  15.537  0.00  0.00    +0.033 A 
ATOM     22  C   UNL     1      -3.694 -10.285  15.527  0.00  0.00    +0.033 A 
ATOM     23  C   UNL     1      -1.397 -10.778  16.914  0.00  0.00    +0.111 A 
ATOM     24  C   UNL     1      -3.668 -10.430  16.904  0.00  0.00    +0.111 A 
ENDBRANCH  16  19
ENDBRANCH   7  12
BRANCH   3  11
ATOM     11  C   UNL     1      -6.909 -10.098   8.556  0.00  0.00    +0.122 C 
BRANCH  11  13
ATOM      1  F   UNL     1      -7.480  -7.466   9.435  0.00  0.00    -0.205 F 
ATOM     13  C   UNL     1      -8.242  -9.693   9.128  0.00  0.00    +0.002 A 
ATOM     14  C   UNL     1      -8.455  -8.379   9.543  0.00  0.00    +0.128 A 
ATOM     15  C   UNL     1      -9.264 -10.636   9.243  0.00  0.00    +0.008 A 
ATOM     17  C   UNL     1      -9.692  -8.007  10.073  0.00  0.00    +0.038 A 
ATOM     18  C   UNL     1     -10.499 -10.264   9.773  0.00  0.00    +0.000 A 
ATOM     20  C   UNL     1     -10.713  -8.949  10.188  0.00  0.00    +0.003 A 
ENDBRANCH  11  13
ENDBRANCH   3  11
TORSDOF 4
ENDMDL
