MODEL 1
REMARK VINA RESULT:      26.1      0.000      0.000
REMARK  Name = 11866271
REMARK  5 active torsions:
REMARK  status: ('A' for Active; 'I' for Inactive)
REMARK    1  A    between atoms: C_10  and  C_18
REMARK    2  A    between atoms: C_15  and  C_22
REMARK    3  A    between atoms: C_17  and  C_23
REMARK    4  A    between atoms: C_25  and  C_26
REMARK    5  A    between atoms: C_31  and  C_32
REMARK                            x       y       z     vdW  Elec       q    Type
REMARK                         _______ _______ _______ _____ _____    ______ ____
ROOT
ATOM      1  S   UNL     1       0.214  -1.781  23.334  0.00  0.00    -0.057 S 
ATOM      2  O   UNL     1      -3.904   3.503  25.016  0.00  0.00    -0.461 OA
ATOM      3  O   UNL     1      -5.376   5.251  25.268  0.00  0.00    -0.251 OA
ATOM      4  O   UNL     1       3.734   1.235  24.068  0.00  0.00    -0.275 OA
ATOM      6  N   UNL     1       0.773   0.607  24.157  0.00  0.00    -0.229 NA
ATOM      7  N   UNL     1       2.627  -0.759  23.446  0.00  0.00    -0.264 N 
ATOM      9  C   UNL     1      -2.993   1.205  24.518  0.00  0.00    +0.045 C 
ATOM     10  C   UNL     1      -3.328  -0.318  24.827  0.00  0.00    -0.021 C 
ATOM     11  C   UNL     1      -3.978   2.103  25.290  0.00  0.00    +0.184 C 
ATOM     12  C   UNL     1      -5.404   1.783  24.889  0.00  0.00    +0.044 C 
ATOM     13  C   UNL     1      -4.840  -0.612  24.581  0.00  0.00    +0.008 C 
ATOM     14  C   UNL     1      -5.789   0.371  25.281  0.00  0.00    +0.008 C 
ATOM     15  C   UNL     1      -1.482   1.556  24.762  0.00  0.00    +0.043 C 
ATOM     16  C   UNL     1      -2.493  -1.227  23.873  0.00  0.00    +0.051 C 
ATOM     17  C   UNL     1      -6.141   2.942  25.534  0.00  0.00    +0.101 C 
ATOM     18  C   UNL     1      -2.998  -0.704  26.295  0.00  0.00    +0.012 C 
ATOM     19  C   UNL     1      -0.599   0.451  24.234  0.00  0.00    +0.057 A 
ATOM     20  C   UNL     1      -1.069  -0.789  23.850  0.00  0.00    +0.015 A 
ATOM     21  C   UNL     1      -5.142   4.053  25.264  0.00  0.00    +0.311 C 
ATOM     22  C   UNL     1      -1.084   2.901  24.139  0.00  0.00    +0.014 C 
ATOM     23  C   UNL     1      -7.498   3.213  24.911  0.00  0.00    +0.019 C 
ATOM     24  C   UNL     1       1.304  -0.501  23.687  0.00  0.00    +0.165 A 
ATOM     26  C   UNL     1       3.749   0.085  23.639  0.00  0.00    +0.222 C 
ATOM     33  H   UNL     1       2.806  -1.694  23.086  0.00  0.00    +0.157 HD
ENDROOT
BRANCH  26  25
ATOM      5  O   UNL     1       9.729   0.755  22.347  0.00  0.00    -0.276 OA
ATOM      8  N   UNL     1       7.926  -0.493  23.115  0.00  0.00    -0.302 N 
ATOM     25  C   UNL     1       5.038  -0.576  23.258  0.00  0.00    +0.078 C 
ATOM     27  C   UNL     1       5.765   0.288  22.223  0.00  0.00    +0.032 C 
ATOM     28  C   UNL     1       5.908  -0.785  24.501  0.00  0.00    +0.032 C 
ATOM     29  C   UNL     1       7.141  -0.288  21.896  0.00  0.00    +0.108 C 
ATOM     30  C   UNL     1       7.280  -1.340  24.126  0.00  0.00    +0.108 C 
ATOM     31  C   UNL     1       9.195   0.072  23.226  0.00  0.00    +0.212 C 
ATOM     32  C   UNL     1       9.938  -0.182  24.513  0.00  0.00    +0.109 C 
ENDBRANCH  26  25
TORSDOF 1
ENDMDL
