MODEL 1
REMARK VINA RESULT:      -4.1      0.000      0.000
REMARK  Name = 75536743
REMARK  6 active torsions:
REMARK  status: ('A' for Active; 'I' for Inactive)
REMARK    1  A    between atoms: O_2  and  C_9
REMARK    2  A    between atoms: N_5  and  C_8
REMARK    3  A    between atoms: N_5  and  C_13
REMARK    4  A    between atoms: N_5  and  C_14
REMARK    5  A    between atoms: N_6  and  C_12
REMARK    6  A    between atoms: C_10  and  C_12
REMARK                            x       y       z     vdW  Elec       q    Type
REMARK                         _______ _______ _______ _____ _____    ______ ____
ROOT
ATOM     12  C   UNL     1      -3.219  -9.240   9.792  0.00  0.00    +0.140 C 
ENDROOT
BRANCH  12   6
ATOM      3  O   UNL     1      -3.643 -10.752  16.016  0.00  0.00    -0.377 OA
ATOM      4  O   UNL     1      -1.296  -9.862  11.750  0.00  0.00    -0.253 OA
ATOM      6  N   UNL     1      -3.500  -9.710  11.131  0.00  0.00    -0.297 N 
ATOM      7  N   UNL     1      -2.920 -10.449  13.300  0.00  0.00    -0.281 N 
ATOM     15  C   UNL     1      -2.490  -9.996  12.042  0.00  0.00    +0.302 C 
ATOM     16  C   UNL     1      -4.302 -10.778  13.676  0.00  0.00    +0.137 C 
ATOM     17  C   UNL     1      -1.923 -10.781  14.319  0.00  0.00    +0.137 C 
ATOM     18  C   UNL     1      -4.615 -10.280  15.083  0.00  0.00    +0.179 C 
ATOM     19  C   UNL     1      -2.342 -10.259  15.684  0.00  0.00    +0.179 C 
ATOM     20  H   UNL     1      -4.475  -9.835  11.360  0.00  0.00    +0.150 HD
ENDBRANCH  12   6
BRANCH  12  10
ATOM      1  O   UNL     1      -4.887 -10.609   8.703  0.00  0.00    -0.371 OA
ATOM      8  C   UNL     1      -6.812  -9.227   8.867  0.00  0.00    +0.113 C 
ATOM      9  C   UNL     1      -5.650  -8.544   9.565  0.00  0.00    +0.164 C 
ATOM     10  C   UNL     1      -4.465  -9.254   8.926  0.00  0.00    +0.165 C 
ATOM     11  C   UNL     1      -6.322 -10.664   8.805  0.00  0.00    +0.181 C 
BRANCH   8   5
ATOM      5  N   UNL     1      -8.077  -9.091   9.571  0.00  0.00    -0.301 NA
ATOM     13  C   UNL     1      -7.930  -9.462  10.981  0.00  0.00    +0.105 C 
ATOM     14  C   UNL     1      -9.115  -9.911   8.940  0.00  0.00    +0.105 C 
ENDBRANCH   8   5
BRANCH   9   2
ATOM      2  O   UNL     1      -5.619  -7.149   9.332  0.00  0.00    -0.388 OA
ATOM     21  H   UNL     1      -6.264  -6.726   9.923  0.00  0.00    +0.210 HD
ENDBRANCH   9   2
ENDBRANCH  12  10
TORSDOF 4
ENDMDL
MODEL 2
REMARK VINA RESULT:      -3.4     15.390     18.119
REMARK  Name = 75536743
REMARK  6 active torsions:
REMARK  status: ('A' for Active; 'I' for Inactive)
REMARK    1  A    between atoms: O_2  and  C_9
REMARK    2  A    between atoms: N_5  and  C_8
REMARK    3  A    between atoms: N_5  and  C_13
REMARK    4  A    between atoms: N_5  and  C_14
REMARK    5  A    between atoms: N_6  and  C_12
REMARK    6  A    between atoms: C_10  and  C_12
REMARK                            x       y       z     vdW  Elec       q    Type
REMARK                         _______ _______ _______ _____ _____    ______ ____
ROOT
ATOM     12  C   UNL     1      -5.277   1.462  25.194  0.00  0.00    +0.140 C 
ENDROOT
BRANCH  12   6
ATOM      3  O   UNL     1      -0.535  -2.863  25.085  0.00  0.00    -0.377 OA
ATOM      4  O   UNL     1      -4.974  -1.020  23.903  0.00  0.00    -0.253 OA
ATOM      6  N   UNL     1      -4.188   0.532  25.399  0.00  0.00    -0.297 N 
ATOM      7  N   UNL     1      -2.998  -1.477  25.030  0.00  0.00    -0.281 N 
ATOM     15  C   UNL     1      -4.111  -0.678  24.719  0.00  0.00    +0.302 C 
ATOM     16  C   UNL     1      -2.015  -1.217  26.091  0.00  0.00    +0.137 C 
ATOM     17  C   UNL     1      -2.841  -2.772  24.367  0.00  0.00    +0.137 C 
ATOM     18  C   UNL     1      -0.603  -1.538  25.612  0.00  0.00    +0.179 C 
ATOM     19  C   UNL     1      -1.396  -3.001  23.952  0.00  0.00    +0.179 C 
ATOM     20  H   UNL     1      -3.495   0.806  26.080  0.00  0.00    +0.150 HD
ENDBRANCH  12   6
BRANCH  12  10
ATOM      1  O   UNL     1      -4.621   3.582  26.153  0.00  0.00    -0.371 OA
ATOM      8  C   UNL     1      -2.887   4.253  24.674  0.00  0.00    +0.113 C 
ATOM      9  C   UNL     1      -3.393   2.885  24.256  0.00  0.00    +0.164 C 
ATOM     10  C   UNL     1      -4.765   2.864  24.917  0.00  0.00    +0.165 C 
ATOM     11  C   UNL     1      -3.397   4.338  26.103  0.00  0.00    +0.181 C 
BRANCH   8   5
ATOM      5  N   UNL     1      -1.444   4.395  24.579  0.00  0.00    -0.301 NA
ATOM     13  C   UNL     1      -0.767   3.418  25.437  0.00  0.00    +0.105 C 
ATOM     14  C   UNL     1      -1.029   5.754  24.941  0.00  0.00    +0.105 C 
ENDBRANCH   8   5
BRANCH   9   2
ATOM      2  O   UNL     1      -3.481   2.741  22.852  0.00  0.00    -0.388 OA
ATOM     21  H   UNL     1      -2.806   3.310  22.444  0.00  0.00    +0.210 HD
ENDBRANCH   9   2
ENDBRANCH  12  10
TORSDOF 4
ENDMDL
MODEL 3
REMARK VINA RESULT:      -3.1      2.250      2.583
REMARK  Name = 75536743
REMARK  6 active torsions:
REMARK  status: ('A' for Active; 'I' for Inactive)
REMARK    1  A    between atoms: O_2  and  C_9
REMARK    2  A    between atoms: N_5  and  C_8
REMARK    3  A    between atoms: N_5  and  C_13
REMARK    4  A    between atoms: N_5  and  C_14
REMARK    5  A    between atoms: N_6  and  C_12
REMARK    6  A    between atoms: C_10  and  C_12
REMARK                            x       y       z     vdW  Elec       q    Type
REMARK                         _______ _______ _______ _____ _____    ______ ____
ROOT
ATOM     12  C   UNL     1      -5.379  -8.661  10.299  0.00  0.00    +0.140 C 
ENDROOT
BRANCH  12   6
ATOM      3  O   UNL     1      -7.023 -10.310  16.280  0.00  0.00    -0.377 OA
ATOM      4  O   UNL     1      -3.981  -9.909  12.397  0.00  0.00    -0.253 OA
ATOM      6  N   UNL     1      -5.953  -9.100  11.552  0.00  0.00    -0.297 N 
ATOM      7  N   UNL     1      -5.893 -10.086  13.699  0.00  0.00    -0.281 N 
ATOM     15  C   UNL     1      -5.192  -9.710  12.541  0.00  0.00    +0.302 C 
ATOM     16  C   UNL     1      -7.349 -10.024  13.887  0.00  0.00    +0.137 C 
ATOM     17  C   UNL     1      -5.170 -10.742  14.790  0.00  0.00    +0.137 C 
ATOM     18  C   UNL     1      -7.694  -9.531  15.289  0.00  0.00    +0.179 C 
ATOM     19  C   UNL     1      -5.605 -10.194  16.140  0.00  0.00    +0.179 C 
ATOM     20  H   UNL     1      -6.946  -8.952  11.658  0.00  0.00    +0.150 HD
ENDBRANCH  12   6
BRANCH  12  10
ATOM      1  O   UNL     1      -6.717 -10.430   9.336  0.00  0.00    -0.371 OA
ATOM      8  C   UNL     1      -8.373  -9.187   8.170  0.00  0.00    +0.113 C 
ATOM      9  C   UNL     1      -7.455  -8.225   8.903  0.00  0.00    +0.164 C 
ATOM     10  C   UNL     1      -6.225  -9.097   9.116  0.00  0.00    +0.165 C 
ATOM     11  C   UNL     1      -8.087 -10.489   8.901  0.00  0.00    +0.181 C 
BRANCH   8   5
ATOM      5  N   UNL     1      -9.775  -8.806   8.219  0.00  0.00    -0.301 NA
ATOM     13  C   UNL     1     -10.066  -8.046   9.437  0.00  0.00    +0.105 C 
ATOM     14  C   UNL     1     -10.638  -9.989   8.145  0.00  0.00    +0.105 C 
ENDBRANCH   8   5
BRANCH   9   2
ATOM      2  O   UNL     1      -7.158  -7.070   8.142  0.00  0.00    -0.388 OA
ATOM     21  H   UNL     1      -7.832  -6.980   7.448  0.00  0.00    +0.210 HD
ENDBRANCH   9   2
ENDBRANCH  12  10
TORSDOF 4
ENDMDL
MODEL 4
REMARK VINA RESULT:      -2.4     16.496     17.738
REMARK  Name = 75536743
REMARK  6 active torsions:
REMARK  status: ('A' for Active; 'I' for Inactive)
REMARK    1  A    between atoms: O_2  and  C_9
REMARK    2  A    between atoms: N_5  and  C_8
REMARK    3  A    between atoms: N_5  and  C_13
REMARK    4  A    between atoms: N_5  and  C_14
REMARK    5  A    between atoms: N_6  and  C_12
REMARK    6  A    between atoms: C_10  and  C_12
REMARK                            x       y       z     vdW  Elec       q    Type
REMARK                         _______ _______ _______ _____ _____    ______ ____
ROOT
ATOM     12  C   UNL     1      -0.809  -1.080  24.536  0.00  0.00    +0.140 C 
ENDROOT
BRANCH  12   6
ATOM      3  O   UNL     1       5.304   0.094  22.972  0.00  0.00    -0.377 OA
ATOM      4  O   UNL     1       0.391   0.435  22.491  0.00  0.00    -0.253 OA
ATOM      6  N   UNL     1       0.605  -1.042  24.233  0.00  0.00    -0.297 N 
ATOM      7  N   UNL     1       2.511  -0.338  23.026  0.00  0.00    -0.281 N 
ATOM     15  C   UNL     1       1.119  -0.265  23.203  0.00  0.00    +0.302 C 
ATOM     16  C   UNL     1       3.426  -1.254  23.724  0.00  0.00    +0.137 C 
ATOM     17  C   UNL     1       3.138   0.443  21.959  0.00  0.00    +0.137 C 
ATOM     18  C   UNL     1       4.718  -0.541  24.109  0.00  0.00    +0.179 C 
ATOM     19  C   UNL     1       4.427   1.090  22.441  0.00  0.00    +0.179 C 
ATOM     20  H   UNL     1       1.195  -1.629  24.804  0.00  0.00    +0.150 HD
ENDBRANCH  12   6
BRANCH  12  10
ATOM      1  O   UNL     1      -0.187   1.101  25.376  0.00  0.00    -0.371 OA
ATOM      8  C   UNL     1      -2.292   2.201  25.433  0.00  0.00    +0.113 C 
ATOM      9  C   UNL     1      -2.477   0.807  24.864  0.00  0.00    +0.164 C 
ATOM     10  C   UNL     1      -1.228   0.109  25.383  0.00  0.00    +0.165 C 
ATOM     11  C   UNL     1      -0.795   2.400  25.259  0.00  0.00    +0.181 C 
BRANCH   8   5
ATOM      5  N   UNL     1      -3.080   3.217  24.755  0.00  0.00    -0.301 NA
ATOM     13  C   UNL     1      -4.303   3.514  25.506  0.00  0.00    +0.105 C 
ATOM     14  C   UNL     1      -3.417   2.793  23.393  0.00  0.00    +0.105 C 
ENDBRANCH   8   5
BRANCH   9   2
ATOM      2  O   UNL     1      -3.660   0.183  25.325  0.00  0.00    -0.388 OA
ATOM     21  H   UNL     1      -3.474  -0.761  25.463  0.00  0.00    +0.210 HD
ENDBRANCH   9   2
ENDBRANCH  12  10
TORSDOF 4
ENDMDL
MODEL 5
REMARK VINA RESULT:      -2.2     15.943     17.436
REMARK  Name = 75536743
REMARK  6 active torsions:
REMARK  status: ('A' for Active; 'I' for Inactive)
REMARK    1  A    between atoms: O_2  and  C_9
REMARK    2  A    between atoms: N_5  and  C_8
REMARK    3  A    between atoms: N_5  and  C_13
REMARK    4  A    between atoms: N_5  and  C_14
REMARK    5  A    between atoms: N_6  and  C_12
REMARK    6  A    between atoms: C_10  and  C_12
REMARK                            x       y       z     vdW  Elec       q    Type
REMARK                         _______ _______ _______ _____ _____    ______ ____
ROOT
ATOM     12  C   UNL     1      -2.405  -0.866  24.860  0.00  0.00    +0.140 C 
ENDROOT
BRANCH  12   6
ATOM      3  O   UNL     1       3.124   0.390  21.850  0.00  0.00    -0.377 OA
ATOM      4  O   UNL     1      -0.318   0.953  25.362  0.00  0.00    -0.253 OA
ATOM      6  N   UNL     1      -1.283  -0.606  23.984  0.00  0.00    -0.297 N 
ATOM      7  N   UNL     1       0.730   0.460  23.352  0.00  0.00    -0.281 N 
ATOM     15  C   UNL     1      -0.291   0.312  24.306  0.00  0.00    +0.302 C 
ATOM     16  C   UNL     1       0.758  -0.148  22.013  0.00  0.00    +0.137 C 
ATOM     17  C   UNL     1       1.813   1.410  23.606  0.00  0.00    +0.137 C 
ATOM     18  C   UNL     1       2.159  -0.647  21.674  0.00  0.00    +0.179 C 
ATOM     19  C   UNL     1       3.159   0.822  23.213  0.00  0.00    +0.179 C 
ATOM     20  H   UNL     1      -1.274  -1.118  23.114  0.00  0.00    +0.150 HD
ENDBRANCH  12   6
BRANCH  12  10
ATOM      1  O   UNL     1      -4.574  -0.034  25.531  0.00  0.00    -0.371 OA
ATOM      8  C   UNL     1      -4.658   2.044  24.382  0.00  0.00    +0.113 C 
ATOM      9  C   UNL     1      -3.314   1.388  24.124  0.00  0.00    +0.164 C 
ATOM     10  C   UNL     1      -3.627  -0.065  24.450  0.00  0.00    +0.165 C 
ATOM     11  C   UNL     1      -5.125   1.292  25.618  0.00  0.00    +0.181 C 
BRANCH   8   5
ATOM      5  N   UNL     1      -4.576   3.480  24.591  0.00  0.00    -0.301 NA
ATOM     13  C   UNL     1      -3.234   3.866  25.036  0.00  0.00    +0.105 C 
ATOM     14  C   UNL     1      -5.576   3.922  25.567  0.00  0.00    +0.105 C 
ENDBRANCH   8   5
BRANCH   9   2
ATOM      2  O   UNL     1      -2.878   1.548  22.787  0.00  0.00    -0.388 OA
ATOM     21  H   UNL     1      -3.065   0.725  22.305  0.00  0.00    +0.210 HD
ENDBRANCH   9   2
ENDBRANCH  12  10
TORSDOF 4
ENDMDL
MODEL 6
REMARK VINA RESULT:      -2.1     16.373     17.393
REMARK  Name = 75536743
REMARK  6 active torsions:
REMARK  status: ('A' for Active; 'I' for Inactive)
REMARK    1  A    between atoms: O_2  and  C_9
REMARK    2  A    between atoms: N_5  and  C_8
REMARK    3  A    between atoms: N_5  and  C_13
REMARK    4  A    between atoms: N_5  and  C_14
REMARK    5  A    between atoms: N_6  and  C_12
REMARK    6  A    between atoms: C_10  and  C_12
REMARK                            x       y       z     vdW  Elec       q    Type
REMARK                         _______ _______ _______ _____ _____    ______ ____
ROOT
ATOM     12  C   UNL     1      -0.759  -1.183  25.035  0.00  0.00    +0.140 C 
ENDROOT
BRANCH  12   6
ATOM      3  O   UNL     1       5.175  -0.030  22.877  0.00  0.00    -0.377 OA
ATOM      4  O   UNL     1       0.262   0.535  23.054  0.00  0.00    -0.253 OA
ATOM      6  N   UNL     1       0.609  -1.155  24.566  0.00  0.00    -0.297 N 
ATOM      7  N   UNL     1       2.391  -0.371  23.225  0.00  0.00    -0.281 N 
ATOM     15  C   UNL     1       1.035  -0.273  23.580  0.00  0.00    +0.302 C 
ATOM     16  C   UNL     1       3.336  -1.397  23.688  0.00  0.00    +0.137 C 
ATOM     17  C   UNL     1       2.924   0.516  22.190  0.00  0.00    +0.137 C 
ATOM     18  C   UNL     1       4.698  -0.782  23.993  0.00  0.00    +0.179 C 
ATOM     19  C   UNL     1       4.291   1.054  22.582  0.00  0.00    +0.179 C 
ATOM     20  H   UNL     1       1.234  -1.829  24.984  0.00  0.00    +0.150 HD
ENDBRANCH  12   6
BRANCH  12  10
ATOM      1  O   UNL     1      -2.831  -0.767  23.860  0.00  0.00    -0.371 OA
ATOM      8  C   UNL     1      -3.297   1.472  24.504  0.00  0.00    +0.113 C 
ATOM      9  C   UNL     1      -2.034   1.007  25.206  0.00  0.00    +0.164 C 
ATOM     10  C   UNL     1      -1.613  -0.154  24.316  0.00  0.00    +0.165 C 
ATOM     11  C   UNL     1      -3.918   0.147  24.095  0.00  0.00    +0.181 C 
BRANCH   8   5
ATOM      5  N   UNL     1      -4.172   2.271  25.346  0.00  0.00    -0.301 NA
ATOM     13  C   UNL     1      -5.564   1.832  25.214  0.00  0.00    +0.105 C 
ATOM     14  C   UNL     1      -4.060   3.694  25.012  0.00  0.00    +0.105 C 
ENDBRANCH   8   5
BRANCH   9   2
ATOM      2  O   UNL     1      -1.042   2.013  25.267  0.00  0.00    -0.388 OA
ATOM     21  H   UNL     1      -1.265   2.619  25.993  0.00  0.00    +0.210 HD
ENDBRANCH   9   2
ENDBRANCH  12  10
TORSDOF 4
ENDMDL
MODEL 7
REMARK VINA RESULT:      -2.1     16.369     17.852
REMARK  Name = 75536743
REMARK  6 active torsions:
REMARK  status: ('A' for Active; 'I' for Inactive)
REMARK    1  A    between atoms: O_2  and  C_9
REMARK    2  A    between atoms: N_5  and  C_8
REMARK    3  A    between atoms: N_5  and  C_13
REMARK    4  A    between atoms: N_5  and  C_14
REMARK    5  A    between atoms: N_6  and  C_12
REMARK    6  A    between atoms: C_10  and  C_12
REMARK                            x       y       z     vdW  Elec       q    Type
REMARK                         _______ _______ _______ _____ _____    ______ ____
ROOT
ATOM     12  C   UNL     1      -3.713  -0.558  25.349  0.00  0.00    +0.140 C 
ENDROOT
BRANCH  12   6
ATOM      3  O   UNL     1       2.143   1.199  23.395  0.00  0.00    -0.377 OA
ATOM      4  O   UNL     1      -1.627  -1.937  24.059  0.00  0.00    -0.253 OA
ATOM      6  N   UNL     1      -2.382  -0.044  25.111  0.00  0.00    -0.297 N 
ATOM      7  N   UNL     1      -0.160  -0.158  24.313  0.00  0.00    -0.281 N 
ATOM     15  C   UNL     1      -1.405  -0.791  24.464  0.00  0.00    +0.302 C 
ATOM     16  C   UNL     1       0.231   1.134  24.896  0.00  0.00    +0.137 C 
ATOM     17  C   UNL     1       0.930  -0.875  23.649  0.00  0.00    +0.137 C 
ATOM     18  C   UNL     1       1.041   1.955  23.898  0.00  0.00    +0.179 C 
ATOM     19  C   UNL     1       1.684   0.039  22.697  0.00  0.00    +0.179 C 
ATOM     20  H   UNL     1      -2.198   0.886  25.460  0.00  0.00    +0.150 HD
ENDBRANCH  12   6
BRANCH  12  10
ATOM      1  O   UNL     1      -5.636   0.704  26.093  0.00  0.00    -0.371 OA
ATOM      8  C   UNL     1      -5.377   2.724  24.870  0.00  0.00    +0.113 C 
ATOM      9  C   UNL     1      -4.203   1.809  24.571  0.00  0.00    +0.164 C 
ATOM     10  C   UNL     1      -4.777   0.456  24.969  0.00  0.00    +0.165 C 
ATOM     11  C   UNL     1      -5.912   2.115  26.156  0.00  0.00    +0.181 C 
BRANCH   8   5
ATOM      5  N   UNL     1      -5.004   4.121  25.019  0.00  0.00    -0.301 NA
ATOM     13  C   UNL     1      -3.769   4.251  25.796  0.00  0.00    +0.105 C 
ATOM     14  C   UNL     1      -6.082   4.883  25.657  0.00  0.00    +0.105 C 
ENDBRANCH   8   5
BRANCH   9   2
ATOM      2  O   UNL     1      -3.820   1.842  23.210  0.00  0.00    -0.388 OA
ATOM     21  H   UNL     1      -3.124   1.178  23.073  0.00  0.00    +0.210 HD
ENDBRANCH   9   2
ENDBRANCH  12  10
TORSDOF 4
ENDMDL
MODEL 8
REMARK VINA RESULT:      -1.9     15.348     18.179
REMARK  Name = 75536743
REMARK  6 active torsions:
REMARK  status: ('A' for Active; 'I' for Inactive)
REMARK    1  A    between atoms: O_2  and  C_9
REMARK    2  A    between atoms: N_5  and  C_8
REMARK    3  A    between atoms: N_5  and  C_13
REMARK    4  A    between atoms: N_5  and  C_14
REMARK    5  A    between atoms: N_6  and  C_12
REMARK    6  A    between atoms: C_10  and  C_12
REMARK                            x       y       z     vdW  Elec       q    Type
REMARK                         _______ _______ _______ _____ _____    ______ ____
ROOT
ATOM     12  C   UNL     1       0.671   1.361  23.886  0.00  0.00    +0.140 C 
ENDROOT
BRANCH  12   6
ATOM      3  O   UNL     1      -3.907  -3.081  24.603  0.00  0.00    -0.377 OA
ATOM      4  O   UNL     1      -2.064   1.301  23.226  0.00  0.00    -0.253 OA
ATOM      6  N   UNL     1      -0.264   0.321  24.258  0.00  0.00    -0.297 N 
ATOM      7  N   UNL     1      -2.389  -0.712  24.333  0.00  0.00    -0.281 N 
ATOM     15  C   UNL     1      -1.604   0.366  23.891  0.00  0.00    +0.302 C 
ATOM     16  C   UNL     1      -1.959  -1.778  25.249  0.00  0.00    +0.137 C 
ATOM     17  C   UNL     1      -3.813  -0.743  23.998  0.00  0.00    +0.137 C 
ATOM     18  C   UNL     1      -2.493  -3.132  24.794  0.00  0.00    +0.179 C 
ATOM     19  C   UNL     1      -4.246  -2.140  23.581  0.00  0.00    +0.179 C 
ATOM     20  H   UNL     1       0.110  -0.431  24.818  0.00  0.00    +0.150 HD
ENDBRANCH  12   6
BRANCH  12  10
ATOM      1  O   UNL     1      -0.096   3.644  23.672  0.00  0.00    -0.371 OA
ATOM      8  C   UNL     1      -1.231   3.955  25.736  0.00  0.00    +0.113 C 
ATOM      9  C   UNL     1      -0.720   2.528  25.661  0.00  0.00    +0.164 C 
ATOM     10  C   UNL     1       0.373   2.661  24.610  0.00  0.00    +0.165 C 
ATOM     11  C   UNL     1      -1.185   4.367  24.273  0.00  0.00    +0.181 C 
BRANCH   8   5
ATOM      5  N   UNL     1      -2.559   4.070  26.315  0.00  0.00    -0.301 NA
ATOM     13  C   UNL     1      -3.451   3.038  25.780  0.00  0.00    +0.105 C 
ATOM     14  C   UNL     1      -3.122   5.400  26.065  0.00  0.00    +0.105 C 
ENDBRANCH   8   5
BRANCH   9   2
ATOM      2  O   UNL     1      -0.210   2.067  26.898  0.00  0.00    -0.388 OA
ATOM     21  H   UNL     1       0.558   1.500  26.718  0.00  0.00    +0.210 HD
ENDBRANCH   9   2
ENDBRANCH  12  10
TORSDOF 4
ENDMDL
MODEL 9
REMARK VINA RESULT:      -1.7     15.081     18.088
REMARK  Name = 75536743
REMARK  6 active torsions:
REMARK  status: ('A' for Active; 'I' for Inactive)
REMARK    1  A    between atoms: O_2  and  C_9
REMARK    2  A    between atoms: N_5  and  C_8
REMARK    3  A    between atoms: N_5  and  C_13
REMARK    4  A    between atoms: N_5  and  C_14
REMARK    5  A    between atoms: N_6  and  C_12
REMARK    6  A    between atoms: C_10  and  C_12
REMARK                            x       y       z     vdW  Elec       q    Type
REMARK                         _______ _______ _______ _____ _____    ______ ____
ROOT
ATOM     12  C   UNL     1      -4.700   0.211  24.881  0.00  0.00    +0.140 C 
ENDROOT
BRANCH  12   6
ATOM      3  O   UNL     1      -0.622   5.141  24.373  0.00  0.00    -0.377 OA
ATOM      4  O   UNL     1      -4.839   2.905  25.681  0.00  0.00    -0.253 OA
ATOM      6  N   UNL     1      -3.738   1.239  24.551  0.00  0.00    -0.297 N 
ATOM      7  N   UNL     1      -2.868   3.436  24.579  0.00  0.00    -0.281 N 
ATOM     15  C   UNL     1      -3.879   2.551  24.987  0.00  0.00    +0.302 C 
ATOM     16  C   UNL     1      -1.781   3.135  23.635  0.00  0.00    +0.137 C 
ATOM     17  C   UNL     1      -2.940   4.841  24.987  0.00  0.00    +0.137 C 
ATOM     18  C   UNL     1      -0.467   3.747  24.109  0.00  0.00    +0.179 C 
ATOM     19  C   UNL     1      -1.575   5.356  25.416  0.00  0.00    +0.179 C 
ATOM     20  H   UNL     1      -2.965   0.951  23.969  0.00  0.00    +0.150 HD
ENDBRANCH  12   6
BRANCH  12  10
ATOM      1  O   UNL     1      -4.274  -2.041  24.109  0.00  0.00    -0.371 OA
ATOM      8  C   UNL     1      -2.079  -2.416  24.938  0.00  0.00    +0.113 C 
ATOM      9  C   UNL     1      -2.504  -1.000  25.282  0.00  0.00    +0.164 C 
ATOM     10  C   UNL     1      -4.018  -1.113  25.177  0.00  0.00    +0.165 C 
ATOM     11  C   UNL     1      -3.060  -2.762  23.830  0.00  0.00    +0.181 C 
BRANCH   8   5
ATOM      5  N   UNL     1      -0.692  -2.524  24.519  0.00  0.00    -0.301 NA
ATOM     13  C   UNL     1       0.173  -2.847  25.657  0.00  0.00    +0.105 C 
ATOM     14  C   UNL     1      -0.242  -1.282  23.883  0.00  0.00    +0.105 C 
ENDBRANCH   8   5
BRANCH   9   2
ATOM      2  O   UNL     1      -2.092  -0.608  26.577  0.00  0.00    -0.388 OA
ATOM     21  H   UNL     1      -1.121  -0.637  26.611  0.00  0.00    +0.210 HD
ENDBRANCH   9   2
ENDBRANCH  12  10
TORSDOF 4
ENDMDL
MODEL 10
REMARK VINA RESULT:      -1.7     15.311     18.048
REMARK  Name = 75536743
REMARK  6 active torsions:
REMARK  status: ('A' for Active; 'I' for Inactive)
REMARK    1  A    between atoms: O_2  and  C_9
REMARK    2  A    between atoms: N_5  and  C_8
REMARK    3  A    between atoms: N_5  and  C_13
REMARK    4  A    between atoms: N_5  and  C_14
REMARK    5  A    between atoms: N_6  and  C_12
REMARK    6  A    between atoms: C_10  and  C_12
REMARK                            x       y       z     vdW  Elec       q    Type
REMARK                         _______ _______ _______ _____ _____    ______ ____
ROOT
ATOM     12  C   UNL     1       0.232   1.540  24.307  0.00  0.00    +0.140 C 
ENDROOT
BRANCH  12   6
ATOM      3  O   UNL     1      -5.076   4.671  26.101  0.00  0.00    -0.377 OA
ATOM      4  O   UNL     1      -2.282   1.903  23.097  0.00  0.00    -0.253 OA
ATOM      6  N   UNL     1      -0.817   2.412  24.787  0.00  0.00    -0.297 N 
ATOM      7  N   UNL     1      -2.950   3.426  24.713  0.00  0.00    -0.281 N 
ATOM     15  C   UNL     1      -2.035   2.535  24.129  0.00  0.00    +0.302 C 
ATOM     16  C   UNL     1      -2.683   4.325  25.846  0.00  0.00    +0.137 C 
ATOM     17  C   UNL     1      -4.257   3.624  24.083  0.00  0.00    +0.137 C 
ATOM     18  C   UNL     1      -3.871   4.361  26.802  0.00  0.00    +0.179 C 
ATOM     19  C   UNL     1      -5.364   3.668  25.124  0.00  0.00    +0.179 C 
ATOM     20  H   UNL     1      -0.605   2.941  25.621  0.00  0.00    +0.150 HD
ENDBRANCH  12   6
BRANCH  12  10
ATOM      1  O   UNL     1      -0.662   0.065  26.001  0.00  0.00    -0.371 OA
ATOM      8  C   UNL     1      -1.478  -1.732  24.679  0.00  0.00    +0.113 C 
ATOM      9  C   UNL     1      -0.920  -0.657  23.765  0.00  0.00    +0.164 C 
ATOM     10  C   UNL     1      -0.009   0.100  24.721  0.00  0.00    +0.165 C 
ATOM     11  C   UNL     1      -1.677  -0.954  25.969  0.00  0.00    +0.181 C 
BRANCH   8   5
ATOM      5  N   UNL     1      -2.705  -2.337  24.188  0.00  0.00    -0.301 NA
ATOM     13  C   UNL     1      -3.659  -1.308  23.763  0.00  0.00    +0.105 C 
ATOM     14  C   UNL     1      -3.311  -3.192  25.213  0.00  0.00    +0.105 C 
ENDBRANCH   8   5
BRANCH   9   2
ATOM      2  O   UNL     1      -0.206  -1.193  22.667  0.00  0.00    -0.388 OA
ATOM     21  H   UNL     1      -0.794  -1.201  21.894  0.00  0.00    +0.210 HD
ENDBRANCH   9   2
ENDBRANCH  12  10
TORSDOF 4
ENDMDL
