MODEL 1
REMARK VINA RESULT:       3.9      0.000      0.000
REMARK  Name = 7143727
REMARK  5 active torsions:
REMARK  status: ('A' for Active; 'I' for Inactive)
REMARK    1  A    between atoms: S_1  and  N_5
REMARK    2  A    between atoms: S_1  and  C_16
REMARK    3  A    between atoms: C_16  and  C_19
REMARK    4  A    between atoms: C_17  and  C_20
REMARK    5  A    between atoms: C_19  and  C_21
REMARK                            x       y       z     vdW  Elec       q    Type
REMARK                         _______ _______ _______ _____ _____    ______ ____
ROOT
ATOM      4  O   UNL     1       0.079   2.358  25.706  0.00  0.00    -0.267 OA
ATOM      5  N   UNL     1      -4.874   2.615  25.201  0.00  0.00    -0.180 NA
ATOM      6  N   UNL     1      -1.816   3.080  24.554  0.00  0.00    -0.311 N 
ATOM      7  C   UNL     1      -3.529   4.683  25.583  0.00  0.00    +0.025 C 
ATOM      8  C   UNL     1      -3.859   3.850  23.297  0.00  0.00    +0.052 C 
ATOM      9  C   UNL     1      -3.778   5.117  24.145  0.00  0.00    +0.017 C 
ATOM     10  C   UNL     1      -4.679   3.797  26.088  0.00  0.00    +0.114 C 
ATOM     11  C   UNL     1      -5.048   2.992  23.767  0.00  0.00    +0.118 C 
ATOM     12  C   UNL     1      -2.169   3.979  25.662  0.00  0.00    +0.130 C 
ATOM     13  C   UNL     1      -2.570   3.055  23.378  0.00  0.00    +0.026 A 
ATOM     14  C   UNL     1      -2.163   2.314  22.334  0.00  0.00    +0.022 A 
ATOM     15  C   UNL     1      -0.630   2.334  24.698  0.00  0.00    +0.259 A 
ATOM     17  C   UNL     1      -0.220   1.485  23.525  0.00  0.00    +0.047 A 
ATOM     18  C   UNL     1      -0.974   1.515  22.415  0.00  0.00    +0.015 A 
ENDROOT
BRANCH  17  20
ATOM     20  C   UNL     1       0.978   0.629  23.582  0.00  0.00    -0.012 A 
ATOM     22  C   UNL     1       2.239   1.176  23.339  0.00  0.00    +0.017 A 
ATOM     23  C   UNL     1       0.853  -0.725  23.879  0.00  0.00    +0.009 A 
ATOM     24  C   UNL     1       3.391   0.374  23.390  0.00  0.00    -0.017 A 
ATOM     25  C   UNL     1       1.986  -1.536  23.934  0.00  0.00    +0.009 A 
ATOM     26  C   UNL     1       3.262  -1.003  23.692  0.00  0.00    -0.018 A 
ATOM     27  C   UNL     1       4.667   0.907  23.148  0.00  0.00    +0.008 A 
ATOM     28  C   UNL     1       4.414  -1.806  23.743  0.00  0.00    +0.008 A 
ATOM     29  C   UNL     1       5.800   0.095  23.202  0.00  0.00    +0.001 A 
ATOM     30  C   UNL     1       5.674  -1.258  23.499  0.00  0.00    +0.001 A 
ENDBRANCH  17  20
BRANCH   5   1
ATOM      1  S   UNL     1      -5.948   1.418  25.788  0.00  0.00    +0.032 S 
ATOM      2  O   UNL     1      -6.979   1.192  24.798  0.00  0.00    -0.158 OA
ATOM      3  O   UNL     1      -6.269   1.715  27.166  0.00  0.00    -0.158 OA
BRANCH   1  16
ATOM     16  C   UNL     1      -4.854   0.021  25.769  0.00  0.00    +0.185 C 
BRANCH  16  19
ATOM     19  C   UNL     1      -4.206  -0.156  24.405  0.00  0.00    +0.021 C 
ATOM     21  C   UNL     1      -4.104  -1.624  24.025  0.00  0.00    +0.005 C 
ENDBRANCH  16  19
ENDBRANCH   1  16
ENDBRANCH   5   1
TORSDOF 4
ENDMDL
