MODEL 1
REMARK VINA RESULT:      -6.3      0.000      0.000
REMARK  Name = 45784002
REMARK  13 active torsions:
REMARK  status: ('A' for Active; 'I' for Inactive)
REMARK    1  A    between atoms: N_2  and  C_13
REMARK    2  A    between atoms: N_2  and  C_19
REMARK    3  A    between atoms: C_6  and  C_10
REMARK    4  A    between atoms: C_7  and  C_13
REMARK    5  A    between atoms: C_9  and  C_14
REMARK    6  A    between atoms: C_10  and  C_15
REMARK    7  A    between atoms: C_10  and  C_16
REMARK    8  A    between atoms: C_11  and  C_17
REMARK    9  A    between atoms: C_14  and  C_18
REMARK   10  A    between atoms: C_19  and  C_20
REMARK   11  A    between atoms: C_21  and  C_22
REMARK   12  A    between atoms: C_22  and  C_25
REMARK   13  A    between atoms: C_25  and  C_27
REMARK                            x       y       z     vdW  Elec       q    Type
REMARK                         _______ _______ _______ _____ _____    ______ ____
ROOT
ATOM      6  C   UNL     1      -2.443   3.852  25.746  0.00  0.00    +0.000 C 
ATOM      7  C   UNL     1      -3.749   3.845  24.917  0.00  0.00    +0.029 C 
ATOM      8  C   UNL     1      -1.746   2.486  25.662  0.00  0.00    +0.012 C 
ATOM      9  C   UNL     1      -1.433   2.047  24.215  0.00  0.00    +0.024 C 
ATOM     11  C   UNL     1      -2.546   2.390  23.236  0.00  0.00    -0.073 C 
ATOM     12  C   UNL     1      -3.577   3.185  23.573  0.00  0.00    -0.023 C 
ATOM     17  C   UNL     1      -2.429   1.853  21.836  0.00  0.00    +0.039 C 
ENDROOT
BRANCH   6  10
ATOM     10  C   UNL     1      -1.504   4.982  25.303  0.00  0.00    -0.013 C 
ATOM     15  C   UNL     1      -2.234   5.946  24.374  0.00  0.00    +0.007 C 
ATOM     16  C   UNL     1      -0.266   4.407  24.622  0.00  0.00    +0.007 C 
ENDBRANCH   6  10
BRANCH   7  13
ATOM     13  C   UNL     1      -4.894   3.162  25.672  0.00  0.00    +0.089 C 
BRANCH  13   2
ATOM      2  N   UNL     1      -5.224   1.887  25.059  0.00  0.00    -0.311 NA
ATOM     29  H   UNL     1      -4.614   1.741  24.253  0.00  0.00    +0.122 HD
BRANCH   2  19
ATOM     19  C   UNL     1      -5.037   0.788  26.000  0.00  0.00    +0.117 C 
BRANCH  19  20
ATOM      5  N   UNL     1      -2.822  -2.251  25.569  0.00  0.00    -0.263 NA
ATOM     20  C   UNL     1      -4.345  -0.386  25.359  0.00  0.00    -0.016 A 
ATOM     23  C   UNL     1      -4.560  -0.702  24.023  0.00  0.00    +0.008 A 
ATOM     24  C   UNL     1      -3.475  -1.185  26.083  0.00  0.00    +0.115 A 
ATOM     26  C   UNL     1      -3.908  -1.792  23.458  0.00  0.00    +0.020 A 
ATOM     28  C   UNL     1      -3.056  -2.527  24.267  0.00  0.00    +0.111 A 
ENDBRANCH  19  20
ENDBRANCH   2  19
ENDBRANCH  13   2
ENDBRANCH   7  13
BRANCH   9  14
ATOM     14  C   UNL     1      -1.083   0.553  24.222  0.00  0.00    +0.105 C 
BRANCH  14  18
ATOM      1  O   UNL     1       1.236   1.148  23.755  0.00  0.00    -0.425 OA
ATOM      3  N   UNL     1       0.517  -0.663  22.655  0.00  0.00    -0.112 NA
ATOM      4  N   UNL     1       1.835  -0.443  22.299  0.00  0.00    -0.112 NA
ATOM     18  C   UNL     1       0.210   0.289  23.505  0.00  0.00    +0.218 A 
ATOM     21  C   UNL     1       2.214   0.623  22.965  0.00  0.00    +0.217 A 
BRANCH  21  22
ATOM     22  C   UNL     1       3.513   1.306  22.976  0.00  0.00    +0.097 C 
BRANCH  22  25
ATOM     25  C   UNL     1       4.698   0.353  22.707  0.00  0.00    +0.006 C 
ATOM     27  C   UNL     1       5.439  -0.036  23.976  0.00  0.00    +0.004 C 
ENDBRANCH  22  25
ENDBRANCH  21  22
ENDBRANCH  14  18
ENDBRANCH   9  14
TORSDOF 9
ENDMDL
MODEL 2
REMARK VINA RESULT:      -4.4      1.478      4.329
REMARK  Name = 45784002
REMARK  13 active torsions:
REMARK  status: ('A' for Active; 'I' for Inactive)
REMARK    1  A    between atoms: N_2  and  C_13
REMARK    2  A    between atoms: N_2  and  C_19
REMARK    3  A    between atoms: C_6  and  C_10
REMARK    4  A    between atoms: C_7  and  C_13
REMARK    5  A    between atoms: C_9  and  C_14
REMARK    6  A    between atoms: C_10  and  C_15
REMARK    7  A    between atoms: C_10  and  C_16
REMARK    8  A    between atoms: C_11  and  C_17
REMARK    9  A    between atoms: C_14  and  C_18
REMARK   10  A    between atoms: C_19  and  C_20
REMARK   11  A    between atoms: C_21  and  C_22
REMARK   12  A    between atoms: C_22  and  C_25
REMARK   13  A    between atoms: C_25  and  C_27
REMARK                            x       y       z     vdW  Elec       q    Type
REMARK                         _______ _______ _______ _____ _____    ______ ____
ROOT
ATOM      6  C   UNL     1      -3.538  -0.888  24.134  0.00  0.00    +0.000 C 
ATOM      7  C   UNL     1      -4.063   0.028  25.264  0.00  0.00    +0.029 C 
ATOM      8  C   UNL     1      -2.439  -0.176  23.332  0.00  0.00    +0.012 C 
ATOM      9  C   UNL     1      -1.254   0.296  24.203  0.00  0.00    +0.024 C 
ATOM     11  C   UNL     1      -1.692   0.856  25.549  0.00  0.00    -0.073 C 
ATOM     12  C   UNL     1      -2.954   0.736  25.999  0.00  0.00    -0.023 C 
ATOM     17  C   UNL     1      -0.641   1.507  26.405  0.00  0.00    +0.039 C 
ENDROOT
BRANCH   6  10
ATOM     10  C   UNL     1      -3.039  -2.230  24.688  0.00  0.00    -0.013 C 
ATOM     15  C   UNL     1      -1.613  -2.502  24.220  0.00  0.00    +0.007 C 
ATOM     16  C   UNL     1      -3.972  -3.359  24.263  0.00  0.00    +0.007 C 
ENDBRANCH   6  10
BRANCH   7  13
ATOM     13  C   UNL     1      -5.058   1.065  24.734  0.00  0.00    +0.089 C 
BRANCH  13   2
ATOM      2  N   UNL     1      -5.727   1.743  25.830  0.00  0.00    -0.311 NA
ATOM     29  H   UNL     1      -5.261   1.494  26.704  0.00  0.00    +0.122 HD
BRANCH   2  19
ATOM     19  C   UNL     1      -5.679   3.191  25.661  0.00  0.00    +0.117 C 
BRANCH  19  20
ATOM      5  N   UNL     1      -2.213   4.616  26.200  0.00  0.00    -0.263 NA
ATOM     20  C   UNL     1      -4.281   3.674  25.376  0.00  0.00    -0.016 A 
ATOM     23  C   UNL     1      -3.760   3.638  24.088  0.00  0.00    +0.008 A 
ATOM     24  C   UNL     1      -3.474   4.167  26.388  0.00  0.00    +0.115 A 
ATOM     26  C   UNL     1      -2.466   4.091  23.854  0.00  0.00    +0.020 A 
ATOM     28  C   UNL     1      -1.741   4.567  24.934  0.00  0.00    +0.111 A 
ENDBRANCH  19  20
ENDBRANCH   2  19
ENDBRANCH  13   2
ENDBRANCH   7  13
BRANCH   9  14
ATOM     14  C   UNL     1      -0.414   1.289  23.390  0.00  0.00    +0.105 C 
BRANCH  14  18
ATOM      1  O   UNL     1       2.019   1.446  23.324  0.00  0.00    -0.425 OA
ATOM      3  N   UNL     1       1.201  -0.437  22.438  0.00  0.00    -0.112 NA
ATOM      4  N   UNL     1       2.579  -0.481  22.335  0.00  0.00    -0.112 NA
ATOM     18  C   UNL     1       0.920   0.705  23.021  0.00  0.00    +0.218 A 
ATOM     21  C   UNL     1       3.015   0.639  22.865  0.00  0.00    +0.217 A 
BRANCH  21  22
ATOM     22  C   UNL     1       4.391   1.123  23.028  0.00  0.00    +0.097 C 
BRANCH  22  25
ATOM     25  C   UNL     1       5.428  -0.020  23.094  0.00  0.00    +0.006 C 
ATOM     27  C   UNL     1       5.460  -0.707  24.450  0.00  0.00    +0.004 C 
ENDBRANCH  22  25
ENDBRANCH  21  22
ENDBRANCH  14  18
ENDBRANCH   9  14
TORSDOF 9
ENDMDL
MODEL 3
REMARK VINA RESULT:      -3.7      2.022      6.427
REMARK  Name = 45784002
REMARK  13 active torsions:
REMARK  status: ('A' for Active; 'I' for Inactive)
REMARK    1  A    between atoms: N_2  and  C_13
REMARK    2  A    between atoms: N_2  and  C_19
REMARK    3  A    between atoms: C_6  and  C_10
REMARK    4  A    between atoms: C_7  and  C_13
REMARK    5  A    between atoms: C_9  and  C_14
REMARK    6  A    between atoms: C_10  and  C_15
REMARK    7  A    between atoms: C_10  and  C_16
REMARK    8  A    between atoms: C_11  and  C_17
REMARK    9  A    between atoms: C_14  and  C_18
REMARK   10  A    between atoms: C_19  and  C_20
REMARK   11  A    between atoms: C_21  and  C_22
REMARK   12  A    between atoms: C_22  and  C_25
REMARK   13  A    between atoms: C_25  and  C_27
REMARK                            x       y       z     vdW  Elec       q    Type
REMARK                         _______ _______ _______ _____ _____    ______ ____
ROOT
ATOM      6  C   UNL     1      -2.120  -0.572  24.983  0.00  0.00    +0.000 C 
ATOM      7  C   UNL     1      -1.056   0.213  24.181  0.00  0.00    +0.029 C 
ATOM      8  C   UNL     1      -3.329   0.323  25.291  0.00  0.00    +0.012 C 
ATOM      9  C   UNL     1      -3.981   0.927  24.028  0.00  0.00    +0.024 C 
ATOM     11  C   UNL     1      -2.963   1.363  22.985  0.00  0.00    -0.073 C 
ATOM     12  C   UNL     1      -1.659   1.044  23.077  0.00  0.00    -0.023 C 
ATOM     17  C   UNL     1      -3.473   2.125  21.792  0.00  0.00    +0.039 C 
ENDROOT
BRANCH   6  10
ATOM     10  C   UNL     1      -2.547  -1.848  24.247  0.00  0.00    -0.013 C 
ATOM     15  C   UNL     1      -3.623  -2.585  25.038  0.00  0.00    +0.007 C 
ATOM     16  C   UNL     1      -1.341  -2.750  24.003  0.00  0.00    +0.007 C 
ENDBRANCH   6  10
BRANCH   7  13
ATOM     13  C   UNL     1      -0.215   1.117  25.090  0.00  0.00    +0.089 C 
BRANCH  13   2
ATOM      2  N   UNL     1       0.990   1.553  24.407  0.00  0.00    -0.311 NA
ATOM     29  H   UNL     1       1.763   1.559  25.075  0.00  0.00    +0.122 HD
BRANCH   2  19
ATOM     19  C   UNL     1       1.323   0.657  23.305  0.00  0.00    +0.117 C 
BRANCH  19  20
ATOM      5  N   UNL     1       4.381  -1.526  23.763  0.00  0.00    -0.263 NA
ATOM     20  C   UNL     1       2.764   0.223  23.352  0.00  0.00    -0.016 A 
ATOM     23  C   UNL     1       3.790   1.110  23.047  0.00  0.00    +0.008 A 
ATOM     24  C   UNL     1       3.109  -1.073  23.701  0.00  0.00    +0.115 A 
ATOM     26  C   UNL     1       5.111   0.681  23.099  0.00  0.00    +0.020 A 
ATOM     28  C   UNL     1       5.352  -0.635  23.460  0.00  0.00    +0.111 A 
ENDBRANCH  19  20
ENDBRANCH   2  19
ENDBRANCH  13   2
ENDBRANCH   7  13
BRANCH   9  14
ATOM     14  C   UNL     1      -4.920   2.062  24.456  0.00  0.00    +0.105 C 
BRANCH  14  18
ATOM      1  O   UNL     1      -3.192   3.777  24.606  0.00  0.00    -0.425 OA
ATOM      3  N   UNL     1      -4.364   3.494  26.489  0.00  0.00    -0.112 NA
ATOM      4  N   UNL     1      -3.429   4.487  26.714  0.00  0.00    -0.112 NA
ATOM     18  C   UNL     1      -4.189   3.110  25.246  0.00  0.00    +0.218 A 
ATOM     21  C   UNL     1      -2.767   4.619  25.588  0.00  0.00    +0.217 A 
BRANCH  21  22
ATOM     22  C   UNL     1      -1.663   5.527  25.252  0.00  0.00    +0.097 C 
BRANCH  22  25
ATOM     25  C   UNL     1      -0.364   4.784  24.874  0.00  0.00    +0.006 C 
ATOM     27  C   UNL     1      -0.169   4.668  23.371  0.00  0.00    +0.004 C 
ENDBRANCH  22  25
ENDBRANCH  21  22
ENDBRANCH  14  18
ENDBRANCH   9  14
TORSDOF 9
ENDMDL
MODEL 4
REMARK VINA RESULT:      -3.4      1.478      2.907
REMARK  Name = 45784002
REMARK  13 active torsions:
REMARK  status: ('A' for Active; 'I' for Inactive)
REMARK    1  A    between atoms: N_2  and  C_13
REMARK    2  A    between atoms: N_2  and  C_19
REMARK    3  A    between atoms: C_6  and  C_10
REMARK    4  A    between atoms: C_7  and  C_13
REMARK    5  A    between atoms: C_9  and  C_14
REMARK    6  A    between atoms: C_10  and  C_15
REMARK    7  A    between atoms: C_10  and  C_16
REMARK    8  A    between atoms: C_11  and  C_17
REMARK    9  A    between atoms: C_14  and  C_18
REMARK   10  A    between atoms: C_19  and  C_20
REMARK   11  A    between atoms: C_21  and  C_22
REMARK   12  A    between atoms: C_22  and  C_25
REMARK   13  A    between atoms: C_25  and  C_27
REMARK                            x       y       z     vdW  Elec       q    Type
REMARK                         _______ _______ _______ _____ _____    ______ ____
ROOT
ATOM      6  C   UNL     1      -4.201   2.539  25.054  0.00  0.00    +0.000 C 
ATOM      7  C   UNL     1      -3.995   3.370  23.766  0.00  0.00    +0.029 C 
ATOM      8  C   UNL     1      -2.847   2.129  25.651  0.00  0.00    +0.012 C 
ATOM      9  C   UNL     1      -1.924   3.329  25.956  0.00  0.00    +0.024 C 
ATOM     11  C   UNL     1      -1.984   4.411  24.888  0.00  0.00    -0.073 C 
ATOM     12  C   UNL     1      -2.909   4.405  23.912  0.00  0.00    -0.023 C 
ATOM     17  C   UNL     1      -0.998   5.543  24.991  0.00  0.00    +0.039 C 
ENDROOT
BRANCH   6  10
ATOM     10  C   UNL     1      -5.052   3.297  26.080  0.00  0.00    -0.013 C 
ATOM     15  C   UNL     1      -6.099   2.372  26.692  0.00  0.00    +0.007 C 
ATOM     16  C   UNL     1      -5.715   4.508  25.429  0.00  0.00    +0.007 C 
ENDBRANCH   6  10
BRANCH   7  13
ATOM     13  C   UNL     1      -3.681   2.477  22.561  0.00  0.00    +0.089 C 
BRANCH  13   2
ATOM      2  N   UNL     1      -3.290   1.148  22.995  0.00  0.00    -0.311 NA
ATOM     29  H   UNL     1      -2.603   1.235  23.745  0.00  0.00    +0.122 HD
BRANCH   2  19
ATOM     19  C   UNL     1      -4.439   0.397  23.488  0.00  0.00    +0.117 C 
BRANCH  19  20
ATOM      5  N   UNL     1      -3.664  -3.257  24.104  0.00  0.00    -0.263 NA
ATOM     20  C   UNL     1      -4.021  -0.868  24.191  0.00  0.00    -0.016 A 
ATOM     23  C   UNL     1      -3.619  -0.848  25.522  0.00  0.00    +0.008 A 
ATOM     24  C   UNL     1      -4.026  -2.087  23.533  0.00  0.00    +0.115 A 
ATOM     26  C   UNL     1      -3.238  -2.032  26.145  0.00  0.00    +0.020 A 
ATOM     28  C   UNL     1      -3.279  -3.199  25.399  0.00  0.00    +0.111 A 
ENDBRANCH  19  20
ENDBRANCH   2  19
ENDBRANCH  13   2
ENDBRANCH   7  13
BRANCH   9  14
ATOM     14  C   UNL     1      -0.503   2.805  26.196  0.00  0.00    +0.105 C 
BRANCH  14  18
ATOM      1  O   UNL     1       0.475   1.699  24.254  0.00  0.00    -0.425 OA
ATOM      3  N   UNL     1      -0.593   0.317  25.652  0.00  0.00    -0.112 NA
ATOM      4  N   UNL     1      -0.093  -0.437  24.606  0.00  0.00    -0.112 NA
ATOM     18  C   UNL     1      -0.237   1.556  25.404  0.00  0.00    +0.218 A 
ATOM     21  C   UNL     1       0.523   0.411  23.815  0.00  0.00    +0.217 A 
BRANCH  21  22
ATOM     22  C   UNL     1       1.239   0.164  22.557  0.00  0.00    +0.097 C 
BRANCH  22  25
ATOM     25  C   UNL     1       2.716  -0.233  22.771  0.00  0.00    +0.006 C 
ATOM     27  C   UNL     1       3.660   0.957  22.705  0.00  0.00    +0.004 C 
ENDBRANCH  22  25
ENDBRANCH  21  22
ENDBRANCH  14  18
ENDBRANCH   9  14
TORSDOF 9
ENDMDL
MODEL 5
REMARK VINA RESULT:      -2.6      1.758      4.431
REMARK  Name = 45784002
REMARK  13 active torsions:
REMARK  status: ('A' for Active; 'I' for Inactive)
REMARK    1  A    between atoms: N_2  and  C_13
REMARK    2  A    between atoms: N_2  and  C_19
REMARK    3  A    between atoms: C_6  and  C_10
REMARK    4  A    between atoms: C_7  and  C_13
REMARK    5  A    between atoms: C_9  and  C_14
REMARK    6  A    between atoms: C_10  and  C_15
REMARK    7  A    between atoms: C_10  and  C_16
REMARK    8  A    between atoms: C_11  and  C_17
REMARK    9  A    between atoms: C_14  and  C_18
REMARK   10  A    between atoms: C_19  and  C_20
REMARK   11  A    between atoms: C_21  and  C_22
REMARK   12  A    between atoms: C_22  and  C_25
REMARK   13  A    between atoms: C_25  and  C_27
REMARK                            x       y       z     vdW  Elec       q    Type
REMARK                         _______ _______ _______ _____ _____    ______ ____
ROOT
ATOM      6  C   UNL     1      -2.527   0.691  24.927  0.00  0.00    +0.000 C 
ATOM      7  C   UNL     1      -1.651   0.631  26.200  0.00  0.00    +0.029 C 
ATOM      8  C   UNL     1      -1.696   0.334  23.685  0.00  0.00    +0.012 C 
ATOM      9  C   UNL     1      -1.021  -1.051  23.779  0.00  0.00    +0.024 C 
ATOM     11  C   UNL     1      -0.476  -1.355  25.166  0.00  0.00    -0.073 C 
ATOM     12  C   UNL     1      -0.759  -0.584  26.232  0.00  0.00    -0.023 C 
ATOM     17  C   UNL     1       0.357  -2.597  25.330  0.00  0.00    +0.039 C 
ENDROOT
BRANCH   6  10
ATOM     10  C   UNL     1      -3.757  -0.217  25.050  0.00  0.00    -0.013 C 
ATOM     15  C   UNL     1      -3.976  -0.997  23.758  0.00  0.00    +0.007 C 
ATOM     16  C   UNL     1      -4.992   0.607  25.400  0.00  0.00    +0.007 C 
ENDBRANCH   6  10
BRANCH   7  13
ATOM     13  C   UNL     1      -0.792   1.890  26.355  0.00  0.00    +0.089 C 
BRANCH  13   2
ATOM      2  N   UNL     1      -0.564   2.519  25.065  0.00  0.00    -0.311 NA
ATOM     29  H   UNL     1      -1.041   1.975  24.345  0.00  0.00    +0.122 HD
BRANCH   2  19
ATOM     19  C   UNL     1      -1.079   3.884  25.048  0.00  0.00    +0.117 C 
BRANCH  19  20
ATOM      5  N   UNL     1      -4.559   4.103  26.521  0.00  0.00    -0.263 NA
ATOM     20  C   UNL     1      -2.581   3.916  25.144  0.00  0.00    -0.016 A 
ATOM     23  C   UNL     1      -3.374   3.797  24.009  0.00  0.00    +0.008 A 
ATOM     24  C   UNL     1      -3.217   4.066  26.366  0.00  0.00    +0.115 A 
ATOM     26  C   UNL     1      -4.759   3.831  24.127  0.00  0.00    +0.020 A 
ATOM     28  C   UNL     1      -5.297   3.983  25.395  0.00  0.00    +0.111 A 
ENDBRANCH  19  20
ENDBRANCH   2  19
ENDBRANCH  13   2
ENDBRANCH   7  13
BRANCH   9  14
ATOM     14  C   UNL     1       0.049  -1.149  22.683  0.00  0.00    +0.105 C 
BRANCH  14  18
ATOM      1  O   UNL     1       2.384  -0.486  22.446  0.00  0.00    -0.425 OA
ATOM      3  N   UNL     1       1.099   1.037  23.463  0.00  0.00    -0.112 NA
ATOM      4  N   UNL     1       2.386   1.540  23.397  0.00  0.00    -0.112 NA
ATOM     18  C   UNL     1       1.146  -0.146  22.897  0.00  0.00    +0.218 A 
ATOM     21  C   UNL     1       3.101   0.617  22.795  0.00  0.00    +0.217 A 
BRANCH  21  22
ATOM     22  C   UNL     1       4.529   0.616  22.455  0.00  0.00    +0.097 C 
BRANCH  22  25
ATOM     25  C   UNL     1       5.444   0.497  23.694  0.00  0.00    +0.006 C 
ATOM     27  C   UNL     1       5.422  -0.893  24.309  0.00  0.00    +0.004 C 
ENDBRANCH  22  25
ENDBRANCH  21  22
ENDBRANCH  14  18
ENDBRANCH   9  14
TORSDOF 9
ENDMDL
MODEL 6
REMARK VINA RESULT:      -2.4      1.922      6.967
REMARK  Name = 45784002
REMARK  13 active torsions:
REMARK  status: ('A' for Active; 'I' for Inactive)
REMARK    1  A    between atoms: N_2  and  C_13
REMARK    2  A    between atoms: N_2  and  C_19
REMARK    3  A    between atoms: C_6  and  C_10
REMARK    4  A    between atoms: C_7  and  C_13
REMARK    5  A    between atoms: C_9  and  C_14
REMARK    6  A    between atoms: C_10  and  C_15
REMARK    7  A    between atoms: C_10  and  C_16
REMARK    8  A    between atoms: C_11  and  C_17
REMARK    9  A    between atoms: C_14  and  C_18
REMARK   10  A    between atoms: C_19  and  C_20
REMARK   11  A    between atoms: C_21  and  C_22
REMARK   12  A    between atoms: C_22  and  C_25
REMARK   13  A    between atoms: C_25  and  C_27
REMARK                            x       y       z     vdW  Elec       q    Type
REMARK                         _______ _______ _______ _____ _____    ______ ____
ROOT
ATOM      6  C   UNL     1      -0.509   0.682  24.276  0.00  0.00    +0.000 C 
ATOM      7  C   UNL     1      -0.107  -0.668  23.638  0.00  0.00    +0.029 C 
ATOM      8  C   UNL     1      -2.019   0.918  24.130  0.00  0.00    +0.012 C 
ATOM      9  C   UNL     1      -2.877  -0.213  24.739  0.00  0.00    +0.024 C 
ATOM     11  C   UNL     1      -2.299  -1.598  24.488  0.00  0.00    -0.073 C 
ATOM     12  C   UNL     1      -1.065  -1.780  23.985  0.00  0.00    -0.023 C 
ATOM     17  C   UNL     1      -3.139  -2.782  24.881  0.00  0.00    +0.039 C 
ENDROOT
BRANCH   6  10
ATOM     10  C   UNL     1      -0.076   0.758  25.747  0.00  0.00    -0.013 C 
ATOM     15  C   UNL     1      -0.997  -0.091  26.617  0.00  0.00    +0.007 C 
ATOM     16  C   UNL     1      -0.065   2.207  26.223  0.00  0.00    +0.007 C 
ENDBRANCH   6  10
BRANCH   7  13
ATOM     13  C   UNL     1       0.010  -0.561  22.115  0.00  0.00    +0.089 C 
BRANCH  13   2
ATOM      2  N   UNL     1       1.397  -0.400  21.717  0.00  0.00    -0.311 NA
ATOM     29  H   UNL     1       1.427  -0.095  20.742  0.00  0.00    +0.122 HD
BRANCH   2  19
ATOM     19  C   UNL     1       2.070   0.594  22.546  0.00  0.00    +0.117 C 
BRANCH  19  20
ATOM      5  N   UNL     1       4.684  -1.697  24.046  0.00  0.00    -0.263 NA
ATOM     20  C   UNL     1       3.396   0.092  23.055  0.00  0.00    -0.016 A 
ATOM     23  C   UNL     1       4.527   0.898  23.021  0.00  0.00    +0.008 A 
ATOM     24  C   UNL     1       3.525  -1.187  23.572  0.00  0.00    +0.115 A 
ATOM     26  C   UNL     1       5.738   0.409  23.499  0.00  0.00    +0.020 A 
ATOM     28  C   UNL     1       5.763  -0.884  23.997  0.00  0.00    +0.111 A 
ENDBRANCH  19  20
ENDBRANCH   2  19
ENDBRANCH  13   2
ENDBRANCH   7  13
BRANCH   9  14
ATOM     14  C   UNL     1      -4.316  -0.065  24.228  0.00  0.00    +0.105 C 
BRANCH  14  18
ATOM      1  O   UNL     1      -4.108   2.229  25.031  0.00  0.00    -0.425 OA
ATOM      3  N   UNL     1      -6.215   1.486  24.922  0.00  0.00    -0.112 NA
ATOM      4  N   UNL     1      -6.245   2.787  25.388  0.00  0.00    -0.112 NA
ATOM     18  C   UNL     1      -4.948   1.203  24.727  0.00  0.00    +0.218 A 
ATOM     21  C   UNL     1      -4.993   3.181  25.436  0.00  0.00    +0.217 A 
BRANCH  21  22
ATOM     22  C   UNL     1      -4.435   4.473  25.852  0.00  0.00    +0.097 C 
BRANCH  22  25
ATOM     25  C   UNL     1      -2.944   4.387  26.248  0.00  0.00    +0.006 C 
ATOM     27  C   UNL     1      -2.025   5.022  25.217  0.00  0.00    +0.004 C 
ENDBRANCH  22  25
ENDBRANCH  21  22
ENDBRANCH  14  18
ENDBRANCH   9  14
TORSDOF 9
ENDMDL
MODEL 7
REMARK VINA RESULT:      -2.3      1.386      3.739
REMARK  Name = 45784002
REMARK  13 active torsions:
REMARK  status: ('A' for Active; 'I' for Inactive)
REMARK    1  A    between atoms: N_2  and  C_13
REMARK    2  A    between atoms: N_2  and  C_19
REMARK    3  A    between atoms: C_6  and  C_10
REMARK    4  A    between atoms: C_7  and  C_13
REMARK    5  A    between atoms: C_9  and  C_14
REMARK    6  A    between atoms: C_10  and  C_15
REMARK    7  A    between atoms: C_10  and  C_16
REMARK    8  A    between atoms: C_11  and  C_17
REMARK    9  A    between atoms: C_14  and  C_18
REMARK   10  A    between atoms: C_19  and  C_20
REMARK   11  A    between atoms: C_21  and  C_22
REMARK   12  A    between atoms: C_22  and  C_25
REMARK   13  A    between atoms: C_25  and  C_27
REMARK                            x       y       z     vdW  Elec       q    Type
REMARK                         _______ _______ _______ _____ _____    ______ ____
ROOT
ATOM      6  C   UNL     1      -3.517   2.508  23.598  0.00  0.00    +0.000 C 
ATOM      7  C   UNL     1      -4.675   1.883  24.411  0.00  0.00    +0.029 C 
ATOM      8  C   UNL     1      -2.191   1.805  23.924  0.00  0.00    +0.012 C 
ATOM      9  C   UNL     1      -2.230   0.281  23.674  0.00  0.00    +0.024 C 
ATOM     11  C   UNL     1      -3.547  -0.357  24.092  0.00  0.00    -0.073 C 
ATOM     12  C   UNL     1      -4.623   0.376  24.429  0.00  0.00    -0.023 C 
ATOM     17  C   UNL     1      -3.632  -1.858  24.060  0.00  0.00    +0.039 C 
ENDROOT
BRANCH   6  10
ATOM     10  C   UNL     1      -3.808   2.473  22.092  0.00  0.00    -0.013 C 
ATOM     15  C   UNL     1      -2.563   2.052  21.319  0.00  0.00    +0.007 C 
ATOM     16  C   UNL     1      -4.305   3.835  21.616  0.00  0.00    +0.007 C 
ENDBRANCH   6  10
BRANCH   7  13
ATOM     13  C   UNL     1      -4.699   2.403  25.852  0.00  0.00    +0.089 C 
BRANCH  13   2
ATOM      2  N   UNL     1      -4.650   3.854  25.876  0.00  0.00    -0.311 NA
ATOM     29  H   UNL     1      -5.548   4.209  26.208  0.00  0.00    +0.122 HD
BRANCH   2  19
ATOM     19  C   UNL     1      -3.594   4.330  26.762  0.00  0.00    +0.117 C 
BRANCH  19  20
ATOM      5  N   UNL     1      -0.150   2.973  25.968  0.00  0.00    -0.263 NA
ATOM     20  C   UNL     1      -2.232   4.190  26.134  0.00  0.00    -0.016 A 
ATOM     23  C   UNL     1      -1.787   5.096  25.178  0.00  0.00    +0.008 A 
ATOM     24  C   UNL     1      -1.383   3.155  26.492  0.00  0.00    +0.115 A 
ATOM     26  C   UNL     1      -0.525   4.942  24.616  0.00  0.00    +0.020 A 
ATOM     28  C   UNL     1       0.248   3.874  25.042  0.00  0.00    +0.111 A 
ENDBRANCH  19  20
ENDBRANCH   2  19
ENDBRANCH  13   2
ENDBRANCH   7  13
BRANCH   9  14
ATOM     14  C   UNL     1      -1.014  -0.358  24.359  0.00  0.00    +0.105 C 
BRANCH  14  18
ATOM      1  O   UNL     1       1.190   0.593  23.925  0.00  0.00    -0.425 OA
ATOM      3  N   UNL     1       0.505  -0.870  22.379  0.00  0.00    -0.112 NA
ATOM      4  N   UNL     1       1.758  -0.415  22.010  0.00  0.00    -0.112 NA
ATOM     18  C   UNL     1       0.215  -0.255  23.501  0.00  0.00    +0.218 A 
ATOM     21  C   UNL     1       2.119   0.437  22.942  0.00  0.00    +0.217 A 
BRANCH  21  22
ATOM     22  C   UNL     1       3.354   1.220  23.065  0.00  0.00    +0.097 C 
BRANCH  22  25
ATOM     25  C   UNL     1       4.622   0.403  22.734  0.00  0.00    +0.006 C 
ATOM     27  C   UNL     1       5.412   0.016  23.974  0.00  0.00    +0.004 C 
ENDBRANCH  22  25
ENDBRANCH  21  22
ENDBRANCH  14  18
ENDBRANCH   9  14
TORSDOF 9
ENDMDL
