MODEL 1
REMARK VINA RESULT:       5.3      0.000      0.000
REMARK  Name = 40480283
REMARK  4 active torsions:
REMARK  status: ('A' for Active; 'I' for Inactive)
REMARK    1  A    between atoms: N_6  and  C_18
REMARK    2  A    between atoms: C_17  and  C_20
REMARK    3  A    between atoms: C_23  and  C_27
REMARK    4  A    between atoms: C_32  and  C_33
REMARK                            x       y       z     vdW  Elec       q    Type
REMARK                         _______ _______ _______ _____ _____    ______ ____
ROOT
ATOM      1  O   UNL     1      -0.033   2.673  25.678  0.00  0.00    -0.266 OA
ATOM      2  O   UNL     1      -3.973  -0.277  27.271  0.00  0.00    -0.270 OA
ATOM      4  N   UNL     1      -4.785   1.154  25.607  0.00  0.00    -0.297 N 
ATOM      5  N   UNL     1      -2.158   2.689  24.709  0.00  0.00    -0.310 N 
ATOM      8  C   UNL     1      -4.233   3.559  25.936  0.00  0.00    +0.027 C 
ATOM      9  C   UNL     1      -4.447   2.653  23.657  0.00  0.00    +0.054 C 
ATOM     10  C   UNL     1      -4.758   3.863  24.537  0.00  0.00    +0.018 C 
ATOM     11  C   UNL     1      -4.916   2.302  26.505  0.00  0.00    +0.113 C 
ATOM     12  C   UNL     1      -2.708   3.406  25.868  0.00  0.00    +0.130 C 
ATOM     13  C   UNL     1      -5.172   1.410  24.210  0.00  0.00    +0.117 C 
ATOM     14  C   UNL     1      -2.955   2.390  23.598  0.00  0.00    +0.027 A 
ATOM     15  C   UNL     1      -2.406   1.839  22.502  0.00  0.00    +0.024 A 
ATOM     16  C   UNL     1      -0.777   2.413  24.732  0.00  0.00    +0.273 A 
ATOM     17  C   UNL     1      -4.299  -0.057  26.106  0.00  0.00    +0.247 C 
ATOM     18  C   UNL     1      -0.210   1.773  23.502  0.00  0.00    +0.099 A 
ATOM     19  C   UNL     1      -1.006   1.524  22.457  0.00  0.00    +0.030 A 
ENDROOT
BRANCH  17  20
ATOM     20  C   UNL     1      -4.137  -1.171  25.166  0.00  0.00    +0.037 A 
ATOM     21  C   UNL     1      -4.764  -1.132  23.921  0.00  0.00    +0.013 A 
ATOM     22  C   UNL     1      -3.353  -2.270  25.518  0.00  0.00    +0.013 A 
ATOM     24  C   UNL     1      -4.609  -2.192  23.028  0.00  0.00    +0.001 A 
ATOM     25  C   UNL     1      -3.198  -3.331  24.625  0.00  0.00    +0.001 A 
ATOM     26  C   UNL     1      -3.827  -3.291  23.380  0.00  0.00    +0.000 A 
ENDBRANCH  17  20
BRANCH  18   6
ATOM      3  O   UNL     1       0.934  -0.788  22.976  0.00  0.00    -0.270 OA
ATOM      6  N   UNL     1       1.120   1.472  23.492  0.00  0.00    -0.277 N 
ATOM     23  C   UNL     1       1.616   0.203  23.228  0.00  0.00    +0.248 C 
ATOM     34  H   UNL     1       1.733   2.201  23.843  0.00  0.00    +0.155 HD
BRANCH  23  27
ATOM     27  C   UNL     1       3.096   0.074  23.239  0.00  0.00    +0.037 A 
ATOM     28  C   UNL     1       3.892   1.123  22.779  0.00  0.00    +0.014 A 
ATOM     29  C   UNL     1       3.690  -1.097  23.709  0.00  0.00    +0.014 A 
ATOM     30  C   UNL     1       5.281   1.001  22.791  0.00  0.00    +0.019 A 
ATOM     31  C   UNL     1       5.079  -1.219  23.722  0.00  0.00    +0.019 A 
ATOM     32  C   UNL     1       5.875  -0.170  23.262  0.00  0.00    +0.052 A 
BRANCH  32  33
ATOM      7  N   UNL     1       8.454  -0.395  23.283  0.00  0.00    -0.191 NA
ATOM     33  C   UNL     1       7.299  -0.294  23.274  0.00  0.00    +0.099 C 
ENDBRANCH  32  33
ENDBRANCH  23  27
ENDBRANCH  18   6
TORSDOF 4
ENDMDL
