MODEL 1
REMARK VINA RESULT:      -5.1      0.000      0.000
REMARK  Name = 38030222
REMARK  11 active torsions:
REMARK  status: ('A' for Active; 'I' for Inactive)
REMARK    1  A    between atoms: O_1  and  C_13
REMARK    2  A    between atoms: N_3  and  C_18
REMARK    3  A    between atoms: N_3  and  C_19
REMARK    4  A    between atoms: C_5  and  C_9
REMARK    5  A    between atoms: C_7  and  C_13
REMARK    6  A    between atoms: C_8  and  C_12
REMARK    7  A    between atoms: C_9  and  C_14
REMARK    8  A    between atoms: C_9  and  C_15
REMARK    9  A    between atoms: C_10  and  C_16
REMARK   10  A    between atoms: C_12  and  C_17
REMARK   11  A    between atoms: C_18  and  C_20
REMARK                            x       y       z     vdW  Elec       q    Type
REMARK                         _______ _______ _______ _____ _____    ______ ____
ROOT
ATOM      5  C   UNL     1      -3.328   2.763  25.000  0.00  0.00    +0.001 C 
ATOM      6  C   UNL     1      -2.714   2.129  23.743  0.00  0.00    +0.012 C 
ATOM      7  C   UNL     1      -4.780   2.261  25.204  0.00  0.00    +0.040 C 
ATOM      8  C   UNL     1      -2.694   0.591  23.815  0.00  0.00    +0.023 C 
ATOM     10  C   UNL     1      -4.026   0.031  24.273  0.00  0.00    -0.073 C 
ATOM     11  C   UNL     1      -4.950   0.796  24.880  0.00  0.00    -0.022 C 
ATOM     16  C   UNL     1      -4.288  -1.419  23.976  0.00  0.00    +0.039 C 
ENDROOT
BRANCH   5   9
ATOM      9  C   UNL     1      -3.262   4.290  24.898  0.00  0.00    -0.013 C 
ATOM     14  C   UNL     1      -1.830   4.775  25.103  0.00  0.00    +0.007 C 
ATOM     15  C   UNL     1      -3.804   4.756  23.550  0.00  0.00    +0.007 C 
ENDBRANCH   5   9
BRANCH   8  12
ATOM     12  C   UNL     1      -1.553   0.095  24.712  0.00  0.00    +0.103 C 
BRANCH  12  17
ATOM      2  O   UNL     1      -0.744  -2.000  23.874  0.00  0.00    -0.276 OA
ATOM      3  N   UNL     1       0.519  -0.117  23.383  0.00  0.00    -0.300 N 
ATOM     17  C   UNL     1      -0.569  -0.781  23.958  0.00  0.00    +0.216 C 
ATOM     19  C   UNL     1       0.704   1.324  23.497  0.00  0.00    +0.132 C 
BRANCH   3  18
ATOM     18  C   UNL     1       1.554  -0.819  22.626  0.00  0.00    +0.144 C 
BRANCH  18  20
ATOM      4  N   UNL     1       4.644   1.305  23.116  0.00  0.00    -0.263 NA
ATOM     20  C   UNL     1       2.935  -0.403  23.044  0.00  0.00    -0.012 A 
ATOM     21  C   UNL     1       3.774  -1.283  23.718  0.00  0.00    +0.008 A 
ATOM     22  C   UNL     1       3.412   0.868  22.769  0.00  0.00    +0.115 A 
ATOM     23  C   UNL     1       5.049  -0.869  24.093  0.00  0.00    +0.020 A 
ATOM     24  C   UNL     1       5.432   0.422  23.770  0.00  0.00    +0.111 A 
ENDBRANCH  18  20
ENDBRANCH   3  18
ENDBRANCH  12  17
ENDBRANCH   8  12
BRANCH   7  13
ATOM     13  C   UNL     1      -5.261   2.528  26.635  0.00  0.00    +0.163 C 
BRANCH  13   1
ATOM      1  O   UNL     1      -6.559   1.983  26.775  0.00  0.00    -0.394 OA
ATOM     25  H   UNL     1      -6.971   1.993  25.895  0.00  0.00    +0.209 HD
ENDBRANCH  13   1
ENDBRANCH   7  13
TORSDOF 7
ENDMDL
MODEL 2
REMARK VINA RESULT:      -4.8      2.515      6.741
REMARK  Name = 38030222
REMARK  11 active torsions:
REMARK  status: ('A' for Active; 'I' for Inactive)
REMARK    1  A    between atoms: O_1  and  C_13
REMARK    2  A    between atoms: N_3  and  C_18
REMARK    3  A    between atoms: N_3  and  C_19
REMARK    4  A    between atoms: C_5  and  C_9
REMARK    5  A    between atoms: C_7  and  C_13
REMARK    6  A    between atoms: C_8  and  C_12
REMARK    7  A    between atoms: C_9  and  C_14
REMARK    8  A    between atoms: C_9  and  C_15
REMARK    9  A    between atoms: C_10  and  C_16
REMARK   10  A    between atoms: C_12  and  C_17
REMARK   11  A    between atoms: C_18  and  C_20
REMARK                            x       y       z     vdW  Elec       q    Type
REMARK                         _______ _______ _______ _____ _____    ______ ____
ROOT
ATOM      5  C   UNL     1      -1.674  -0.108  24.540  0.00  0.00    +0.001 C 
ATOM      6  C   UNL     1      -1.398   1.015  23.530  0.00  0.00    +0.012 C 
ATOM      7  C   UNL     1      -0.973  -1.417  24.098  0.00  0.00    +0.040 C 
ATOM      8  C   UNL     1       0.107   1.298  23.369  0.00  0.00    +0.023 C 
ATOM     10  C   UNL     1       0.905   0.021  23.195  0.00  0.00    -0.073 C 
ATOM     11  C   UNL     1       0.400  -1.185  23.514  0.00  0.00    -0.022 C 
ATOM     16  C   UNL     1       2.280   0.157  22.604  0.00  0.00    +0.039 C 
ENDROOT
BRANCH   5   9
ATOM      9  C   UNL     1      -3.185  -0.300  24.703  0.00  0.00    -0.013 C 
ATOM     14  C   UNL     1      -3.741  -1.146  23.562  0.00  0.00    +0.007 C 
ATOM     15  C   UNL     1      -3.498  -0.939  26.053  0.00  0.00    +0.007 C 
ENDBRANCH   5   9
BRANCH   8  12
ATOM     12  C   UNL     1       0.642   2.124  24.545  0.00  0.00    +0.103 C 
BRANCH  12  17
ATOM      2  O   UNL     1      -0.871   2.189  26.402  0.00  0.00    -0.276 OA
ATOM      3  N   UNL     1      -0.997   3.939  24.885  0.00  0.00    -0.300 N 
ATOM     17  C   UNL     1      -0.473   2.737  25.371  0.00  0.00    +0.216 C 
ATOM     19  C   UNL     1      -0.510   4.568  23.664  0.00  0.00    +0.132 C 
BRANCH   3  18
ATOM     18  C   UNL     1      -2.075   4.655  25.566  0.00  0.00    +0.144 C 
BRANCH  18  20
ATOM      4  N   UNL     1      -5.427   3.186  26.517  0.00  0.00    -0.263 NA
ATOM     20  C   UNL     1      -3.386   3.929  25.458  0.00  0.00    -0.012 A 
ATOM     21  C   UNL     1      -3.781   3.338  24.263  0.00  0.00    +0.008 A 
ATOM     22  C   UNL     1      -4.237   3.825  26.546  0.00  0.00    +0.115 A 
ATOM     23  C   UNL     1      -5.000   2.671  24.194  0.00  0.00    +0.020 A 
ATOM     24  C   UNL     1      -5.779   2.624  25.339  0.00  0.00    +0.111 A 
ENDBRANCH  18  20
ENDBRANCH   3  18
ENDBRANCH  12  17
ENDBRANCH   8  12
BRANCH   7  13
ATOM     13  C   UNL     1      -0.872  -2.411  25.261  0.00  0.00    +0.163 C 
BRANCH  13   1
ATOM      1  O   UNL     1       0.309  -2.128  25.985  0.00  0.00    -0.394 OA
ATOM     25  H   UNL     1       0.940  -1.730  25.362  0.00  0.00    +0.209 HD
ENDBRANCH  13   1
ENDBRANCH   7  13
TORSDOF 7
ENDMDL
MODEL 3
REMARK VINA RESULT:      -4.1      1.412      3.243
REMARK  Name = 38030222
REMARK  11 active torsions:
REMARK  status: ('A' for Active; 'I' for Inactive)
REMARK    1  A    between atoms: O_1  and  C_13
REMARK    2  A    between atoms: N_3  and  C_18
REMARK    3  A    between atoms: N_3  and  C_19
REMARK    4  A    between atoms: C_5  and  C_9
REMARK    5  A    between atoms: C_7  and  C_13
REMARK    6  A    between atoms: C_8  and  C_12
REMARK    7  A    between atoms: C_9  and  C_14
REMARK    8  A    between atoms: C_9  and  C_15
REMARK    9  A    between atoms: C_10  and  C_16
REMARK   10  A    between atoms: C_12  and  C_17
REMARK   11  A    between atoms: C_18  and  C_20
REMARK                            x       y       z     vdW  Elec       q    Type
REMARK                         _______ _______ _______ _____ _____    ______ ____
ROOT
ATOM      5  C   UNL     1      -3.691   0.809  24.849  0.00  0.00    +0.001 C 
ATOM      6  C   UNL     1      -2.257   1.004  25.363  0.00  0.00    +0.012 C 
ATOM      7  C   UNL     1      -4.645   1.840  25.503  0.00  0.00    +0.040 C 
ATOM      8  C   UNL     1      -1.721   2.418  25.072  0.00  0.00    +0.023 C 
ATOM     10  C   UNL     1      -2.725   3.489  25.446  0.00  0.00    -0.073 C 
ATOM     11  C   UNL     1      -4.025   3.209  25.648  0.00  0.00    -0.022 C 
ATOM     16  C   UNL     1      -2.192   4.883  25.628  0.00  0.00    +0.039 C 
ENDROOT
BRANCH   5   9
ATOM      9  C   UNL     1      -4.145  -0.631  25.110  0.00  0.00    -0.013 C 
ATOM     14  C   UNL     1      -4.203  -1.416  23.803  0.00  0.00    +0.007 C 
ATOM     15  C   UNL     1      -3.211  -1.310  26.108  0.00  0.00    +0.007 C 
ENDBRANCH   5   9
BRANCH   8  12
ATOM     12  C   UNL     1      -1.293   2.555  23.605  0.00  0.00    +0.103 C 
BRANCH  12  17
ATOM      2  O   UNL     1      -1.497   0.539  22.326  0.00  0.00    -0.276 OA
ATOM      3  N   UNL     1       0.544   0.923  23.360  0.00  0.00    -0.300 N 
ATOM     17  C   UNL     1      -0.776   1.248  23.033  0.00  0.00    +0.216 C 
ATOM     19  C   UNL     1       1.376   1.778  24.198  0.00  0.00    +0.132 C 
BRANCH   3  18
ATOM     18  C   UNL     1       1.189  -0.301  22.887  0.00  0.00    +0.144 C 
BRANCH  18  20
ATOM      4  N   UNL     1       4.673  -1.353  23.913  0.00  0.00    -0.263 NA
ATOM     20  C   UNL     1       2.676  -0.267  23.091  0.00  0.00    -0.012 A 
ATOM     21  C   UNL     1       3.431   0.826  22.679  0.00  0.00    +0.008 A 
ATOM     22  C   UNL     1       3.339  -1.321  23.698  0.00  0.00    +0.115 A 
ATOM     23  C   UNL     1       4.807   0.830  22.882  0.00  0.00    +0.020 A 
ATOM     24  C   UNL     1       5.374  -0.274  23.499  0.00  0.00    +0.111 A 
ENDBRANCH  18  20
ENDBRANCH   3  18
ENDBRANCH  12  17
ENDBRANCH   8  12
BRANCH   7  13
ATOM     13  C   UNL     1      -5.958   1.953  24.721  0.00  0.00    +0.163 C 
BRANCH  13   1
ATOM      1  O   UNL     1      -7.029   1.719  25.615  0.00  0.00    -0.394 OA
ATOM     25  H   UNL     1      -7.779   1.397  25.087  0.00  0.00    +0.209 HD
ENDBRANCH  13   1
ENDBRANCH   7  13
TORSDOF 7
ENDMDL
MODEL 4
REMARK VINA RESULT:      -4.0      2.543      4.398
REMARK  Name = 38030222
REMARK  11 active torsions:
REMARK  status: ('A' for Active; 'I' for Inactive)
REMARK    1  A    between atoms: O_1  and  C_13
REMARK    2  A    between atoms: N_3  and  C_18
REMARK    3  A    between atoms: N_3  and  C_19
REMARK    4  A    between atoms: C_5  and  C_9
REMARK    5  A    between atoms: C_7  and  C_13
REMARK    6  A    between atoms: C_8  and  C_12
REMARK    7  A    between atoms: C_9  and  C_14
REMARK    8  A    between atoms: C_9  and  C_15
REMARK    9  A    between atoms: C_10  and  C_16
REMARK   10  A    between atoms: C_12  and  C_17
REMARK   11  A    between atoms: C_18  and  C_20
REMARK                            x       y       z     vdW  Elec       q    Type
REMARK                         _______ _______ _______ _____ _____    ______ ____
ROOT
ATOM      5  C   UNL     1      -3.010   1.244  23.826  0.00  0.00    +0.001 C 
ATOM      6  C   UNL     1      -2.521   0.152  22.862  0.00  0.00    +0.012 C 
ATOM      7  C   UNL     1      -4.372   0.846  24.448  0.00  0.00    +0.040 C 
ATOM      8  C   UNL     1      -2.360  -1.212  23.559  0.00  0.00    +0.023 C 
ATOM     10  C   UNL     1      -3.564  -1.554  24.414  0.00  0.00    -0.073 C 
ATOM     11  C   UNL     1      -4.459  -0.623  24.790  0.00  0.00    -0.022 C 
ATOM     16  C   UNL     1      -3.739  -2.999  24.788  0.00  0.00    +0.039 C 
ENDROOT
BRANCH   5   9
ATOM      9  C   UNL     1      -3.090   2.586  23.093  0.00  0.00    -0.013 C 
ATOM     14  C   UNL     1      -2.731   2.410  21.620  0.00  0.00    +0.007 C 
ATOM     15  C   UNL     1      -4.482   3.191  23.242  0.00  0.00    +0.007 C 
ENDBRANCH   5   9
BRANCH   8  12
ATOM     12  C   UNL     1      -1.069  -1.260  24.385  0.00  0.00    +0.103 C 
BRANCH  12  17
ATOM      2  O   UNL     1      -1.764  -0.446  26.529  0.00  0.00    -0.276 OA
ATOM      3  N   UNL     1      -0.264   0.869  25.344  0.00  0.00    -0.300 N 
ATOM     17  C   UNL     1      -1.076  -0.256  25.523  0.00  0.00    +0.216 C 
ATOM     19  C   UNL     1       0.539   1.071  24.145  0.00  0.00    +0.132 C 
BRANCH   3  18
ATOM     18  C   UNL     1      -0.162   1.927  26.347  0.00  0.00    +0.144 C 
BRANCH  18  20
ATOM      4  N   UNL     1      -2.770   4.648  26.034  0.00  0.00    -0.263 NA
ATOM     20  C   UNL     1      -0.848   3.188  25.904  0.00  0.00    -0.012 A 
ATOM     21  C   UNL     1      -0.248   4.046  24.990  0.00  0.00    +0.008 A 
ATOM     22  C   UNL     1      -2.098   3.531  26.392  0.00  0.00    +0.115 A 
ATOM     23  C   UNL     1      -0.907   5.206  24.597  0.00  0.00    +0.020 A 
ATOM     24  C   UNL     1      -2.156   5.458  25.143  0.00  0.00    +0.111 A 
ENDBRANCH  18  20
ENDBRANCH   3  18
ENDBRANCH  12  17
ENDBRANCH   8  12
BRANCH   7  13
ATOM     13  C   UNL     1      -4.674   1.680  25.698  0.00  0.00    +0.163 C 
BRANCH  13   1
ATOM      1  O   UNL     1      -6.074   1.865  25.779  0.00  0.00    -0.394 OA
ATOM     25  H   UNL     1      -6.421   1.178  26.373  0.00  0.00    +0.209 HD
ENDBRANCH  13   1
ENDBRANCH   7  13
TORSDOF 7
ENDMDL
MODEL 5
REMARK VINA RESULT:      -4.0      3.108      6.288
REMARK  Name = 38030222
REMARK  11 active torsions:
REMARK  status: ('A' for Active; 'I' for Inactive)
REMARK    1  A    between atoms: O_1  and  C_13
REMARK    2  A    between atoms: N_3  and  C_18
REMARK    3  A    between atoms: N_3  and  C_19
REMARK    4  A    between atoms: C_5  and  C_9
REMARK    5  A    between atoms: C_7  and  C_13
REMARK    6  A    between atoms: C_8  and  C_12
REMARK    7  A    between atoms: C_9  and  C_14
REMARK    8  A    between atoms: C_9  and  C_15
REMARK    9  A    between atoms: C_10  and  C_16
REMARK   10  A    between atoms: C_12  and  C_17
REMARK   11  A    between atoms: C_18  and  C_20
REMARK                            x       y       z     vdW  Elec       q    Type
REMARK                         _______ _______ _______ _____ _____    ______ ____
ROOT
ATOM      5  C   UNL     1      -0.909   0.575  24.402  0.00  0.00    +0.001 C 
ATOM      6  C   UNL     1      -1.999   0.413  25.471  0.00  0.00    +0.012 C 
ATOM      7  C   UNL     1      -0.110  -0.742  24.239  0.00  0.00    +0.040 C 
ATOM      8  C   UNL     1      -2.987  -0.719  25.130  0.00  0.00    +0.023 C 
ATOM     10  C   UNL     1      -2.269  -1.982  24.697  0.00  0.00    -0.073 C 
ATOM     11  C   UNL     1      -0.979  -1.974  24.315  0.00  0.00    -0.022 C 
ATOM     16  C   UNL     1      -3.056  -3.261  24.757  0.00  0.00    +0.039 C 
ENDROOT
BRANCH   5   9
ATOM      9  C   UNL     1       0.003   1.752  24.764  0.00  0.00    -0.013 C 
ATOM     14  C   UNL     1      -0.252   2.930  23.828  0.00  0.00    +0.007 C 
ATOM     15  C   UNL     1      -0.210   2.161  26.218  0.00  0.00    +0.007 C 
ENDBRANCH   5   9
BRANCH   8  12
ATOM     12  C   UNL     1      -3.995  -0.269  24.065  0.00  0.00    +0.103 C 
BRANCH  12  17
ATOM      2  O   UNL     1      -3.456   1.906  23.214  0.00  0.00    -0.276 OA
ATOM      3  N   UNL     1      -5.056   1.803  24.890  0.00  0.00    -0.300 N 
ATOM     17  C   UNL     1      -4.131   1.242  24.005  0.00  0.00    +0.216 C 
ATOM     19  C   UNL     1      -5.842   0.997  25.816  0.00  0.00    +0.132 C 
BRANCH   3  18
ATOM     18  C   UNL     1      -5.304   3.243  24.955  0.00  0.00    +0.144 C 
BRANCH  18  20
ATOM      4  N   UNL     1      -2.464   5.581  24.077  0.00  0.00    -0.263 NA
ATOM     20  C   UNL     1      -4.028   4.027  25.069  0.00  0.00    -0.012 A 
ATOM     21  C   UNL     1      -3.237   3.946  26.209  0.00  0.00    +0.008 A 
ATOM     22  C   UNL     1      -3.601   4.850  24.040  0.00  0.00    +0.115 A 
ATOM     23  C   UNL     1      -2.059   4.683  26.285  0.00  0.00    +0.020 A 
ATOM     24  C   UNL     1      -1.721   5.477  25.201  0.00  0.00    +0.111 A 
ENDBRANCH  18  20
ENDBRANCH   3  18
ENDBRANCH  12  17
ENDBRANCH   8  12
BRANCH   7  13
ATOM     13  C   UNL     1       0.678  -0.753  22.924  0.00  0.00    +0.163 C 
BRANCH  13   1
ATOM      1  O   UNL     1       2.003  -0.342  23.197  0.00  0.00    -0.394 OA
ATOM     25  H   UNL     1       2.428  -1.055  23.702  0.00  0.00    +0.209 HD
ENDBRANCH  13   1
ENDBRANCH   7  13
TORSDOF 7
ENDMDL
MODEL 6
REMARK VINA RESULT:      -3.9      3.258      5.428
REMARK  Name = 38030222
REMARK  11 active torsions:
REMARK  status: ('A' for Active; 'I' for Inactive)
REMARK    1  A    between atoms: O_1  and  C_13
REMARK    2  A    between atoms: N_3  and  C_18
REMARK    3  A    between atoms: N_3  and  C_19
REMARK    4  A    between atoms: C_5  and  C_9
REMARK    5  A    between atoms: C_7  and  C_13
REMARK    6  A    between atoms: C_8  and  C_12
REMARK    7  A    between atoms: C_9  and  C_14
REMARK    8  A    between atoms: C_9  and  C_15
REMARK    9  A    between atoms: C_10  and  C_16
REMARK   10  A    between atoms: C_12  and  C_17
REMARK   11  A    between atoms: C_18  and  C_20
REMARK                            x       y       z     vdW  Elec       q    Type
REMARK                         _______ _______ _______ _____ _____    ______ ____
ROOT
ATOM      5  C   UNL     1      -3.633   2.450  24.978  0.00  0.00    +0.001 C 
ATOM      6  C   UNL     1      -3.212   3.149  26.279  0.00  0.00    +0.012 C 
ATOM      7  C   UNL     1      -3.706   3.471  23.815  0.00  0.00    +0.040 C 
ATOM      8  C   UNL     1      -1.843   3.844  26.152  0.00  0.00    +0.023 C 
ATOM     10  C   UNL     1      -1.743   4.663  24.881  0.00  0.00    -0.073 C 
ATOM     11  C   UNL     1      -2.593   4.492  23.852  0.00  0.00    -0.022 C 
ATOM     16  C   UNL     1      -0.672   5.716  24.837  0.00  0.00    +0.039 C 
ENDROOT
BRANCH   5   9
ATOM      9  C   UNL     1      -4.967   1.727  25.185  0.00  0.00    -0.013 C 
ATOM     14  C   UNL     1      -4.760   0.449  25.992  0.00  0.00    +0.007 C 
ATOM     15  C   UNL     1      -5.969   2.647  25.875  0.00  0.00    +0.007 C 
ENDBRANCH   5   9
BRANCH   8  12
ATOM     12  C   UNL     1      -0.698   2.828  26.241  0.00  0.00    +0.103 C 
BRANCH  12  17
ATOM      2  O   UNL     1      -0.322   2.459  23.903  0.00  0.00    -0.276 OA
ATOM      3  N   UNL     1      -0.839   0.598  25.187  0.00  0.00    -0.300 N 
ATOM     17  C   UNL     1      -0.599   1.963  24.998  0.00  0.00    +0.216 C 
ATOM     19  C   UNL     1      -1.165   0.035  26.491  0.00  0.00    +0.132 C 
BRANCH   3  18
ATOM     18  C   UNL     1      -0.782  -0.366  24.090  0.00  0.00    +0.144 C 
BRANCH  18  20
ATOM      4  N   UNL     1      -2.907  -3.452  24.601  0.00  0.00    -0.263 NA
ATOM     20  C   UNL     1      -1.971  -1.284  24.087  0.00  0.00    -0.012 A 
ATOM     21  C   UNL     1      -3.200  -0.862  23.593  0.00  0.00    +0.008 A 
ATOM     22  C   UNL     1      -1.877  -2.577  24.575  0.00  0.00    +0.115 A 
ATOM     23  C   UNL     1      -4.284  -1.734  23.603  0.00  0.00    +0.020 A 
ATOM     24  C   UNL     1      -4.086  -3.008  24.112  0.00  0.00    +0.111 A 
ENDBRANCH  18  20
ENDBRANCH   3  18
ENDBRANCH  12  17
ENDBRANCH   8  12
BRANCH   7  13
ATOM     13  C   UNL     1      -3.704   2.763  22.455  0.00  0.00    +0.163 C 
BRANCH  13   1
ATOM      1  O   UNL     1      -2.473   2.080  22.313  0.00  0.00    -0.394 OA
ATOM     25  H   UNL     1      -1.907   2.350  23.055  0.00  0.00    +0.209 HD
ENDBRANCH  13   1
ENDBRANCH   7  13
TORSDOF 7
ENDMDL
MODEL 7
REMARK VINA RESULT:      -3.8      2.139      3.669
REMARK  Name = 38030222
REMARK  11 active torsions:
REMARK  status: ('A' for Active; 'I' for Inactive)
REMARK    1  A    between atoms: O_1  and  C_13
REMARK    2  A    between atoms: N_3  and  C_18
REMARK    3  A    between atoms: N_3  and  C_19
REMARK    4  A    between atoms: C_5  and  C_9
REMARK    5  A    between atoms: C_7  and  C_13
REMARK    6  A    between atoms: C_8  and  C_12
REMARK    7  A    between atoms: C_9  and  C_14
REMARK    8  A    between atoms: C_9  and  C_15
REMARK    9  A    between atoms: C_10  and  C_16
REMARK   10  A    between atoms: C_12  and  C_17
REMARK   11  A    between atoms: C_18  and  C_20
REMARK                            x       y       z     vdW  Elec       q    Type
REMARK                         _______ _______ _______ _____ _____    ______ ____
ROOT
ATOM      5  C   UNL     1      -2.940   0.797  24.125  0.00  0.00    +0.001 C 
ATOM      6  C   UNL     1      -2.896   1.385  25.542  0.00  0.00    +0.012 C 
ATOM      7  C   UNL     1      -3.066   1.928  23.073  0.00  0.00    +0.040 C 
ATOM      8  C   UNL     1      -1.721   2.362  25.733  0.00  0.00    +0.023 C 
ATOM     10  C   UNL     1      -1.618   3.349  24.587  0.00  0.00    -0.073 C 
ATOM     11  C   UNL     1      -2.237   3.144  23.411  0.00  0.00    -0.022 C 
ATOM     16  C   UNL     1      -0.823   4.599  24.840  0.00  0.00    +0.039 C 
ENDROOT
BRANCH   5   9
ATOM      9  C   UNL     1      -4.088  -0.212  24.016  0.00  0.00    -0.013 C 
ATOM     14  C   UNL     1      -3.679  -1.551  24.622  0.00  0.00    +0.007 C 
ATOM     15  C   UNL     1      -5.339   0.332  24.699  0.00  0.00    +0.007 C 
ENDBRANCH   5   9
BRANCH   8  12
ATOM     12  C   UNL     1      -0.401   1.606  25.926  0.00  0.00    +0.103 C 
BRANCH  12  17
ATOM      2  O   UNL     1       0.932   2.485  24.139  0.00  0.00    -0.276 OA
ATOM      3  N   UNL     1       0.460   0.215  24.076  0.00  0.00    -0.300 N 
ATOM     17  C   UNL     1       0.392   1.494  24.637  0.00  0.00    +0.216 C 
ATOM     19  C   UNL     1      -0.188  -0.941  24.683  0.00  0.00    +0.132 C 
BRANCH   3  18
ATOM     18  C   UNL     1       1.184  -0.058  22.835  0.00  0.00    +0.144 C 
BRANCH  18  20
ATOM      4  N   UNL     1       4.826   0.961  22.855  0.00  0.00    -0.263 NA
ATOM     20  C   UNL     1       2.670  -0.113  23.053  0.00  0.00    -0.012 A 
ATOM     21  C   UNL     1       3.269  -1.228  23.627  0.00  0.00    +0.008 A 
ATOM     22  C   UNL     1       3.484   0.946  22.687  0.00  0.00    +0.115 A 
ATOM     23  C   UNL     1       4.647  -1.250  23.815  0.00  0.00    +0.020 A 
ATOM     24  C   UNL     1       5.374  -0.140  23.415  0.00  0.00    +0.111 A 
ENDBRANCH  18  20
ENDBRANCH   3  18
ENDBRANCH  12  17
ENDBRANCH   8  12
BRANCH   7  13
ATOM     13  C   UNL     1      -2.692   1.426  21.674  0.00  0.00    +0.163 C 
BRANCH  13   1
ATOM      1  O   UNL     1      -2.457   2.550  20.848  0.00  0.00    -0.394 OA
ATOM     25  H   UNL     1      -2.356   3.320  21.433  0.00  0.00    +0.209 HD
ENDBRANCH  13   1
ENDBRANCH   7  13
TORSDOF 7
ENDMDL
MODEL 8
REMARK VINA RESULT:      -3.3      2.080      3.780
REMARK  Name = 38030222
REMARK  11 active torsions:
REMARK  status: ('A' for Active; 'I' for Inactive)
REMARK    1  A    between atoms: O_1  and  C_13
REMARK    2  A    between atoms: N_3  and  C_18
REMARK    3  A    between atoms: N_3  and  C_19
REMARK    4  A    between atoms: C_5  and  C_9
REMARK    5  A    between atoms: C_7  and  C_13
REMARK    6  A    between atoms: C_8  and  C_12
REMARK    7  A    between atoms: C_9  and  C_14
REMARK    8  A    between atoms: C_9  and  C_15
REMARK    9  A    between atoms: C_10  and  C_16
REMARK   10  A    between atoms: C_12  and  C_17
REMARK   11  A    between atoms: C_18  and  C_20
REMARK                            x       y       z     vdW  Elec       q    Type
REMARK                         _______ _______ _______ _____ _____    ______ ____
ROOT
ATOM      5  C   UNL     1      -3.302   1.721  24.491  0.00  0.00    +0.001 C 
ATOM      6  C   UNL     1      -3.106   2.319  25.892  0.00  0.00    +0.012 C 
ATOM      7  C   UNL     1      -3.437   2.847  23.436  0.00  0.00    +0.040 C 
ATOM      8  C   UNL     1      -1.858   3.218  25.973  0.00  0.00    +0.023 C 
ATOM     10  C   UNL     1      -1.782   4.184  24.808  0.00  0.00    -0.073 C 
ATOM     11  C   UNL     1      -2.505   4.008  23.687  0.00  0.00    -0.022 C 
ATOM     16  C   UNL     1      -0.889   5.381  24.978  0.00  0.00    +0.039 C 
ENDROOT
BRANCH   5   9
ATOM      9  C   UNL     1      -4.518   0.790  24.489  0.00  0.00    -0.013 C 
ATOM     14  C   UNL     1      -4.117  -0.611  24.939  0.00  0.00    +0.007 C 
ATOM     15  C   UNL     1      -5.618   1.352  25.385  0.00  0.00    +0.007 C 
ENDBRANCH   5   9
BRANCH   8  12
ATOM     12  C   UNL     1      -0.579   2.377  26.074  0.00  0.00    +0.103 C 
BRANCH  12  17
ATOM      2  O   UNL     1       0.429   2.977  23.984  0.00  0.00    -0.276 OA
ATOM      3  N   UNL     1       0.058   0.718  24.358  0.00  0.00    -0.300 N 
ATOM     17  C   UNL     1       0.016   2.071  24.712  0.00  0.00    +0.216 C 
ATOM     19  C   UNL     1      -0.437  -0.335  25.236  0.00  0.00    +0.132 C 
BRANCH   3  18
ATOM     18  C   UNL     1       0.601   0.260  23.081  0.00  0.00    +0.144 C 
BRANCH  18  20
ATOM      4  N   UNL     1       4.005  -1.312  23.574  0.00  0.00    -0.263 NA
ATOM     20  C   UNL     1       2.093   0.099  23.130  0.00  0.00    -0.012 A 
ATOM     21  C   UNL     1       2.938   1.153  22.800  0.00  0.00    +0.008 A 
ATOM     22  C   UNL     1       2.671  -1.102  23.508  0.00  0.00    +0.115 A 
ATOM     23  C   UNL     1       4.317   0.975  22.856  0.00  0.00    +0.020 A 
ATOM     24  C   UNL     1       4.795  -0.265  23.246  0.00  0.00    +0.111 A 
ENDBRANCH  18  20
ENDBRANCH   3  18
ENDBRANCH  12  17
ENDBRANCH   8  12
BRANCH   7  13
ATOM     13  C   UNL     1      -3.210   2.307  22.019  0.00  0.00    +0.163 C 
BRANCH  13   1
ATOM      1  O   UNL     1      -1.842   1.974  21.885  0.00  0.00    -0.394 OA
ATOM     25  H   UNL     1      -1.716   1.628  20.986  0.00  0.00    +0.209 HD
ENDBRANCH  13   1
ENDBRANCH   7  13
TORSDOF 7
ENDMDL
MODEL 9
REMARK VINA RESULT:      -3.0      2.808      6.385
REMARK  Name = 38030222
REMARK  11 active torsions:
REMARK  status: ('A' for Active; 'I' for Inactive)
REMARK    1  A    between atoms: O_1  and  C_13
REMARK    2  A    between atoms: N_3  and  C_18
REMARK    3  A    between atoms: N_3  and  C_19
REMARK    4  A    between atoms: C_5  and  C_9
REMARK    5  A    between atoms: C_7  and  C_13
REMARK    6  A    between atoms: C_8  and  C_12
REMARK    7  A    between atoms: C_9  and  C_14
REMARK    8  A    between atoms: C_9  and  C_15
REMARK    9  A    between atoms: C_10  and  C_16
REMARK   10  A    between atoms: C_12  and  C_17
REMARK   11  A    between atoms: C_18  and  C_20
REMARK                            x       y       z     vdW  Elec       q    Type
REMARK                         _______ _______ _______ _____ _____    ______ ____
ROOT
ATOM      5  C   UNL     1       0.501   0.697  23.561  0.00  0.00    +0.001 C 
ATOM      6  C   UNL     1       0.817   2.188  23.745  0.00  0.00    +0.012 C 
ATOM      7  C   UNL     1       0.173   0.041  24.926  0.00  0.00    +0.040 C 
ATOM      8  C   UNL     1      -0.352   2.958  24.389  0.00  0.00    +0.023 C 
ATOM     10  C   UNL     1      -0.909   2.230  25.596  0.00  0.00    -0.073 C 
ATOM     11  C   UNL     1      -0.652   0.930  25.826  0.00  0.00    -0.022 C 
ATOM     16  C   UNL     1      -1.730   3.043  26.557  0.00  0.00    +0.039 C 
ENDROOT
BRANCH   5   9
ATOM      9  C   UNL     1       1.672   0.000  22.862  0.00  0.00    -0.013 C 
ATOM     14  C   UNL     1       1.280  -0.404  21.444  0.00  0.00    +0.007 C 
ATOM     15  C   UNL     1       2.898   0.908  22.847  0.00  0.00    +0.007 C 
ENDBRANCH   5   9
BRANCH   8  12
ATOM     12  C   UNL     1      -1.456   3.243  23.363  0.00  0.00    +0.103 C 
BRANCH  12  17
ATOM      2  O   UNL     1      -2.239   1.071  22.721  0.00  0.00    -0.276 OA
ATOM      3  N   UNL     1      -3.702   2.394  23.942  0.00  0.00    -0.300 N 
ATOM     17  C   UNL     1      -2.486   2.130  23.303  0.00  0.00    +0.216 C 
ATOM     19  C   UNL     1      -3.970   3.654  24.623  0.00  0.00    +0.132 C 
BRANCH   3  18
ATOM     18  C   UNL     1      -4.796   1.424  23.974  0.00  0.00    +0.144 C 
BRANCH  18  20
ATOM      4  N   UNL     1      -3.488  -1.282  26.268  0.00  0.00    -0.263 NA
ATOM     20  C   UNL     1      -4.340   0.079  24.462  0.00  0.00    -0.012 A 
ATOM     21  C   UNL     1      -4.333  -1.025  23.617  0.00  0.00    +0.008 A 
ATOM     22  C   UNL     1      -3.911  -0.100  25.767  0.00  0.00    +0.115 A 
ATOM     23  C   UNL     1      -3.904  -2.258  24.096  0.00  0.00    +0.020 A 
ATOM     24  C   UNL     1      -3.495  -2.332  25.418  0.00  0.00    +0.111 A 
ENDBRANCH  18  20
ENDBRANCH   3  18
ENDBRANCH  12  17
ENDBRANCH   8  12
BRANCH   7  13
ATOM     13  C   UNL     1      -0.543  -1.301  24.737  0.00  0.00    +0.163 C 
BRANCH  13   1
ATOM      1  O   UNL     1      -0.063  -2.201  25.717  0.00  0.00    -0.394 OA
ATOM     25  H   UNL     1       0.869  -2.381  25.510  0.00  0.00    +0.209 HD
ENDBRANCH  13   1
ENDBRANCH   7  13
TORSDOF 7
ENDMDL
MODEL 10
REMARK VINA RESULT:      -2.7      2.232      3.479
REMARK  Name = 38030222
REMARK  11 active torsions:
REMARK  status: ('A' for Active; 'I' for Inactive)
REMARK    1  A    between atoms: O_1  and  C_13
REMARK    2  A    between atoms: N_3  and  C_18
REMARK    3  A    between atoms: N_3  and  C_19
REMARK    4  A    between atoms: C_5  and  C_9
REMARK    5  A    between atoms: C_7  and  C_13
REMARK    6  A    between atoms: C_8  and  C_12
REMARK    7  A    between atoms: C_9  and  C_14
REMARK    8  A    between atoms: C_9  and  C_15
REMARK    9  A    between atoms: C_10  and  C_16
REMARK   10  A    between atoms: C_12  and  C_17
REMARK   11  A    between atoms: C_18  and  C_20
REMARK                            x       y       z     vdW  Elec       q    Type
REMARK                         _______ _______ _______ _____ _____    ______ ____
ROOT
ATOM      5  C   UNL     1      -3.464   2.317  24.198  0.00  0.00    +0.001 C 
ATOM      6  C   UNL     1      -4.665   1.448  23.796  0.00  0.00    +0.012 C 
ATOM      7  C   UNL     1      -3.922   3.482  25.110  0.00  0.00    +0.040 C 
ATOM      8  C   UNL     1      -5.391   0.855  25.017  0.00  0.00    +0.023 C 
ATOM     10  C   UNL     1      -5.641   1.900  26.086  0.00  0.00    -0.073 C 
ATOM     11  C   UNL     1      -4.984   3.074  26.103  0.00  0.00    -0.022 C 
ATOM     16  C   UNL     1      -6.696   1.584  27.109  0.00  0.00    +0.039 C 
ENDROOT
BRANCH   5   9
ATOM      9  C   UNL     1      -2.747   2.825  22.943  0.00  0.00    -0.013 C 
ATOM     14  C   UNL     1      -2.300   1.652  22.075  0.00  0.00    +0.007 C 
ATOM     15  C   UNL     1      -3.654   3.766  22.157  0.00  0.00    +0.007 C 
ENDBRANCH   5   9
BRANCH   8  12
ATOM     12  C   UNL     1      -4.623  -0.342  25.590  0.00  0.00    +0.103 C 
BRANCH  12  17
ATOM      2  O   UNL     1      -3.943  -1.212  23.462  0.00  0.00    -0.276 OA
ATOM      3  N   UNL     1      -2.300  -1.016  25.087  0.00  0.00    -0.300 N 
ATOM     17  C   UNL     1      -3.608  -0.897  24.607  0.00  0.00    +0.216 C 
ATOM     19  C   UNL     1      -1.928  -0.637  26.445  0.00  0.00    +0.132 C 
BRANCH   3  18
ATOM     18  C   UNL     1      -1.208  -1.533  24.265  0.00  0.00    +0.144 C 
BRANCH  18  20
ATOM      4  N   UNL     1       1.795   0.194  22.748  0.00  0.00    -0.263 NA
ATOM     20  C   UNL     1      -0.184  -0.476  23.963  0.00  0.00    -0.012 A 
ATOM     21  C   UNL     1      -0.235   0.768  24.581  0.00  0.00    +0.008 A 
ATOM     22  C   UNL     1       0.843  -0.712  23.063  0.00  0.00    +0.115 A 
ATOM     23  C   UNL     1       0.727   1.726  24.283  0.00  0.00    +0.020 A 
ATOM     24  C   UNL     1       1.713   1.392  23.368  0.00  0.00    +0.111 A 
ENDBRANCH  18  20
ENDBRANCH   3  18
ENDBRANCH  12  17
ENDBRANCH   8  12
BRANCH   7  13
ATOM     13  C   UNL     1      -2.734   4.100  25.857  0.00  0.00    +0.163 C 
BRANCH  13   1
ATOM      1  O   UNL     1      -2.139   5.070  25.018  0.00  0.00    -0.394 OA
ATOM     25  H   UNL     1      -1.180   4.917  25.037  0.00  0.00    +0.209 HD
ENDBRANCH  13   1
ENDBRANCH   7  13
TORSDOF 7
ENDMDL
