MODEL 1
REMARK VINA RESULT:      -1.7      0.000      0.000
REMARK  Name = 45783362
REMARK  10 active torsions:
REMARK  status: ('A' for Active; 'I' for Inactive)
REMARK    1  A    between atoms: O_5  and  C_28
REMARK    2  A    between atoms: O_5  and  C_30
REMARK    3  A    between atoms: O_6  and  C_31
REMARK    4  A    between atoms: O_6  and  C_32
REMARK    5  A    between atoms: N_7  and  C_15
REMARK    6  A    between atoms: C_11  and  C_16
REMARK    7  A    between atoms: C_15  and  C_17
REMARK    8  A    between atoms: C_20  and  C_24
REMARK    9  A    between atoms: C_23  and  C_25
REMARK   10  A    between atoms: C_30  and  C_31
REMARK                            x       y       z     vdW  Elec       q    Type
REMARK                         _______ _______ _______ _____ _____    ______ ____
ROOT
ATOM      7  N   UNL     1      -4.227  -0.623  24.154  0.00  0.00    -0.287 NA
ATOM     11  C   UNL     1      -3.190  -1.110  25.085  0.00  0.00    +0.146 C 
ATOM     12  C   UNL     1      -3.233  -2.643  24.951  0.00  0.00    +0.030 C 
ATOM     13  C   UNL     1      -4.362  -2.926  23.971  0.00  0.00    +0.017 C 
ATOM     14  C   UNL     1      -5.229  -1.686  24.059  0.00  0.00    +0.085 C 
ENDROOT
BRANCH  11  16
ATOM      4  O   UNL     1      -1.306   0.315  25.711  0.00  0.00    -0.336 OA
ATOM      8  N   UNL     1      -1.047  -0.733  23.749  0.00  0.00    -0.190 NA
ATOM      9  N   UNL     1      -0.055   0.710  25.221  0.00  0.00    -0.056 NA
ATOM     16  C   UNL     1      -1.822  -0.534  24.785  0.00  0.00    +0.245 A 
ATOM     20  C   UNL     1       0.025   0.050  24.061  0.00  0.00    +0.202 A 
BRANCH  20  24
ATOM     10  N   UNL     1       3.378   0.352  21.501  0.00  0.00    -0.221 NA
ATOM     24  C   UNL     1       1.162   0.152  23.193  0.00  0.00    +0.029 A 
ATOM     26  C   UNL     1       2.291   0.855  23.601  0.00  0.00    +0.079 A 
ATOM     27  C   UNL     1       1.140  -0.449  21.940  0.00  0.00    +0.031 A 
ATOM     28  C   UNL     1       3.363   0.925  22.726  0.00  0.00    +0.215 A 
ATOM     29  C   UNL     1       2.264  -0.321  21.139  0.00  0.00    +0.115 A 
BRANCH  28   5
ATOM      5  O   UNL     1       4.487   1.612  23.105  0.00  0.00    -0.474 OA
BRANCH   5  30
ATOM     30  C   UNL     1       5.328   0.983  24.064  0.00  0.00    +0.258 C 
BRANCH  30  31
ATOM     31  C   UNL     1       5.891  -0.293  23.468  0.00  0.00    +0.200 C 
BRANCH  31   6
ATOM      6  O   UNL     1       5.556  -1.387  24.312  0.00  0.00    -0.380 OA
ATOM     32  C   UNL     1       4.331  -1.991  23.921  0.00  0.00    +0.194 C 
ENDBRANCH  31   6
ENDBRANCH  30  31
ENDBRANCH   5  30
ENDBRANCH  28   5
ENDBRANCH  20  24
ENDBRANCH  11  16
BRANCH   7  15
ATOM     15  C   UNL     1      -4.814   0.648  24.560  0.00  0.00    +0.120 C 
BRANCH  15  17
ATOM     17  C   UNL     1      -3.789   1.749  24.602  0.00  0.00    -0.033 A 
ATOM     18  C   UNL     1      -3.618   2.499  25.766  0.00  0.00    +0.005 A 
ATOM     19  C   UNL     1      -3.009   2.021  23.478  0.00  0.00    +0.005 A 
ATOM     21  C   UNL     1      -2.669   3.519  25.806  0.00  0.00    +0.012 A 
ATOM     22  C   UNL     1      -2.060   3.042  23.517  0.00  0.00    +0.012 A 
ATOM     23  C   UNL     1      -1.889   3.791  24.682  0.00  0.00    +0.055 A 
BRANCH  23  25
ATOM      1  F   UNL     1      -0.247   5.094  23.530  0.00  0.00    -0.166 F 
ATOM      2  F   UNL     1       0.128   4.628  25.621  0.00  0.00    -0.166 F 
ATOM      3  F   UNL     1      -1.386   6.095  25.082  0.00  0.00    -0.166 F 
ATOM     25  C   UNL     1      -0.871   4.880  24.726  0.00  0.00    +0.417 C 
ENDBRANCH  23  25
ENDBRANCH  15  17
ENDBRANCH   7  15
TORSDOF 9
ENDMDL
MODEL 2
REMARK VINA RESULT:       0.6      1.177      1.828
REMARK  Name = 45783362
REMARK  10 active torsions:
REMARK  status: ('A' for Active; 'I' for Inactive)
REMARK    1  A    between atoms: O_5  and  C_28
REMARK    2  A    between atoms: O_5  and  C_30
REMARK    3  A    between atoms: O_6  and  C_31
REMARK    4  A    between atoms: O_6  and  C_32
REMARK    5  A    between atoms: N_7  and  C_15
REMARK    6  A    between atoms: C_11  and  C_16
REMARK    7  A    between atoms: C_15  and  C_17
REMARK    8  A    between atoms: C_20  and  C_24
REMARK    9  A    between atoms: C_23  and  C_25
REMARK   10  A    between atoms: C_30  and  C_31
REMARK                            x       y       z     vdW  Elec       q    Type
REMARK                         _______ _______ _______ _____ _____    ______ ____
ROOT
ATOM      7  N   UNL     1      -4.478  -1.326  23.908  0.00  0.00    -0.287 NA
ATOM     11  C   UNL     1      -3.611  -1.755  25.024  0.00  0.00    +0.146 C 
ATOM     12  C   UNL     1      -3.395  -3.262  24.794  0.00  0.00    +0.030 C 
ATOM     13  C   UNL     1      -4.226  -3.600  23.564  0.00  0.00    +0.017 C 
ATOM     14  C   UNL     1      -5.264  -2.497  23.522  0.00  0.00    +0.085 C 
ENDROOT
BRANCH  11  16
ATOM      4  O   UNL     1      -1.913  -0.557  26.311  0.00  0.00    -0.336 OA
ATOM      8  N   UNL     1      -1.498  -0.649  24.112  0.00  0.00    -0.190 NA
ATOM      9  N   UNL     1      -0.706   0.124  26.114  0.00  0.00    -0.056 NA
ATOM     16  C   UNL     1      -2.311  -0.980  25.083  0.00  0.00    +0.245 A 
ATOM     20  C   UNL     1      -0.528   0.027  24.793  0.00  0.00    +0.202 A 
BRANCH  20  24
ATOM     10  N   UNL     1       2.821   1.697  22.821  0.00  0.00    -0.221 NA
ATOM     24  C   UNL     1       0.607   0.593  24.125  0.00  0.00    +0.029 A 
ATOM     26  C   UNL     1       1.490  -0.228  23.430  0.00  0.00    +0.079 A 
ATOM     27  C   UNL     1       0.830   1.965  24.168  0.00  0.00    +0.031 A 
ATOM     28  C   UNL     1       2.572   0.368  22.802  0.00  0.00    +0.215 A 
ATOM     29  C   UNL     1       1.942   2.462  23.506  0.00  0.00    +0.115 A 
BRANCH  28   5
ATOM      5  O   UNL     1       3.456  -0.420  22.111  0.00  0.00    -0.474 OA
BRANCH   5  30
ATOM     30  C   UNL     1       4.813  -0.381  22.535  0.00  0.00    +0.258 C 
BRANCH  30  31
ATOM     31  C   UNL     1       4.978  -1.269  23.753  0.00  0.00    +0.200 C 
BRANCH  31   6
ATOM      6  O   UNL     1       5.475  -0.487  24.833  0.00  0.00    -0.380 OA
ATOM     32  C   UNL     1       5.897   0.797  24.395  0.00  0.00    +0.194 C 
ENDBRANCH  31   6
ENDBRANCH  30  31
ENDBRANCH   5  30
ENDBRANCH  28   5
ENDBRANCH  20  24
ENDBRANCH  11  16
BRANCH   7  15
ATOM     15  C   UNL     1      -5.321  -0.185  24.242  0.00  0.00    +0.120 C 
BRANCH  15  17
ATOM     17  C   UNL     1      -4.509   1.056  24.500  0.00  0.00    -0.033 A 
ATOM     18  C   UNL     1      -3.578   1.489  23.556  0.00  0.00    +0.005 A 
ATOM     19  C   UNL     1      -4.687   1.773  25.683  0.00  0.00    +0.005 A 
ATOM     21  C   UNL     1      -2.826   2.639  23.795  0.00  0.00    +0.012 A 
ATOM     22  C   UNL     1      -3.935   2.923  25.922  0.00  0.00    +0.012 A 
ATOM     23  C   UNL     1      -3.004   3.356  24.978  0.00  0.00    +0.055 A 
BRANCH  23  25
ATOM      1  F   UNL     1      -2.169   5.447  24.171  0.00  0.00    -0.166 F 
ATOM      2  F   UNL     1      -0.897   4.313  25.522  0.00  0.00    -0.166 F 
ATOM      3  F   UNL     1      -2.663   5.333  26.280  0.00  0.00    -0.166 F 
ATOM     25  C   UNL     1      -2.203   4.588  25.232  0.00  0.00    +0.417 C 
ENDBRANCH  23  25
ENDBRANCH  15  17
ENDBRANCH   7  15
TORSDOF 9
ENDMDL
MODEL 3
REMARK VINA RESULT:       1.8      3.506      7.117
REMARK  Name = 45783362
REMARK  10 active torsions:
REMARK  status: ('A' for Active; 'I' for Inactive)
REMARK    1  A    between atoms: O_5  and  C_28
REMARK    2  A    between atoms: O_5  and  C_30
REMARK    3  A    between atoms: O_6  and  C_31
REMARK    4  A    between atoms: O_6  and  C_32
REMARK    5  A    between atoms: N_7  and  C_15
REMARK    6  A    between atoms: C_11  and  C_16
REMARK    7  A    between atoms: C_15  and  C_17
REMARK    8  A    between atoms: C_20  and  C_24
REMARK    9  A    between atoms: C_23  and  C_25
REMARK   10  A    between atoms: C_30  and  C_31
REMARK                            x       y       z     vdW  Elec       q    Type
REMARK                         _______ _______ _______ _____ _____    ______ ____
ROOT
ATOM      7  N   UNL     1      -0.255  -1.214  24.350  0.00  0.00    -0.287 NA
ATOM     11  C   UNL     1      -1.522  -1.920  24.072  0.00  0.00    +0.146 C 
ATOM     12  C   UNL     1      -1.526  -3.114  25.043  0.00  0.00    +0.030 C 
ATOM     13  C   UNL     1      -0.198  -3.031  25.782  0.00  0.00    +0.017 C 
ATOM     14  C   UNL     1       0.680  -2.225  24.847  0.00  0.00    +0.085 C 
ENDROOT
BRANCH  11  16
ATOM      4  O   UNL     1      -3.930  -1.555  23.869  0.00  0.00    -0.336 OA
ATOM      8  N   UNL     1      -2.805   0.200  24.688  0.00  0.00    -0.190 NA
ATOM      9  N   UNL     1      -4.884  -0.558  24.108  0.00  0.00    -0.056 NA
ATOM     16  C   UNL     1      -2.734  -1.027  24.237  0.00  0.00    +0.245 A 
ATOM     20  C   UNL     1      -4.143   0.444  24.590  0.00  0.00    +0.202 A 
BRANCH  20  24
ATOM     10  N   UNL     1      -5.816   4.152  25.750  0.00  0.00    -0.221 NA
ATOM     24  C   UNL     1      -4.711   1.702  24.983  0.00  0.00    +0.029 A 
ATOM     26  C   UNL     1      -3.883   2.786  25.259  0.00  0.00    +0.079 A 
ATOM     27  C   UNL     1      -6.090   1.842  25.091  0.00  0.00    +0.031 A 
ATOM     28  C   UNL     1      -4.480   3.978  25.636  0.00  0.00    +0.215 A 
ATOM     29  C   UNL     1      -6.588   3.078  25.475  0.00  0.00    +0.115 A 
BRANCH  28   5
ATOM      5  O   UNL     1      -3.686   5.060  25.913  0.00  0.00    -0.474 OA
BRANCH   5  30
ATOM     30  C   UNL     1      -2.312   4.797  26.169  0.00  0.00    +0.258 C 
BRANCH  30  31
ATOM     31  C   UNL     1      -1.486   5.287  24.996  0.00  0.00    +0.200 C 
BRANCH  31   6
ATOM      6  O   UNL     1      -0.577   4.264  24.609  0.00  0.00    -0.380 OA
ATOM     32  C   UNL     1      -0.496   3.241  25.591  0.00  0.00    +0.194 C 
ENDBRANCH  31   6
ENDBRANCH  30  31
ENDBRANCH   5  30
ENDBRANCH  28   5
ENDBRANCH  20  24
ENDBRANCH  11  16
BRANCH   7  15
ATOM     15  C   UNL     1       0.272  -0.501  23.194  0.00  0.00    +0.120 C 
BRANCH  15  17
ATOM     17  C   UNL     1       1.769  -0.354  23.261  0.00  0.00    -0.033 A 
ATOM     18  C   UNL     1       2.363   0.870  22.955  0.00  0.00    +0.005 A 
ATOM     19  C   UNL     1       2.561  -1.441  23.631  0.00  0.00    +0.005 A 
ATOM     21  C   UNL     1       3.750   1.007  23.018  0.00  0.00    +0.012 A 
ATOM     22  C   UNL     1       3.948  -1.304  23.693  0.00  0.00    +0.012 A 
ATOM     23  C   UNL     1       4.542  -0.080  23.387  0.00  0.00    +0.055 A 
BRANCH  23  25
ATOM      1  F   UNL     1       6.601  -0.668  24.453  0.00  0.00    -0.166 F 
ATOM      2  F   UNL     1       6.413   1.357  23.683  0.00  0.00    -0.166 F 
ATOM      3  F   UNL     1       6.667  -0.314  22.314  0.00  0.00    -0.166 F 
ATOM     25  C   UNL     1       6.024   0.068  23.458  0.00  0.00    +0.417 C 
ENDBRANCH  23  25
ENDBRANCH  15  17
ENDBRANCH   7  15
TORSDOF 9
ENDMDL
MODEL 4
REMARK VINA RESULT:       2.1      2.152      6.658
REMARK  Name = 45783362
REMARK  10 active torsions:
REMARK  status: ('A' for Active; 'I' for Inactive)
REMARK    1  A    between atoms: O_5  and  C_28
REMARK    2  A    between atoms: O_5  and  C_30
REMARK    3  A    between atoms: O_6  and  C_31
REMARK    4  A    between atoms: O_6  and  C_32
REMARK    5  A    between atoms: N_7  and  C_15
REMARK    6  A    between atoms: C_11  and  C_16
REMARK    7  A    between atoms: C_15  and  C_17
REMARK    8  A    between atoms: C_20  and  C_24
REMARK    9  A    between atoms: C_23  and  C_25
REMARK   10  A    between atoms: C_30  and  C_31
REMARK                            x       y       z     vdW  Elec       q    Type
REMARK                         _______ _______ _______ _____ _____    ______ ____
ROOT
ATOM      7  N   UNL     1       2.550   1.249  23.514  0.00  0.00    -0.287 NA
ATOM     11  C   UNL     1       1.993   0.079  22.806  0.00  0.00    +0.146 C 
ATOM     12  C   UNL     1       3.156  -0.926  22.735  0.00  0.00    +0.030 C 
ATOM     13  C   UNL     1       4.339  -0.212  23.374  0.00  0.00    +0.017 C 
ATOM     14  C   UNL     1       3.987   1.255  23.236  0.00  0.00    +0.085 C 
ENDROOT
BRANCH  11  16
ATOM      4  O   UNL     1       0.993  -1.390  24.484  0.00  0.00    -0.336 OA
ATOM      8  N   UNL     1      -0.497  -0.239  23.272  0.00  0.00    -0.190 NA
ATOM      9  N   UNL     1      -0.269  -1.767  24.960  0.00  0.00    -0.056 NA
ATOM     16  C   UNL     1       0.769  -0.489  23.493  0.00  0.00    +0.245 A 
ATOM     20  C   UNL     1      -1.095  -1.045  24.196  0.00  0.00    +0.202 A 
BRANCH  20  24
ATOM     10  N   UNL     1      -5.302  -1.231  24.595  0.00  0.00    -0.221 NA
ATOM     24  C   UNL     1      -2.521  -1.108  24.331  0.00  0.00    +0.029 A 
ATOM     26  C   UNL     1      -3.215  -0.053  24.915  0.00  0.00    +0.079 A 
ATOM     27  C   UNL     1      -3.217  -2.224  23.879  0.00  0.00    +0.031 A 
ATOM     28  C   UNL     1      -4.592  -0.163  25.024  0.00  0.00    +0.215 A 
ATOM     29  C   UNL     1      -4.595  -2.236  24.033  0.00  0.00    +0.115 A 
BRANCH  28   5
ATOM      5  O   UNL     1      -5.297   0.863  25.596  0.00  0.00    -0.474 OA
BRANCH   5  30
ATOM     30  C   UNL     1      -5.862   1.823  24.712  0.00  0.00    +0.258 C 
BRANCH  30  31
ATOM     31  C   UNL     1      -5.589   3.214  25.250  0.00  0.00    +0.200 C 
BRANCH  31   6
ATOM      6  O   UNL     1      -4.849   3.949  24.283  0.00  0.00    -0.380 OA
ATOM     32  C   UNL     1      -4.146   3.086  23.400  0.00  0.00    +0.194 C 
ENDBRANCH  31   6
ENDBRANCH  30  31
ENDBRANCH   5  30
ENDBRANCH  28   5
ENDBRANCH  20  24
ENDBRANCH  11  16
BRANCH   7  15
ATOM     15  C   UNL     1       1.914   2.505  23.140  0.00  0.00    +0.120 C 
BRANCH  15  17
ATOM     17  C   UNL     1       0.775   2.853  24.061  0.00  0.00    -0.033 A 
ATOM     18  C   UNL     1      -0.026   3.962  23.792  0.00  0.00    +0.005 A 
ATOM     19  C   UNL     1       0.521   2.066  25.184  0.00  0.00    +0.005 A 
ATOM     21  C   UNL     1      -1.081   4.285  24.645  0.00  0.00    +0.012 A 
ATOM     22  C   UNL     1      -0.534   2.388  26.038  0.00  0.00    +0.012 A 
ATOM     23  C   UNL     1      -1.336   3.497  25.768  0.00  0.00    +0.055 A 
BRANCH  23  25
ATOM      1  F   UNL     1      -3.516   2.970  26.599  0.00  0.00    -0.166 F 
ATOM      2  F   UNL     1      -2.992   5.073  26.420  0.00  0.00    -0.166 F 
ATOM      3  F   UNL     1      -2.118   3.859  27.999  0.00  0.00    -0.166 F 
ATOM     25  C   UNL     1      -2.466   3.840  26.678  0.00  0.00    +0.417 C 
ENDBRANCH  23  25
ENDBRANCH  15  17
ENDBRANCH   7  15
TORSDOF 9
ENDMDL
