MODEL 1
REMARK VINA RESULT:       4.7      0.000      0.000
REMARK  Name = 75537134
REMARK  3 active torsions:
REMARK  status: ('A' for Active; 'I' for Inactive)
REMARK    1  A    between atoms: N_4  and  C_8
REMARK    2  A    between atoms: N_6  and  C_19
REMARK    3  A    between atoms: C_19  and  C_20
REMARK                            x       y       z     vdW  Elec       q    Type
REMARK                         _______ _______ _______ _____ _____    ______ ____
ROOT
ATOM      1  O   UNL     1      -0.050  -2.671  22.318  0.00  0.00    -0.252 OA
ATOM      4  N   UNL     1       0.659  -0.877  23.676  0.00  0.00    -0.281 N 
ATOM      5  N   UNL     1      -1.396  -1.725  23.995  0.00  0.00    -0.278 N 
ATOM      6  N   UNL     1      -3.691  -0.680  25.240  0.00  0.00    -0.295 NA
ATOM      7  C   UNL     1      -1.237  -0.748  25.052  0.00  0.00    +0.109 C 
ATOM      9  C   UNL     1       0.057  -0.024  24.687  0.00  0.00    +0.133 C 
ATOM     10  C   UNL     1      -2.473   0.149  25.137  0.00  0.00    +0.109 C 
ATOM     13  C   UNL     1      -0.238  -1.864  23.218  0.00  0.00    +0.305 C 
ATOM     14  C   UNL     1      -2.622  -2.491  23.915  0.00  0.00    +0.125 C 
ATOM     15  C   UNL     1      -3.829  -1.563  24.065  0.00  0.00    +0.104 C 
ENDROOT
BRANCH   4   8
ATOM      8  C   UNL     1       1.969  -0.610  23.131  0.00  0.00    +0.078 C 
ATOM     11  C   UNL     1       3.037  -1.398  23.892  0.00  0.00    +0.022 C 
ATOM     12  C   UNL     1       2.266   0.892  23.148  0.00  0.00    +0.022 C 
ATOM     16  C   UNL     1       4.439  -1.093  23.370  0.00  0.00    +0.002 C 
ATOM     17  C   UNL     1       3.668   1.193  22.626  0.00  0.00    +0.002 C 
ATOM     18  C   UNL     1       4.732   0.405  23.384  0.00  0.00    +0.000 C 
ENDBRANCH   4   8
BRANCH   6  19
ATOM     19  C   UNL     1      -4.874   0.169  25.383  0.00  0.00    +0.119 C 
BRANCH  19  20
ATOM      2  O   UNL     1      -1.599   3.725  24.781  0.00  0.00    -0.485 OA
ATOM      3  O   UNL     1      -3.613   5.690  25.405  0.00  0.00    -0.485 OA
ATOM     20  C   UNL     1      -4.517   1.631  25.394  0.00  0.00    -0.030 A 
ATOM     21  C   UNL     1      -3.221   2.035  25.069  0.00  0.00    +0.054 A 
ATOM     22  C   UNL     1      -5.481   2.580  25.734  0.00  0.00    +0.009 A 
ATOM     23  C   UNL     1      -2.892   3.391  25.089  0.00  0.00    +0.162 A 
ATOM     24  C   UNL     1      -5.157   3.937  25.740  0.00  0.00    +0.050 A 
ATOM     25  C   UNL     1      -3.866   4.343  25.402  0.00  0.00    +0.162 A 
ATOM     26  C   UNL     1      -1.289   5.068  25.163  0.00  0.00    +0.270 C 
ATOM     27  C   UNL     1      -2.397   6.007  24.724  0.00  0.00    +0.270 C 
ENDBRANCH  19  20
ENDBRANCH   6  19
TORSDOF 3
ENDMDL
MODEL 2
REMARK VINA RESULT:       6.6      1.900      2.879
REMARK  Name = 75537134
REMARK  3 active torsions:
REMARK  status: ('A' for Active; 'I' for Inactive)
REMARK    1  A    between atoms: N_4  and  C_8
REMARK    2  A    between atoms: N_6  and  C_19
REMARK    3  A    between atoms: C_19  and  C_20
REMARK                            x       y       z     vdW  Elec       q    Type
REMARK                         _______ _______ _______ _____ _____    ______ ____
ROOT
ATOM      1  O   UNL     1       2.574   2.154  23.133  0.00  0.00    -0.252 OA
ATOM      4  N   UNL     1       2.570  -0.203  23.025  0.00  0.00    -0.281 N 
ATOM      5  N   UNL     1       0.603   0.876  23.137  0.00  0.00    -0.278 N 
ATOM      6  N   UNL     1      -1.972   0.025  23.884  0.00  0.00    -0.295 NA
ATOM      7  C   UNL     1       0.245  -0.516  22.958  0.00  0.00    +0.109 C 
ATOM      9  C   UNL     1       1.572  -1.255  23.115  0.00  0.00    +0.133 C 
ATOM     10  C   UNL     1      -0.838  -0.919  23.960  0.00  0.00    +0.109 C 
ATOM     13  C   UNL     1       1.989   1.080  23.098  0.00  0.00    +0.305 C 
ATOM     14  C   UNL     1      -0.444   1.872  23.226  0.00  0.00    +0.125 C 
ATOM     15  C   UNL     1      -1.534   1.401  24.192  0.00  0.00    +0.104 C 
ENDROOT
BRANCH   4   8
ATOM      8  C   UNL     1       3.984  -0.488  23.016  0.00  0.00    +0.078 C 
ATOM     11  C   UNL     1       4.295  -1.682  23.922  0.00  0.00    +0.022 C 
ATOM     12  C   UNL     1       4.788   0.748  23.428  0.00  0.00    +0.022 C 
ATOM     16  C   UNL     1       5.793  -1.973  23.973  0.00  0.00    +0.002 C 
ATOM     17  C   UNL     1       6.285   0.454  23.479  0.00  0.00    +0.002 C 
ATOM     18  C   UNL     1       6.593  -0.738  24.381  0.00  0.00    +0.000 C 
ENDBRANCH   4   8
BRANCH   6  19
ATOM     19  C   UNL     1      -3.039  -0.388  24.795  0.00  0.00    +0.119 C 
BRANCH  19  20
ATOM      2  O   UNL     1      -3.874   4.374  25.399  0.00  0.00    -0.485 OA
ATOM      3  O   UNL     1      -6.653   3.823  25.926  0.00  0.00    -0.485 OA
ATOM     20  C   UNL     1      -3.982   0.744  25.103  0.00  0.00    -0.030 A 
ATOM     21  C   UNL     1      -3.517   2.060  25.101  0.00  0.00    +0.054 A 
ATOM     22  C   UNL     1      -5.319   0.474  25.396  0.00  0.00    +0.009 A 
ATOM     23  C   UNL     1      -4.393   3.105  25.396  0.00  0.00    +0.162 A 
ATOM     24  C   UNL     1      -6.198   1.520  25.678  0.00  0.00    +0.050 A 
ATOM     25  C   UNL     1      -5.738   2.837  25.662  0.00  0.00    +0.162 A 
ATOM     26  C   UNL     1      -4.748   5.307  26.039  0.00  0.00    +0.270 C 
ATOM     27  C   UNL     1      -6.170   5.115  25.550  0.00  0.00    +0.270 C 
ENDBRANCH  19  20
ENDBRANCH   6  19
TORSDOF 3
ENDMDL
MODEL 3
REMARK VINA RESULT:       7.3      2.306      7.483
REMARK  Name = 75537134
REMARK  3 active torsions:
REMARK  status: ('A' for Active; 'I' for Inactive)
REMARK    1  A    between atoms: N_4  and  C_8
REMARK    2  A    between atoms: N_6  and  C_19
REMARK    3  A    between atoms: C_19  and  C_20
REMARK                            x       y       z     vdW  Elec       q    Type
REMARK                         _______ _______ _______ _____ _____    ______ ____
ROOT
ATOM      1  O   UNL     1      -5.570  -0.032  25.003  0.00  0.00    -0.252 OA
ATOM      4  N   UNL     1      -4.052   1.557  24.145  0.00  0.00    -0.281 N 
ATOM      5  N   UNL     1      -3.425  -0.597  24.231  0.00  0.00    -0.278 N 
ATOM      6  N   UNL     1      -0.895  -1.825  24.173  0.00  0.00    -0.295 NA
ATOM      7  C   UNL     1      -2.335   0.072  23.551  0.00  0.00    +0.109 C 
ATOM      9  C   UNL     1      -2.667   1.554  23.706  0.00  0.00    +0.133 C 
ATOM     10  C   UNL     1      -0.994  -0.351  24.151  0.00  0.00    +0.109 C 
ATOM     13  C   UNL     1      -4.488   0.269  24.517  0.00  0.00    +0.305 C 
ATOM     14  C   UNL     1      -3.357  -2.029  24.439  0.00  0.00    +0.125 C 
ATOM     15  C   UNL     1      -1.980  -2.414  24.983  0.00  0.00    +0.104 C 
ENDROOT
BRANCH   4   8
ATOM      8  C   UNL     1      -4.801   2.780  24.308  0.00  0.00    +0.078 C 
ATOM     11  C   UNL     1      -3.866   3.991  24.270  0.00  0.00    +0.022 C 
ATOM     12  C   UNL     1      -5.616   2.747  25.604  0.00  0.00    +0.022 C 
ATOM     16  C   UNL     1      -4.626   5.296  24.493  0.00  0.00    +0.002 C 
ATOM     17  C   UNL     1      -6.374   4.053  25.825  0.00  0.00    +0.002 C 
ATOM     18  C   UNL     1      -5.441   5.259  25.784  0.00  0.00    +0.000 C 
ENDBRANCH   4   8
BRANCH   6  19
ATOM     19  C   UNL     1       0.410  -2.239  24.689  0.00  0.00    +0.119 C 
BRANCH  19  20
ATOM      2  O   UNL     1       5.175  -1.372  24.170  0.00  0.00    -0.485 OA
ATOM      3  O   UNL     1       4.591   0.721  22.277  0.00  0.00    -0.485 OA
ATOM     20  C   UNL     1       1.534  -1.457  24.066  0.00  0.00    -0.030 A 
ATOM     21  C   UNL     1       2.858  -1.767  24.380  0.00  0.00    +0.054 A 
ATOM     22  C   UNL     1       1.251  -0.418  23.179  0.00  0.00    +0.009 A 
ATOM     23  C   UNL     1       3.897  -1.034  23.807  0.00  0.00    +0.162 A 
ATOM     24  C   UNL     1       2.290   0.307  22.595  0.00  0.00    +0.050 A 
ATOM     25  C   UNL     1       3.614  -0.012  22.897  0.00  0.00    +0.162 A 
ATOM     26  C   UNL     1       6.118  -0.359  23.808  0.00  0.00    +0.270 C 
ATOM     27  C   UNL     1       5.875   0.100  22.384  0.00  0.00    +0.270 C 
ENDBRANCH  19  20
ENDBRANCH   6  19
TORSDOF 3
ENDMDL
MODEL 4
REMARK VINA RESULT:       8.0      2.391      8.340
REMARK  Name = 75537134
REMARK  3 active torsions:
REMARK  status: ('A' for Active; 'I' for Inactive)
REMARK    1  A    between atoms: N_4  and  C_8
REMARK    2  A    between atoms: N_6  and  C_19
REMARK    3  A    between atoms: C_19  and  C_20
REMARK                            x       y       z     vdW  Elec       q    Type
REMARK                         _______ _______ _______ _____ _____    ______ ____
ROOT
ATOM      1  O   UNL     1      -2.203   3.555  26.142  0.00  0.00    -0.252 OA
ATOM      4  N   UNL     1      -3.609   2.283  24.738  0.00  0.00    -0.281 N 
ATOM      5  N   UNL     1      -1.481   1.622  25.020  0.00  0.00    -0.278 N 
ATOM      6  N   UNL     1       0.182  -0.068  23.506  0.00  0.00    -0.295 NA
ATOM      7  C   UNL     1      -2.084   0.575  24.222  0.00  0.00    +0.109 C 
ATOM      9  C   UNL     1      -3.450   1.145  23.848  0.00  0.00    +0.133 C 
ATOM     10  C   UNL     1      -1.186   0.227  23.034  0.00  0.00    +0.109 C 
ATOM     13  C   UNL     1      -2.405   2.605  25.398  0.00  0.00    +0.305 C 
ATOM     14  C   UNL     1      -0.092   1.503  25.413  0.00  0.00    +0.125 C 
ATOM     15  C   UNL     1       0.759   1.096  24.209  0.00  0.00    +0.104 C 
ENDROOT
BRANCH   4   8
ATOM      8  C   UNL     1      -4.830   3.050  24.789  0.00  0.00    +0.078 C 
ATOM     11  C   UNL     1      -4.524   4.549  24.725  0.00  0.00    +0.022 C 
ATOM     12  C   UNL     1      -5.637   2.700  26.042  0.00  0.00    +0.022 C 
ATOM     16  C   UNL     1      -5.796   5.387  24.830  0.00  0.00    +0.002 C 
ATOM     17  C   UNL     1      -6.907   3.540  26.145  0.00  0.00    +0.002 C 
ATOM     18  C   UNL     1      -6.601   5.033  26.078  0.00  0.00    +0.000 C 
ENDBRANCH   4   8
BRANCH   6  19
ATOM     19  C   UNL     1       1.034  -0.461  22.384  0.00  0.00    +0.119 C 
BRANCH  19  20
ATOM      2  O   UNL     1       5.316  -1.877  24.225  0.00  0.00    -0.485 OA
ATOM      3  O   UNL     1       6.509   0.601  23.363  0.00  0.00    -0.485 OA
ATOM     20  C   UNL     1       2.489  -0.193  22.663  0.00  0.00    -0.030 A 
ATOM     21  C   UNL     1       3.265  -1.157  23.307  0.00  0.00    +0.054 A 
ATOM     22  C   UNL     1       3.057   1.022  22.280  0.00  0.00    +0.009 A 
ATOM     23  C   UNL     1       4.610  -0.901  23.571  0.00  0.00    +0.162 A 
ATOM     24  C   UNL     1       4.406   1.274  22.532  0.00  0.00    +0.050 A 
ATOM     25  C   UNL     1       5.187   0.305  23.163  0.00  0.00    +0.162 A 
ATOM     26  C   UNL     1       6.555  -1.384  24.742  0.00  0.00    +0.270 C 
ATOM     27  C   UNL     1       7.274  -0.562  23.690  0.00  0.00    +0.270 C 
ENDBRANCH  19  20
ENDBRANCH   6  19
TORSDOF 3
ENDMDL
