MODEL 1
REMARK VINA RESULT:      -4.7      0.000      0.000
REMARK  Name = 75536605
REMARK  7 active torsions:
REMARK  status: ('A' for Active; 'I' for Inactive)
REMARK    1  A    between atoms: O_3  and  C_9
REMARK    2  A    between atoms: N_5  and  C_8
REMARK    3  A    between atoms: N_5  and  C_13
REMARK    4  A    between atoms: N_6  and  C_12
REMARK    5  A    between atoms: C_10  and  C_12
REMARK    6  A    between atoms: C_13  and  C_14
REMARK    7  A    between atoms: C_15  and  C_18
REMARK                            x       y       z     vdW  Elec       q    Type
REMARK                         _______ _______ _______ _____ _____    ______ ____
ROOT
ATOM      2  O   UNL     1      -3.068   4.209  23.709  0.00  0.00    -0.371 OA
ATOM      8  C   UNL     1      -4.516   3.187  25.291  0.00  0.00    +0.111 C 
ATOM      9  C   UNL     1      -3.178   3.464  25.952  0.00  0.00    +0.164 C 
ATOM     10  C   UNL     1      -2.614   4.539  25.033  0.00  0.00    +0.165 C 
ATOM     11  C   UNL     1      -4.146   3.263  23.820  0.00  0.00    +0.181 C 
ENDROOT
BRANCH   9   3
ATOM      3  O   UNL     1      -3.311   3.924  27.283  0.00  0.00    -0.388 OA
ATOM     25  H   UNL     1      -3.084   4.870  27.304  0.00  0.00    +0.210 HD
ENDBRANCH   9   3
BRANCH   8   5
ATOM      5  N   UNL     1      -5.098   1.908  25.665  0.00  0.00    -0.305 NA
ATOM     24  H   UNL     1      -6.042   2.062  26.016  0.00  0.00    +0.123 HD
BRANCH   5  13
ATOM     13  C   UNL     1      -5.161   1.007  24.520  0.00  0.00    +0.118 C 
BRANCH  13  14
ATOM      7  N   UNL     1      -2.527  -1.312  25.940  0.00  0.00    -0.263 NA
ATOM     14  C   UNL     1      -4.303  -0.214  24.721  0.00  0.00    -0.015 A 
ATOM     16  C   UNL     1      -4.463  -1.342  23.923  0.00  0.00    +0.008 A 
ATOM     17  C   UNL     1      -3.330  -0.249  25.707  0.00  0.00    +0.115 A 
ATOM     19  C   UNL     1      -3.655  -2.454  24.133  0.00  0.00    +0.020 A 
ATOM     21  C   UNL     1      -2.711  -2.390  25.144  0.00  0.00    +0.111 A 
ENDBRANCH  13  14
ENDBRANCH   5  13
ENDBRANCH   8   5
BRANCH  10  12
ATOM     12  C   UNL     1      -1.098   4.610  25.052  0.00  0.00    +0.138 C 
BRANCH  12   6
ATOM      4  O   UNL     1       0.442   2.444  26.140  0.00  0.00    -0.270 OA
ATOM      6  N   UNL     1      -0.515   3.520  24.322  0.00  0.00    -0.308 N 
ATOM     15  C   UNL     1       0.219   2.509  24.935  0.00  0.00    +0.251 C 
ATOM     26  H   UNL     1      -0.648   3.518  23.316  0.00  0.00    +0.149 HD
BRANCH  15  18
ATOM      1  S   UNL     1      -0.200   0.128  23.604  0.00  0.00    -0.092 S 
ATOM     18  C   UNL     1       0.777   1.467  24.036  0.00  0.00    +0.074 A 
ATOM     20  C   UNL     1       2.026   1.401  23.460  0.00  0.00    +0.021 A 
ATOM     22  C   UNL     1       2.184   0.237  22.655  0.00  0.00    +0.008 A 
ATOM     23  C   UNL     1       1.048  -0.543  22.645  0.00  0.00    +0.046 A 
ENDBRANCH  15  18
ENDBRANCH  12   6
ENDBRANCH  10  12
TORSDOF 7
ENDMDL
MODEL 2
REMARK VINA RESULT:      -4.7      2.461      3.124
REMARK  Name = 75536605
REMARK  7 active torsions:
REMARK  status: ('A' for Active; 'I' for Inactive)
REMARK    1  A    between atoms: O_3  and  C_9
REMARK    2  A    between atoms: N_5  and  C_8
REMARK    3  A    between atoms: N_5  and  C_13
REMARK    4  A    between atoms: N_6  and  C_12
REMARK    5  A    between atoms: C_10  and  C_12
REMARK    6  A    between atoms: C_13  and  C_14
REMARK    7  A    between atoms: C_15  and  C_18
REMARK                            x       y       z     vdW  Elec       q    Type
REMARK                         _______ _______ _______ _____ _____    ______ ____
ROOT
ATOM      2  O   UNL     1      -1.850   1.932  22.558  0.00  0.00    -0.371 OA
ATOM      8  C   UNL     1      -2.655   2.375  24.748  0.00  0.00    +0.111 C 
ATOM      9  C   UNL     1      -1.614   1.272  24.818  0.00  0.00    +0.164 C 
ATOM     10  C   UNL     1      -0.866   1.494  23.510  0.00  0.00    +0.165 C 
ATOM     11  C   UNL     1      -3.025   2.347  23.275  0.00  0.00    +0.181 C 
ENDROOT
BRANCH   9   3
ATOM      3  O   UNL     1      -0.762   1.395  25.940  0.00  0.00    -0.388 OA
ATOM     25  H   UNL     1      -0.016   0.783  25.826  0.00  0.00    +0.210 HD
ENDBRANCH   9   3
BRANCH   8   5
ATOM      5  N   UNL     1      -3.795   2.157  25.624  0.00  0.00    -0.305 NA
ATOM     24  H   UNL     1      -4.233   3.055  25.830  0.00  0.00    +0.123 HD
BRANCH   5  13
ATOM     13  C   UNL     1      -4.780   1.285  24.994  0.00  0.00    +0.118 C 
BRANCH  13  14
ATOM      7  N   UNL     1      -3.270  -2.016  26.072  0.00  0.00    -0.263 NA
ATOM     14  C   UNL     1      -4.312  -0.145  24.947  0.00  0.00    -0.015 A 
ATOM     16  C   UNL     1      -4.466  -0.913  23.798  0.00  0.00    +0.008 A 
ATOM     17  C   UNL     1      -3.713  -0.738  26.048  0.00  0.00    +0.115 A 
ATOM     19  C   UNL     1      -4.023  -2.231  23.785  0.00  0.00    +0.020 A 
ATOM     21  C   UNL     1      -3.437  -2.730  24.937  0.00  0.00    +0.111 A 
ENDBRANCH  13  14
ENDBRANCH   5  13
ENDBRANCH   8   5
BRANCH  10  12
ATOM     12  C   UNL     1      -0.175   0.243  22.995  0.00  0.00    +0.138 C 
BRANCH  12   6
ATOM      4  O   UNL     1       2.073  -0.259  21.280  0.00  0.00    -0.270 OA
ATOM      6  N   UNL     1       1.208   0.216  23.380  0.00  0.00    -0.308 N 
ATOM     15  C   UNL     1       2.236  -0.037  22.477  0.00  0.00    +0.251 C 
ATOM     26  H   UNL     1       1.416   0.377  24.360  0.00  0.00    +0.149 HD
BRANCH  15  18
ATOM      1  S   UNL     1       4.173  -1.473  23.819  0.00  0.00    -0.092 S 
ATOM     18  C   UNL     1       3.611  -0.056  23.038  0.00  0.00    +0.074 A 
ATOM     20  C   UNL     1       4.562   0.940  23.030  0.00  0.00    +0.021 A 
ATOM     22  C   UNL     1       5.766   0.536  23.673  0.00  0.00    +0.008 A 
ATOM     23  C   UNL     1       5.691  -0.755  24.149  0.00  0.00    +0.046 A 
ENDBRANCH  15  18
ENDBRANCH  12   6
ENDBRANCH  10  12
TORSDOF 7
ENDMDL
MODEL 3
REMARK VINA RESULT:      -4.6      2.964      6.891
REMARK  Name = 75536605
REMARK  7 active torsions:
REMARK  status: ('A' for Active; 'I' for Inactive)
REMARK    1  A    between atoms: O_3  and  C_9
REMARK    2  A    between atoms: N_5  and  C_8
REMARK    3  A    between atoms: N_5  and  C_13
REMARK    4  A    between atoms: N_6  and  C_12
REMARK    5  A    between atoms: C_10  and  C_12
REMARK    6  A    between atoms: C_13  and  C_14
REMARK    7  A    between atoms: C_15  and  C_18
REMARK                            x       y       z     vdW  Elec       q    Type
REMARK                         _______ _______ _______ _____ _____    ______ ____
ROOT
ATOM      2  O   UNL     1      -1.717  -2.649  23.915  0.00  0.00    -0.371 OA
ATOM      8  C   UNL     1      -0.049  -1.019  24.370  0.00  0.00    +0.111 C 
ATOM      9  C   UNL     1      -1.245  -0.768  25.271  0.00  0.00    +0.164 C 
ATOM     10  C   UNL     1      -1.926  -2.130  25.239  0.00  0.00    +0.165 C 
ATOM     11  C   UNL     1      -0.665  -1.893  23.290  0.00  0.00    +0.181 C 
ENDROOT
BRANCH   9   3
ATOM      3  O   UNL     1      -0.872  -0.396  26.584  0.00  0.00    -0.388 OA
ATOM     25  H   UNL     1      -0.010  -0.800  26.783  0.00  0.00    +0.210 HD
ENDBRANCH   9   3
BRANCH   8   5
ATOM      5  N   UNL     1       0.549   0.197  23.843  0.00  0.00    -0.305 NA
ATOM     24  H   UNL     1       1.128   0.623  24.567  0.00  0.00    +0.123 HD
BRANCH   5  13
ATOM     13  C   UNL     1       1.381  -0.090  22.680  0.00  0.00    +0.118 C 
BRANCH  13  14
ATOM      7  N   UNL     1       4.704  -1.416  23.918  0.00  0.00    -0.263 NA
ATOM     14  C   UNL     1       2.842  -0.148  23.038  0.00  0.00    -0.015 A 
ATOM     16  C   UNL     1       3.672   0.950  22.842  0.00  0.00    +0.008 A 
ATOM     17  C   UNL     1       3.401  -1.297  23.575  0.00  0.00    +0.115 A 
ATOM     19  C   UNL     1       5.018   0.865  23.182  0.00  0.00    +0.020 A 
ATOM     21  C   UNL     1       5.480  -0.328  23.713  0.00  0.00    +0.111 A 
ENDBRANCH  13  14
ENDBRANCH   5  13
ENDBRANCH   8   5
BRANCH  10  12
ATOM     12  C   UNL     1      -3.414  -2.063  25.535  0.00  0.00    +0.138 C 
BRANCH  12   6
ATOM      4  O   UNL     1      -4.035  -0.204  23.437  0.00  0.00    -0.270 OA
ATOM      6  N   UNL     1      -3.854  -0.706  25.694  0.00  0.00    -0.308 N 
ATOM     15  C   UNL     1      -4.133   0.127  24.615  0.00  0.00    +0.251 C 
ATOM     26  H   UNL     1      -3.944  -0.360  26.643  0.00  0.00    +0.149 HD
BRANCH  15  18
ATOM      1  S   UNL     1      -3.472   2.806  24.643  0.00  0.00    -0.092 S 
ATOM     18  C   UNL     1      -4.553   1.513  24.947  0.00  0.00    +0.074 A 
ATOM     20  C   UNL     1      -5.740   1.949  25.492  0.00  0.00    +0.021 A 
ATOM     22  C   UNL     1      -5.763   3.362  25.662  0.00  0.00    +0.008 A 
ATOM     23  C   UNL     1      -4.592   3.954  25.241  0.00  0.00    +0.046 A 
ENDBRANCH  15  18
ENDBRANCH  12   6
ENDBRANCH  10  12
TORSDOF 7
ENDMDL
MODEL 4
REMARK VINA RESULT:      -4.6      1.851      4.646
REMARK  Name = 75536605
REMARK  7 active torsions:
REMARK  status: ('A' for Active; 'I' for Inactive)
REMARK    1  A    between atoms: O_3  and  C_9
REMARK    2  A    between atoms: N_5  and  C_8
REMARK    3  A    between atoms: N_5  and  C_13
REMARK    4  A    between atoms: N_6  and  C_12
REMARK    5  A    between atoms: C_10  and  C_12
REMARK    6  A    between atoms: C_13  and  C_14
REMARK    7  A    between atoms: C_15  and  C_18
REMARK                            x       y       z     vdW  Elec       q    Type
REMARK                         _______ _______ _______ _____ _____    ______ ____
ROOT
ATOM      2  O   UNL     1      -4.235   3.584  26.773  0.00  0.00    -0.371 OA
ATOM      8  C   UNL     1      -2.462   4.337  25.382  0.00  0.00    +0.111 C 
ATOM      9  C   UNL     1      -3.525   3.681  24.518  0.00  0.00    +0.164 C 
ATOM     10  C   UNL     1      -4.737   3.758  25.437  0.00  0.00    +0.165 C 
ATOM     11  C   UNL     1      -2.811   3.789  26.755  0.00  0.00    +0.181 C 
ENDROOT
BRANCH   9   3
ATOM      3  O   UNL     1      -3.741   4.370  23.302  0.00  0.00    -0.388 OA
ATOM     25  H   UNL     1      -3.140   4.002  22.631  0.00  0.00    +0.210 HD
ENDBRANCH   9   3
BRANCH   8   5
ATOM      5  N   UNL     1      -1.103   4.020  24.974  0.00  0.00    -0.305 NA
ATOM     24  H   UNL     1      -0.526   4.857  25.059  0.00  0.00    +0.123 HD
BRANCH   5  13
ATOM     13  C   UNL     1      -0.536   2.969  25.811  0.00  0.00    +0.118 C 
BRANCH  13  14
ATOM      7  N   UNL     1       1.093   0.779  23.187  0.00  0.00    -0.263 NA
ATOM     14  C   UNL     1      -0.169   1.750  25.007  0.00  0.00    -0.015 A 
ATOM     16  C   UNL     1      -0.715   0.506  25.302  0.00  0.00    +0.008 A 
ATOM     17  C   UNL     1       0.722   1.833  23.949  0.00  0.00    +0.115 A 
ATOM     19  C   UNL     1      -0.357  -0.602  24.541  0.00  0.00    +0.020 A 
ATOM     21  C   UNL     1       0.542  -0.414  23.504  0.00  0.00    +0.111 A 
ENDBRANCH  13  14
ENDBRANCH   5  13
ENDBRANCH   8   5
BRANCH  10  12
ATOM     12  C   UNL     1      -5.783   2.698  25.140  0.00  0.00    +0.138 C 
BRANCH  12   6
ATOM      4  O   UNL     1      -4.010   1.226  23.426  0.00  0.00    -0.270 OA
ATOM      6  N   UNL     1      -5.267   1.378  25.370  0.00  0.00    -0.308 N 
ATOM     15  C   UNL     1      -4.409   0.739  24.480  0.00  0.00    +0.251 C 
ATOM     26  H   UNL     1      -5.567   0.908  26.217  0.00  0.00    +0.149 HD
BRANCH  15  18
ATOM      1  S   UNL     1      -4.106  -1.887  23.688  0.00  0.00    -0.092 S 
ATOM     18  C   UNL     1      -3.985  -0.636  24.851  0.00  0.00    +0.074 A 
ATOM     20  C   UNL     1      -3.482  -1.092  26.049  0.00  0.00    +0.021 A 
ATOM     22  C   UNL     1      -3.192  -2.485  26.012  0.00  0.00    +0.008 A 
ATOM     23  C   UNL     1      -3.485  -3.043  24.787  0.00  0.00    +0.046 A 
ENDBRANCH  15  18
ENDBRANCH  12   6
ENDBRANCH  10  12
TORSDOF 7
ENDMDL
MODEL 5
REMARK VINA RESULT:      -4.4      2.649      6.121
REMARK  Name = 75536605
REMARK  7 active torsions:
REMARK  status: ('A' for Active; 'I' for Inactive)
REMARK    1  A    between atoms: O_3  and  C_9
REMARK    2  A    between atoms: N_5  and  C_8
REMARK    3  A    between atoms: N_5  and  C_13
REMARK    4  A    between atoms: N_6  and  C_12
REMARK    5  A    between atoms: C_10  and  C_12
REMARK    6  A    between atoms: C_13  and  C_14
REMARK    7  A    between atoms: C_15  and  C_18
REMARK                            x       y       z     vdW  Elec       q    Type
REMARK                         _______ _______ _______ _____ _____    ______ ____
ROOT
ATOM      2  O   UNL     1      -2.439  -3.024  23.669  0.00  0.00    -0.371 OA
ATOM      8  C   UNL     1      -1.042  -1.997  25.293  0.00  0.00    +0.111 C 
ATOM      9  C   UNL     1      -2.414  -1.349  25.340  0.00  0.00    +0.164 C 
ATOM     10  C   UNL     1      -3.267  -2.424  24.679  0.00  0.00    +0.165 C 
ATOM     11  C   UNL     1      -1.071  -2.663  23.928  0.00  0.00    +0.181 C 
ENDROOT
BRANCH   9   3
ATOM      3  O   UNL     1      -2.843  -1.074  26.660  0.00  0.00    -0.388 OA
ATOM     25  H   UNL     1      -2.669  -1.858  27.208  0.00  0.00    +0.210 HD
ENDBRANCH   9   3
BRANCH   8   5
ATOM      5  N   UNL     1       0.054  -1.052  25.440  0.00  0.00    -0.305 NA
ATOM     24  H   UNL     1       0.930  -1.568  25.520  0.00  0.00    +0.123 HD
BRANCH   5  13
ATOM     13  C   UNL     1       0.135  -0.161  24.288  0.00  0.00    +0.118 C 
BRANCH  13  14
ATOM      7  N   UNL     1      -0.369   3.580  23.988  0.00  0.00    -0.263 NA
ATOM     14  C   UNL     1      -0.178   1.264  24.660  0.00  0.00    -0.015 A 
ATOM     16  C   UNL     1      -0.552   1.601  25.956  0.00  0.00    +0.008 A 
ATOM     17  C   UNL     1      -0.102   2.281  23.721  0.00  0.00    +0.115 A 
ATOM     19  C   UNL     1      -0.835   2.927  26.269  0.00  0.00    +0.020 A 
ATOM     21  C   UNL     1      -0.729   3.869  25.259  0.00  0.00    +0.111 A 
ENDBRANCH  13  14
ENDBRANCH   5  13
ENDBRANCH   8   5
BRANCH  10  12
ATOM     12  C   UNL     1      -4.535  -1.877  24.045  0.00  0.00    +0.138 C 
BRANCH  12   6
ATOM      4  O   UNL     1      -3.247   0.448  22.960  0.00  0.00    -0.270 OA
ATOM      6  N   UNL     1      -4.763  -0.513  24.429  0.00  0.00    -0.308 N 
ATOM     15  C   UNL     1      -4.090   0.556  23.846  0.00  0.00    +0.251 C 
ATOM     26  H   UNL     1      -5.438  -0.350  25.168  0.00  0.00    +0.149 HD
BRANCH  15  18
ATOM      1  S   UNL     1      -5.674   2.064  25.529  0.00  0.00    -0.092 S 
ATOM     18  C   UNL     1      -4.421   1.905  24.372  0.00  0.00    +0.074 A 
ATOM     20  C   UNL     1      -3.849   3.119  24.062  0.00  0.00    +0.021 A 
ATOM     22  C   UNL     1      -4.446   4.192  24.782  0.00  0.00    +0.008 A 
ATOM     23  C   UNL     1      -5.453   3.759  25.616  0.00  0.00    +0.046 A 
ENDBRANCH  15  18
ENDBRANCH  12   6
ENDBRANCH  10  12
TORSDOF 7
ENDMDL
MODEL 6
REMARK VINA RESULT:      -4.4      1.927      4.379
REMARK  Name = 75536605
REMARK  7 active torsions:
REMARK  status: ('A' for Active; 'I' for Inactive)
REMARK    1  A    between atoms: O_3  and  C_9
REMARK    2  A    between atoms: N_5  and  C_8
REMARK    3  A    between atoms: N_5  and  C_13
REMARK    4  A    between atoms: N_6  and  C_12
REMARK    5  A    between atoms: C_10  and  C_12
REMARK    6  A    between atoms: C_13  and  C_14
REMARK    7  A    between atoms: C_15  and  C_18
REMARK                            x       y       z     vdW  Elec       q    Type
REMARK                         _______ _______ _______ _____ _____    ______ ____
ROOT
ATOM      2  O   UNL     1       0.257   3.424  23.525  0.00  0.00    -0.371 OA
ATOM      8  C   UNL     1      -0.797   3.935  25.592  0.00  0.00    +0.111 C 
ATOM      9  C   UNL     1      -0.484   2.450  25.549  0.00  0.00    +0.164 C 
ATOM     10  C   UNL     1       0.603   2.410  24.483  0.00  0.00    +0.165 C 
ATOM     11  C   UNL     1      -0.715   4.301  24.119  0.00  0.00    +0.181 C 
ENDROOT
BRANCH   9   3
ATOM      3  O   UNL     1      -0.024   1.953  26.791  0.00  0.00    -0.388 OA
ATOM     25  H   UNL     1       0.546   2.628  27.198  0.00  0.00    +0.210 HD
ENDBRANCH   9   3
BRANCH   8   5
ATOM      5  N   UNL     1      -2.090   4.242  26.182  0.00  0.00    -0.305 NA
ATOM     24  H   UNL     1      -1.996   5.063  26.780  0.00  0.00    +0.123 HD
BRANCH   5  13
ATOM     13  C   UNL     1      -3.083   4.520  25.151  0.00  0.00    +0.118 C 
BRANCH  13  14
ATOM      7  N   UNL     1      -6.107   2.594  26.368  0.00  0.00    -0.263 NA
ATOM     14  C   UNL     1      -4.217   3.530  25.185  0.00  0.00    -0.015 A 
ATOM     16  C   UNL     1      -4.439   2.658  24.125  0.00  0.00    +0.008 A 
ATOM     17  C   UNL     1      -5.071   3.459  26.274  0.00  0.00    +0.115 A 
ATOM     19  C   UNL     1      -5.495   1.754  24.186  0.00  0.00    +0.020 A 
ATOM     21  C   UNL     1      -6.291   1.762  25.319  0.00  0.00    +0.111 A 
ENDBRANCH  13  14
ENDBRANCH   5  13
ENDBRANCH   8   5
BRANCH  10  12
ATOM     12  C   UNL     1       0.713   1.064  23.789  0.00  0.00    +0.138 C 
BRANCH  12   6
ATOM      4  O   UNL     1       0.063  -1.382  25.146  0.00  0.00    -0.270 OA
ATOM      6  N   UNL     1      -0.550   0.382  23.771  0.00  0.00    -0.308 N 
ATOM     15  C   UNL     1      -0.777  -0.804  24.461  0.00  0.00    +0.251 C 
ATOM     26  H   UNL     1      -1.289   0.797  23.211  0.00  0.00    +0.149 HD
BRANCH  15  18
ATOM      1  S   UNL     1      -2.325  -3.088  24.518  0.00  0.00    -0.092 S 
ATOM     18  C   UNL     1      -2.131  -1.398  24.319  0.00  0.00    +0.074 A 
ATOM     20  C   UNL     1      -3.324  -0.771  24.036  0.00  0.00    +0.021 A 
ATOM     22  C   UNL     1      -4.411  -1.689  23.982  0.00  0.00    +0.008 A 
ATOM     23  C   UNL     1      -4.008  -2.984  24.225  0.00  0.00    +0.046 A 
ENDBRANCH  15  18
ENDBRANCH  12   6
ENDBRANCH  10  12
TORSDOF 7
ENDMDL
MODEL 7
REMARK VINA RESULT:      -3.9      2.427      6.262
REMARK  Name = 75536605
REMARK  7 active torsions:
REMARK  status: ('A' for Active; 'I' for Inactive)
REMARK    1  A    between atoms: O_3  and  C_9
REMARK    2  A    between atoms: N_5  and  C_8
REMARK    3  A    between atoms: N_5  and  C_13
REMARK    4  A    between atoms: N_6  and  C_12
REMARK    5  A    between atoms: C_10  and  C_12
REMARK    6  A    between atoms: C_13  and  C_14
REMARK    7  A    between atoms: C_15  and  C_18
REMARK                            x       y       z     vdW  Elec       q    Type
REMARK                         _______ _______ _______ _____ _____    ______ ____
ROOT
ATOM      2  O   UNL     1      -0.879  -1.714  23.321  0.00  0.00    -0.371 OA
ATOM      8  C   UNL     1       0.309  -0.228  24.744  0.00  0.00    +0.111 C 
ATOM      9  C   UNL     1      -1.028  -0.562  25.382  0.00  0.00    +0.164 C 
ATOM     10  C   UNL     1      -1.381  -1.855  24.660  0.00  0.00    +0.165 C 
ATOM     11  C   UNL     1       0.059  -0.624  23.299  0.00  0.00    +0.181 C 
ENDROOT
BRANCH   9   3
ATOM      3  O   UNL     1      -0.934  -0.747  26.781  0.00  0.00    -0.388 OA
ATOM     25  H   UNL     1      -1.659  -0.256  27.204  0.00  0.00    +0.210 HD
ENDBRANCH   9   3
BRANCH   8   5
ATOM      5  N   UNL     1       0.694   1.166  24.892  0.00  0.00    -0.305 NA
ATOM     24  H   UNL     1       1.697   1.254  24.728  0.00  0.00    +0.123 HD
BRANCH   5  13
ATOM     13  C   UNL     1      -0.016   2.009  23.937  0.00  0.00    +0.118 C 
BRANCH  13  14
ATOM      7  N   UNL     1      -2.323   3.800  26.347  0.00  0.00    -0.263 NA
ATOM     14  C   UNL     1      -0.770   3.118  24.623  0.00  0.00    -0.015 A 
ATOM     16  C   UNL     1      -0.640   4.438  24.207  0.00  0.00    +0.008 A 
ATOM     17  C   UNL     1      -1.617   2.853  25.688  0.00  0.00    +0.115 A 
ATOM     19  C   UNL     1      -1.350   5.439  24.860  0.00  0.00    +0.020 A 
ATOM     21  C   UNL     1      -2.171   5.072  25.914  0.00  0.00    +0.111 A 
ENDBRANCH  13  14
ENDBRANCH   5  13
ENDBRANCH   8   5
BRANCH  10  12
ATOM     12  C   UNL     1      -2.874  -2.131  24.622  0.00  0.00    +0.138 C 
BRANCH  12   6
ATOM      4  O   UNL     1      -3.514   0.171  23.030  0.00  0.00    -0.270 OA
ATOM      6  N   UNL     1      -3.628  -0.983  25.039  0.00  0.00    -0.308 N 
ATOM     15  C   UNL     1      -3.891   0.092  24.196  0.00  0.00    +0.251 C 
ATOM     26  H   UNL     1      -3.959  -0.974  25.998  0.00  0.00    +0.149 HD
BRANCH  15  18
ATOM      1  S   UNL     1      -4.533   2.774  24.089  0.00  0.00    -0.092 S 
ATOM     18  C   UNL     1      -4.662   1.215  24.787  0.00  0.00    +0.074 A 
ATOM     20  C   UNL     1      -5.514   1.204  25.869  0.00  0.00    +0.021 A 
ATOM     22  C   UNL     1      -6.068   2.490  26.128  0.00  0.00    +0.008 A 
ATOM     23  C   UNL     1      -5.618   3.437  25.235  0.00  0.00    +0.046 A 
ENDBRANCH  15  18
ENDBRANCH  12   6
ENDBRANCH  10  12
TORSDOF 7
ENDMDL
MODEL 8
REMARK VINA RESULT:      -3.2     16.497     19.682
REMARK  Name = 75536605
REMARK  7 active torsions:
REMARK  status: ('A' for Active; 'I' for Inactive)
REMARK    1  A    between atoms: O_3  and  C_9
REMARK    2  A    between atoms: N_5  and  C_8
REMARK    3  A    between atoms: N_5  and  C_13
REMARK    4  A    between atoms: N_6  and  C_12
REMARK    5  A    between atoms: C_10  and  C_12
REMARK    6  A    between atoms: C_13  and  C_14
REMARK    7  A    between atoms: C_15  and  C_18
REMARK                            x       y       z     vdW  Elec       q    Type
REMARK                         _______ _______ _______ _____ _____    ______ ____
ROOT
ATOM      2  O   UNL     1      12.530  -7.228  30.629  0.00  0.00    -0.371 OA
ATOM      8  C   UNL     1      14.885  -6.917  30.588  0.00  0.00    +0.111 C 
ATOM      9  C   UNL     1      14.519  -7.769  31.790  0.00  0.00    +0.164 C 
ATOM     10  C   UNL     1      13.150  -8.290  31.374  0.00  0.00    +0.165 C 
ATOM     11  C   UNL     1      13.546  -6.283  30.251  0.00  0.00    +0.181 C 
ENDROOT
BRANCH   9   3
ATOM      3  O   UNL     1      15.438  -8.821  32.014  0.00  0.00    -0.388 OA
ATOM     25  H   UNL     1      16.125  -8.503  32.623  0.00  0.00    +0.210 HD
ENDBRANCH   9   3
BRANCH   8   5
ATOM      5  N   UNL     1      15.923  -5.937  30.863  0.00  0.00    -0.305 NA
ATOM     24  H   UNL     1      16.065  -5.361  30.033  0.00  0.00    +0.123 HD
BRANCH   5  13
ATOM     13  C   UNL     1      15.549  -5.075  31.977  0.00  0.00    +0.118 C 
BRANCH  13  14
ATOM      7  N   UNL     1      16.683  -1.541  32.726  0.00  0.00    -0.263 NA
ATOM     14  C   UNL     1      16.010  -3.657  31.767  0.00  0.00    -0.015 A 
ATOM     16  C   UNL     1      16.191  -3.144  30.488  0.00  0.00    +0.008 A 
ATOM     17  C   UNL     1      16.268  -2.823  32.844  0.00  0.00    +0.115 A 
ATOM     19  C   UNL     1      16.618  -1.830  30.327  0.00  0.00    +0.020 A 
ATOM     21  C   UNL     1      16.848  -1.077  31.467  0.00  0.00    +0.111 A 
ENDBRANCH  13  14
ENDBRANCH   5  13
ENDBRANCH   8   5
BRANCH  10  12
ATOM     12  C   UNL     1      12.270  -8.672  32.552  0.00  0.00    +0.138 C 
BRANCH  12   6
ATOM      4  O   UNL     1       9.725  -7.381  32.870  0.00  0.00    -0.270 OA
ATOM      6  N   UNL     1      10.997  -9.167  32.112  0.00  0.00    -0.308 N 
ATOM     15  C   UNL     1       9.808  -8.470  32.310  0.00  0.00    +0.251 C 
ATOM     26  H   UNL     1      10.988 -10.072  31.653  0.00  0.00    +0.149 HD
BRANCH  15  18
ATOM      1  S   UNL     1       8.288 -10.772  32.219  0.00  0.00    -0.092 S 
ATOM     18  C   UNL     1       8.572  -9.131  31.819  0.00  0.00    +0.074 A 
ATOM     20  C   UNL     1       7.558  -8.605  31.049  0.00  0.00    +0.021 A 
ATOM     22  C   UNL     1       6.536  -9.560  30.785  0.00  0.00    +0.008 A 
ATOM     23  C   UNL     1       6.807 -10.781  31.362  0.00  0.00    +0.046 A 
ENDBRANCH  15  18
ENDBRANCH  12   6
ENDBRANCH  10  12
TORSDOF 7
ENDMDL
MODEL 9
REMARK VINA RESULT:      -3.2      2.247      4.720
REMARK  Name = 75536605
REMARK  7 active torsions:
REMARK  status: ('A' for Active; 'I' for Inactive)
REMARK    1  A    between atoms: O_3  and  C_9
REMARK    2  A    between atoms: N_5  and  C_8
REMARK    3  A    between atoms: N_5  and  C_13
REMARK    4  A    between atoms: N_6  and  C_12
REMARK    5  A    between atoms: C_10  and  C_12
REMARK    6  A    between atoms: C_13  and  C_14
REMARK    7  A    between atoms: C_15  and  C_18
REMARK                            x       y       z     vdW  Elec       q    Type
REMARK                         _______ _______ _______ _____ _____    ______ ____
ROOT
ATOM      2  O   UNL     1      -0.988  -0.409  26.200  0.00  0.00    -0.371 OA
ATOM      8  C   UNL     1      -2.466  -2.109  25.444  0.00  0.00    +0.111 C 
ATOM      9  C   UNL     1      -1.612  -1.642  24.279  0.00  0.00    +0.164 C 
ATOM     10  C   UNL     1      -0.439  -1.006  25.013  0.00  0.00    +0.165 C 
ATOM     11  C   UNL     1      -2.300  -0.955  26.419  0.00  0.00    +0.181 C 
ENDROOT
BRANCH   9   3
ATOM      3  O   UNL     1      -1.198  -2.706  23.445  0.00  0.00    -0.388 OA
ATOM     25  H   UNL     1      -0.558  -3.249  23.936  0.00  0.00    +0.210 HD
ENDBRANCH   9   3
BRANCH   8   5
ATOM      5  N   UNL     1      -3.854  -2.355  25.088  0.00  0.00    -0.305 NA
ATOM     24  H   UNL     1      -4.455  -2.012  25.837  0.00  0.00    +0.123 HD
BRANCH   5  13
ATOM     13  C   UNL     1      -4.206  -1.670  23.850  0.00  0.00    +0.118 C 
BRANCH  13  14
ATOM      7  N   UNL     1      -3.618   2.053  23.498  0.00  0.00    -0.263 NA
ATOM     14  C   UNL     1      -4.347  -0.185  24.052  0.00  0.00    -0.015 A 
ATOM     16  C   UNL     1      -5.287   0.332  24.937  0.00  0.00    +0.008 A 
ATOM     17  C   UNL     1      -3.544   0.710  23.363  0.00  0.00    +0.115 A 
ATOM     19  C   UNL     1      -5.393   1.709  25.102  0.00  0.00    +0.020 A 
ATOM     21  C   UNL     1      -4.543   2.519  24.367  0.00  0.00    +0.111 A 
ENDBRANCH  13  14
ENDBRANCH   5  13
ENDBRANCH   8   5
BRANCH  10  12
ATOM     12  C   UNL     1       0.280   0.051  24.192  0.00  0.00    +0.138 C 
BRANCH  12   6
ATOM      4  O   UNL     1       0.913   2.141  26.056  0.00  0.00    -0.270 OA
ATOM      6  N   UNL     1      -0.369   1.327  24.303  0.00  0.00    -0.308 N 
ATOM     15  C   UNL     1       0.007   2.284  25.240  0.00  0.00    +0.251 C 
ATOM     26  H   UNL     1      -1.139   1.508  23.667  0.00  0.00    +0.149 HD
BRANCH  15  18
ATOM      1  S   UNL     1      -2.205   3.633  26.190  0.00  0.00    -0.092 S 
ATOM     18  C   UNL     1      -0.781   3.543  25.243  0.00  0.00    +0.074 A 
ATOM     20  C   UNL     1      -0.536   4.717  24.567  0.00  0.00    +0.021 A 
ATOM     22  C   UNL     1      -1.529   5.704  24.830  0.00  0.00    +0.008 A 
ATOM     23  C   UNL     1      -2.497   5.246  25.697  0.00  0.00    +0.046 A 
ENDBRANCH  15  18
ENDBRANCH  12   6
ENDBRANCH  10  12
TORSDOF 7
ENDMDL
MODEL 10
REMARK VINA RESULT:      -3.1      2.193      4.654
REMARK  Name = 75536605
REMARK  7 active torsions:
REMARK  status: ('A' for Active; 'I' for Inactive)
REMARK    1  A    between atoms: O_3  and  C_9
REMARK    2  A    between atoms: N_5  and  C_8
REMARK    3  A    between atoms: N_5  and  C_13
REMARK    4  A    between atoms: N_6  and  C_12
REMARK    5  A    between atoms: C_10  and  C_12
REMARK    6  A    between atoms: C_13  and  C_14
REMARK    7  A    between atoms: C_15  and  C_18
REMARK                            x       y       z     vdW  Elec       q    Type
REMARK                         _______ _______ _______ _____ _____    ______ ____
ROOT
ATOM      2  O   UNL     1      -6.197   2.983  25.736  0.00  0.00    -0.371 OA
ATOM      8  C   UNL     1      -4.489   4.034  24.462  0.00  0.00    +0.111 C 
ATOM      9  C   UNL     1      -4.311   2.528  24.381  0.00  0.00    +0.164 C 
ATOM     10  C   UNL     1      -5.706   2.049  24.760  0.00  0.00    +0.165 C 
ATOM     11  C   UNL     1      -5.380   4.166  25.686  0.00  0.00    +0.181 C 
ENDROOT
BRANCH   9   3
ATOM      3  O   UNL     1      -3.936   2.091  23.089  0.00  0.00    -0.388 OA
ATOM     25  H   UNL     1      -4.698   2.201  22.496  0.00  0.00    +0.210 HD
ENDBRANCH   9   3
BRANCH   8   5
ATOM      5  N   UNL     1      -3.237   4.763  24.591  0.00  0.00    -0.305 NA
ATOM     24  H   UNL     1      -3.439   5.759  24.672  0.00  0.00    +0.123 HD
BRANCH   5  13
ATOM     13  C   UNL     1      -2.501   4.333  25.774  0.00  0.00    +0.118 C 
BRANCH  13  14
ATOM      7  N   UNL     1       0.593   2.181  26.141  0.00  0.00    -0.263 NA
ATOM     14  C   UNL     1      -1.324   3.464  25.415  0.00  0.00    -0.015 A 
ATOM     16  C   UNL     1      -1.051   3.138  24.092  0.00  0.00    +0.008 A 
ATOM     17  C   UNL     1      -0.480   2.965  26.394  0.00  0.00    +0.115 A 
ATOM     19  C   UNL     1       0.043   2.333  23.792  0.00  0.00    +0.020 A 
ATOM     21  C   UNL     1       0.827   1.885  24.843  0.00  0.00    +0.111 A 
ENDBRANCH  13  14
ENDBRANCH   5  13
ENDBRANCH   8   5
BRANCH  10  12
ATOM     12  C   UNL     1      -5.720   0.646  25.341  0.00  0.00    +0.138 C 
BRANCH  12   6
ATOM      4  O   UNL     1      -4.774  -1.625  23.859  0.00  0.00    -0.270 OA
ATOM      6  N   UNL     1      -4.400   0.085  25.382  0.00  0.00    -0.308 N 
ATOM     15  C   UNL     1      -4.027  -1.022  24.626  0.00  0.00    +0.251 C 
ATOM     26  H   UNL     1      -3.732   0.525  26.007  0.00  0.00    +0.149 HD
BRANCH  15  18
ATOM      1  S   UNL     1      -1.552  -0.574  25.760  0.00  0.00    -0.092 S 
ATOM     18  C   UNL     1      -2.630  -1.496  24.801  0.00  0.00    +0.074 A 
ATOM     20  C   UNL     1      -2.029  -2.623  24.286  0.00  0.00    +0.021 A 
ATOM     22  C   UNL     1      -0.666  -2.731  24.683  0.00  0.00    +0.008 A 
ATOM     23  C   UNL     1      -0.276  -1.682  25.487  0.00  0.00    +0.046 A 
ENDBRANCH  15  18
ENDBRANCH  12   6
ENDBRANCH  10  12
TORSDOF 7
ENDMDL
