MODEL 1
REMARK VINA RESULT:       4.6      0.000      0.000
REMARK  Name = 11886639
REMARK  12 active torsions:
REMARK  status: ('A' for Active; 'I' for Inactive)
REMARK    1  A    between atoms: O_3  and  C_13
REMARK    2  A    between atoms: O_3  and  C_18
REMARK    3  A    between atoms: N_5  and  C_12
REMARK    4  A    between atoms: N_8  and  C_21
REMARK    5  A    between atoms: N_9  and  C_19
REMARK    6  A    between atoms: N_9  and  C_30
REMARK    7  A    between atoms: N_9  and  C_31
REMARK    8  A    between atoms: C_17  and  C_19
REMARK    9  A    between atoms: C_20  and  C_22
REMARK   10  A    between atoms: C_20  and  C_23
REMARK   11  A    between atoms: C_20  and  C_24
REMARK   12  A    between atoms: C_20  and  C_25
REMARK                            x       y       z     vdW  Elec       q    Type
REMARK                         _______ _______ _______ _____ _____    ______ ____
ROOT
ATOM      1  O   UNL     1      -2.423  -8.415  10.770  0.00  0.00    -0.368 OA
ATOM      2  O   UNL     1      -2.035 -10.505  13.013  0.00  0.00    -0.368 OA
ATOM     10  C   UNL     1      -1.122  -9.938  12.048  0.00  0.00    +0.177 C 
ATOM     11  C   UNL     1      -1.904  -9.754  10.762  0.00  0.00    +0.192 C 
ATOM     12  C   UNL     1      -0.747  -8.531  12.470  0.00  0.00    +0.166 C 
ATOM     13  C   UNL     1      -3.005 -10.780  10.892  0.00  0.00    +0.235 C 
ATOM     14  C   UNL     1      -1.878  -7.692  11.881  0.00  0.00    +0.190 C 
ATOM     15  C   UNL     1      -3.296 -10.746  12.375  0.00  0.00    +0.207 C 
ENDROOT
BRANCH  12   5
ATOM      5  N   UNL     1       0.601  -8.157  12.039  0.00  0.00    -0.244 N 
ATOM      6  N   UNL     1       1.161  -8.747  10.974  0.00  0.00    -0.065 NA
ATOM      7  N   UNL     1       2.371  -8.217  10.826  0.00  0.00    -0.133 NA
ATOM     16  C   UNL     1       1.425  -7.238  12.604  0.00  0.00    +0.135 A 
ATOM     17  C   UNL     1       2.547  -7.291  11.817  0.00  0.00    +0.097 A 
BRANCH  17  19
ATOM     19  C   UNL     1       3.794  -6.523  11.929  0.00  0.00    +0.142 C 
BRANCH  19   9
ATOM      9  N   UNL     1       4.790  -7.281  12.698  0.00  0.00    -0.303 NA
ATOM     30  C   UNL     1       5.749  -7.915  11.796  0.00  0.00    +0.105 C 
ATOM     31  C   UNL     1       5.473  -6.404  13.645  0.00  0.00    +0.105 C 
ENDBRANCH  19   9
ENDBRANCH  17  19
ENDBRANCH  12   5
BRANCH  13   3
ATOM      3  O   UNL     1      -4.146 -10.484  10.120  0.00  0.00    -0.442 OA
BRANCH   3  18
ATOM      4  O   UNL     1      -6.412 -10.781  10.207  0.00  0.00    -0.226 OA
ATOM      8  N   UNL     1      -5.179 -10.157  12.098  0.00  0.00    -0.251 N 
ATOM     18  C   UNL     1      -5.361 -10.499  10.771  0.00  0.00    +0.405 C 
ATOM     32  H   UNL     1      -4.223  -9.955  12.382  0.00  0.00    +0.158 HD
BRANCH   8  21
ATOM     21  C   UNL     1      -6.158 -10.051  13.112  0.00  0.00    +0.036 A 
ATOM     22  C   UNL     1      -8.074  -9.843  15.102  0.00  0.00    -0.042 A 
ATOM     26  C   UNL     1      -7.435  -9.625  12.783  0.00  0.00    +0.024 A 
ATOM     27  C   UNL     1      -5.820 -10.375  14.417  0.00  0.00    +0.024 A 
ATOM     28  C   UNL     1      -8.399  -9.521  13.785  0.00  0.00    +0.006 A 
ATOM     29  C   UNL     1      -6.785 -10.271  15.419  0.00  0.00    +0.006 A 
BRANCH  22  20
ATOM     20  C   UNL     1      -9.106  -9.732  16.174  0.00  0.00    -0.013 C 
ATOM     23  C   UNL     1     -10.388 -10.544  15.812  0.00  0.00    +0.015 C 
ATOM     24  C   UNL     1      -8.669 -10.250  17.584  0.00  0.00    +0.015 C 
ATOM     25  C   UNL     1      -9.537  -8.248  16.393  0.00  0.00    +0.015 C 
ENDBRANCH  22  20
ENDBRANCH   8  21
ENDBRANCH   3  18
ENDBRANCH  13   3
TORSDOF 7
ENDMDL
MODEL 2
REMARK VINA RESULT:       5.8     14.258     17.204
REMARK  Name = 11886639
REMARK  12 active torsions:
REMARK  status: ('A' for Active; 'I' for Inactive)
REMARK    1  A    between atoms: O_3  and  C_13
REMARK    2  A    between atoms: O_3  and  C_18
REMARK    3  A    between atoms: N_5  and  C_12
REMARK    4  A    between atoms: N_8  and  C_21
REMARK    5  A    between atoms: N_9  and  C_19
REMARK    6  A    between atoms: N_9  and  C_30
REMARK    7  A    between atoms: N_9  and  C_31
REMARK    8  A    between atoms: C_17  and  C_19
REMARK    9  A    between atoms: C_20  and  C_22
REMARK   10  A    between atoms: C_20  and  C_23
REMARK   11  A    between atoms: C_20  and  C_24
REMARK   12  A    between atoms: C_20  and  C_25
REMARK                            x       y       z     vdW  Elec       q    Type
REMARK                         _______ _______ _______ _____ _____    ______ ____
ROOT
ATOM      1  O   UNL     1      -2.311  -0.250  23.596  0.00  0.00    -0.368 OA
ATOM      2  O   UNL     1      -5.215  -0.975  24.368  0.00  0.00    -0.368 OA
ATOM     10  C   UNL     1      -4.307   0.038  24.853  0.00  0.00    +0.177 C 
ATOM     11  C   UNL     1      -2.922  -0.579  24.853  0.00  0.00    +0.192 C 
ATOM     12  C   UNL     1      -4.220   1.167  23.843  0.00  0.00    +0.166 C 
ATOM     13  C   UNL     1      -3.217  -2.057  24.961  0.00  0.00    +0.235 C 
ATOM     14  C   UNL     1      -3.143   0.674  22.881  0.00  0.00    +0.190 C 
ATOM     15  C   UNL     1      -4.483  -2.188  24.147  0.00  0.00    +0.207 C 
ENDROOT
BRANCH  12   5
ATOM      5  N   UNL     1      -3.954   2.462  24.473  0.00  0.00    -0.244 N 
ATOM      6  N   UNL     1      -4.886   3.050  25.234  0.00  0.00    -0.065 NA
ATOM      7  N   UNL     1      -4.372   4.199  25.661  0.00  0.00    -0.133 NA
ATOM     16  C   UNL     1      -2.823   3.206  24.386  0.00  0.00    +0.135 A 
ATOM     17  C   UNL     1      -3.109   4.309  25.150  0.00  0.00    +0.097 A 
BRANCH  17  19
ATOM     19  C   UNL     1      -2.269   5.478  25.441  0.00  0.00    +0.142 C 
BRANCH  19   9
ATOM      9  N   UNL     1      -0.849   5.133  25.289  0.00  0.00    -0.303 NA
ATOM     30  C   UNL     1      -0.611   3.763  25.735  0.00  0.00    +0.105 C 
ATOM     31  C   UNL     1      -0.434   5.303  23.898  0.00  0.00    +0.105 C 
ENDBRANCH  19   9
ENDBRANCH  17  19
ENDBRANCH  12   5
BRANCH  13   3
ATOM      3  O   UNL     1      -2.181  -2.876  24.469  0.00  0.00    -0.442 OA
BRANCH   3  18
ATOM      4  O   UNL     1      -0.344  -2.731  25.825  0.00  0.00    -0.226 OA
ATOM      8  N   UNL     1      -0.360  -1.809  23.672  0.00  0.00    -0.251 N 
ATOM     18  C   UNL     1      -0.889  -2.486  24.755  0.00  0.00    +0.405 C 
ATOM     32  H   UNL     1      -0.972  -1.705  22.866  0.00  0.00    +0.158 HD
BRANCH   8  21
ATOM     21  C   UNL     1       0.929  -1.242  23.544  0.00  0.00    +0.036 A 
ATOM     22  C   UNL     1       3.454  -0.129  23.294  0.00  0.00    -0.042 A 
ATOM     26  C   UNL     1       2.029  -1.946  24.008  0.00  0.00    +0.024 A 
ATOM     27  C   UNL     1       1.066   0.006  22.958  0.00  0.00    +0.024 A 
ATOM     28  C   UNL     1       3.301  -1.385  23.881  0.00  0.00    +0.006 A 
ATOM     29  C   UNL     1       2.337   0.566  22.831  0.00  0.00    +0.006 A 
BRANCH  22  20
ATOM     20  C   UNL     1       4.813   0.469  23.157  0.00  0.00    -0.013 C 
ATOM     23  C   UNL     1       5.519   0.595  24.542  0.00  0.00    +0.015 C 
ATOM     24  C   UNL     1       5.810  -0.327  22.252  0.00  0.00    +0.015 C 
ATOM     25  C   UNL     1       4.741   1.899  22.535  0.00  0.00    +0.015 C 
ENDBRANCH  22  20
ENDBRANCH   8  21
ENDBRANCH   3  18
ENDBRANCH  13   3
TORSDOF 7
ENDMDL
MODEL 3
REMARK VINA RESULT:       6.7     14.524     16.116
REMARK  Name = 11886639
REMARK  12 active torsions:
REMARK  status: ('A' for Active; 'I' for Inactive)
REMARK    1  A    between atoms: O_3  and  C_13
REMARK    2  A    between atoms: O_3  and  C_18
REMARK    3  A    between atoms: N_5  and  C_12
REMARK    4  A    between atoms: N_8  and  C_21
REMARK    5  A    between atoms: N_9  and  C_19
REMARK    6  A    between atoms: N_9  and  C_30
REMARK    7  A    between atoms: N_9  and  C_31
REMARK    8  A    between atoms: C_17  and  C_19
REMARK    9  A    between atoms: C_20  and  C_22
REMARK   10  A    between atoms: C_20  and  C_23
REMARK   11  A    between atoms: C_20  and  C_24
REMARK   12  A    between atoms: C_20  and  C_25
REMARK                            x       y       z     vdW  Elec       q    Type
REMARK                         _______ _______ _______ _____ _____    ______ ____
ROOT
ATOM      1  O   UNL     1      -2.339   2.888  24.086  0.00  0.00    -0.368 OA
ATOM      2  O   UNL     1      -0.497   5.213  24.956  0.00  0.00    -0.368 OA
ATOM     10  C   UNL     1      -0.307   3.781  24.934  0.00  0.00    +0.177 C 
ATOM     11  C   UNL     1      -1.636   3.157  25.310  0.00  0.00    +0.192 C 
ATOM     12  C   UNL     1      -0.061   3.324  23.509  0.00  0.00    +0.166 C 
ATOM     13  C   UNL     1      -2.304   4.251  26.108  0.00  0.00    +0.235 C 
ATOM     14  C   UNL     1      -1.476   3.136  22.968  0.00  0.00    +0.190 C 
ATOM     15  C   UNL     1      -1.833   5.497  25.394  0.00  0.00    +0.207 C 
ENDROOT
BRANCH  12   5
ATOM      5  N   UNL     1       0.799   2.141  23.440  0.00  0.00    -0.244 N 
ATOM      6  N   UNL     1       0.391   0.974  23.956  0.00  0.00    -0.065 NA
ATOM      7  N   UNL     1       1.367   0.095  23.753  0.00  0.00    -0.133 NA
ATOM     16  C   UNL     1       2.038   2.051  22.895  0.00  0.00    +0.135 A 
ATOM     17  C   UNL     1       2.383   0.740  23.104  0.00  0.00    +0.097 A 
BRANCH  17  19
ATOM     19  C   UNL     1       3.618   0.036  22.733  0.00  0.00    +0.142 C 
BRANCH  19   9
ATOM      9  N   UNL     1       4.409  -0.267  23.933  0.00  0.00    -0.303 NA
ATOM     30  C   UNL     1       4.720  -1.693  23.985  0.00  0.00    +0.105 C 
ATOM     31  C   UNL     1       5.633   0.529  23.946  0.00  0.00    +0.105 C 
ENDBRANCH  19   9
ENDBRANCH  17  19
ENDBRANCH  12   5
BRANCH  13   3
ATOM      3  O   UNL     1      -3.710   4.153  26.134  0.00  0.00    -0.442 OA
BRANCH   3  18
ATOM      4  O   UNL     1      -5.458   2.812  25.521  0.00  0.00    -0.226 OA
ATOM      8  N   UNL     1      -3.261   2.007  25.605  0.00  0.00    -0.251 N 
ATOM     18  C   UNL     1      -4.259   2.955  25.728  0.00  0.00    +0.405 C 
ATOM     32  H   UNL     1      -2.317   2.319  25.821  0.00  0.00    +0.158 HD
BRANCH   8  21
ATOM     21  C   UNL     1      -3.388   0.654  25.215  0.00  0.00    +0.036 A 
ATOM     22  C   UNL     1      -3.636  -1.998  24.452  0.00  0.00    -0.042 A 
ATOM     26  C   UNL     1      -4.387   0.295  24.324  0.00  0.00    +0.024 A 
ATOM     27  C   UNL     1      -2.510  -0.286  25.731  0.00  0.00    +0.024 A 
ATOM     28  C   UNL     1      -4.511  -1.041  23.940  0.00  0.00    +0.006 A 
ATOM     29  C   UNL     1      -2.634  -1.621  25.346  0.00  0.00    +0.006 A 
BRANCH  22  20
ATOM     20  C   UNL     1      -3.768  -3.425  24.040  0.00  0.00    -0.013 C 
ATOM     23  C   UNL     1      -5.048  -3.650  23.178  0.00  0.00    +0.015 C 
ATOM     24  C   UNL     1      -2.586  -3.991  23.185  0.00  0.00    +0.015 C 
ATOM     25  C   UNL     1      -3.866  -4.365  25.283  0.00  0.00    +0.015 C 
ENDBRANCH  22  20
ENDBRANCH   8  21
ENDBRANCH   3  18
ENDBRANCH  13   3
TORSDOF 7
ENDMDL
MODEL 4
REMARK VINA RESULT:       6.7     13.824     15.450
REMARK  Name = 11886639
REMARK  12 active torsions:
REMARK  status: ('A' for Active; 'I' for Inactive)
REMARK    1  A    between atoms: O_3  and  C_13
REMARK    2  A    between atoms: O_3  and  C_18
REMARK    3  A    between atoms: N_5  and  C_12
REMARK    4  A    between atoms: N_8  and  C_21
REMARK    5  A    between atoms: N_9  and  C_19
REMARK    6  A    between atoms: N_9  and  C_30
REMARK    7  A    between atoms: N_9  and  C_31
REMARK    8  A    between atoms: C_17  and  C_19
REMARK    9  A    between atoms: C_20  and  C_22
REMARK   10  A    between atoms: C_20  and  C_23
REMARK   11  A    between atoms: C_20  and  C_24
REMARK   12  A    between atoms: C_20  and  C_25
REMARK                            x       y       z     vdW  Elec       q    Type
REMARK                         _______ _______ _______ _____ _____    ______ ____
ROOT
ATOM      1  O   UNL     1      -1.757  -0.845  23.269  0.00  0.00    -0.368 OA
ATOM      2  O   UNL     1      -0.560  -1.441  26.056  0.00  0.00    -0.368 OA
ATOM     10  C   UNL     1      -0.000  -1.506  24.727  0.00  0.00    +0.177 C 
ATOM     11  C   UNL     1      -1.101  -2.002  23.811  0.00  0.00    +0.192 C 
ATOM     12  C   UNL     1       0.301  -0.103  24.234  0.00  0.00    +0.166 C 
ATOM     13  C   UNL     1      -2.002  -2.762  24.755  0.00  0.00    +0.235 C 
ATOM     14  C   UNL     1      -1.034   0.337  23.641  0.00  0.00    +0.190 C 
ATOM     15  C   UNL     1      -1.905  -1.938  26.018  0.00  0.00    +0.207 C 
ENDROOT
BRANCH  12   5
ATOM      5  N   UNL     1       1.439  -0.064  23.314  0.00  0.00    -0.244 N 
ATOM      6  N   UNL     1       1.271  -0.337  22.013  0.00  0.00    -0.065 NA
ATOM      7  N   UNL     1       2.462  -0.230  21.434  0.00  0.00    -0.133 NA
ATOM     16  C   UNL     1       2.732   0.225  23.610  0.00  0.00    +0.135 A 
ATOM     17  C   UNL     1       3.368   0.114  22.400  0.00  0.00    +0.097 A 
BRANCH  17  19
ATOM     19  C   UNL     1       4.787   0.311  22.078  0.00  0.00    +0.142 C 
BRANCH  19   9
ATOM      9  N   UNL     1       5.630  -0.215  23.158  0.00  0.00    -0.303 NA
ATOM     30  C   UNL     1       5.806   0.795  24.199  0.00  0.00    +0.105 C 
ATOM     31  C   UNL     1       5.042  -1.431  23.714  0.00  0.00    +0.105 C 
ENDBRANCH  19   9
ENDBRANCH  17  19
ENDBRANCH  12   5
BRANCH  13   3
ATOM      3  O   UNL     1      -3.330  -2.879  24.297  0.00  0.00    -0.442 OA
BRANCH   3  18
ATOM      4  O   UNL     1      -5.060  -1.637  23.466  0.00  0.00    -0.226 OA
ATOM      8  N   UNL     1      -3.425  -0.695  24.851  0.00  0.00    -0.251 N 
ATOM     18  C   UNL     1      -4.041  -1.708  24.142  0.00  0.00    +0.405 C 
ATOM     32  H   UNL     1      -2.580  -0.951  25.357  0.00  0.00    +0.158 HD
BRANCH   8  21
ATOM     21  C   UNL     1      -3.822   0.657  24.963  0.00  0.00    +0.036 A 
ATOM     22  C   UNL     1      -4.599   3.308  25.180  0.00  0.00    -0.042 A 
ATOM     26  C   UNL     1      -5.171   0.974  24.928  0.00  0.00    +0.024 A 
ATOM     27  C   UNL     1      -2.855   1.639  25.104  0.00  0.00    +0.024 A 
ATOM     28  C   UNL     1      -5.562   2.309  25.038  0.00  0.00    +0.006 A 
ATOM     29  C   UNL     1      -3.246   2.974  25.214  0.00  0.00    +0.006 A 
BRANCH  22  20
ATOM     20  C   UNL     1      -5.018   4.735  25.299  0.00  0.00    -0.013 C 
ATOM     23  C   UNL     1      -4.737   5.519  23.980  0.00  0.00    +0.015 C 
ATOM     24  C   UNL     1      -6.533   4.967  25.608  0.00  0.00    +0.015 C 
ATOM     25  C   UNL     1      -4.245   5.456  26.448  0.00  0.00    +0.015 C 
ENDBRANCH  22  20
ENDBRANCH   8  21
ENDBRANCH   3  18
ENDBRANCH  13   3
TORSDOF 7
ENDMDL
MODEL 5
REMARK VINA RESULT:       7.3     14.569     16.197
REMARK  Name = 11886639
REMARK  12 active torsions:
REMARK  status: ('A' for Active; 'I' for Inactive)
REMARK    1  A    between atoms: O_3  and  C_13
REMARK    2  A    between atoms: O_3  and  C_18
REMARK    3  A    between atoms: N_5  and  C_12
REMARK    4  A    between atoms: N_8  and  C_21
REMARK    5  A    between atoms: N_9  and  C_19
REMARK    6  A    between atoms: N_9  and  C_30
REMARK    7  A    between atoms: N_9  and  C_31
REMARK    8  A    between atoms: C_17  and  C_19
REMARK    9  A    between atoms: C_20  and  C_22
REMARK   10  A    between atoms: C_20  and  C_23
REMARK   11  A    between atoms: C_20  and  C_24
REMARK   12  A    between atoms: C_20  and  C_25
REMARK                            x       y       z     vdW  Elec       q    Type
REMARK                         _______ _______ _______ _____ _____    ______ ____
ROOT
ATOM      1  O   UNL     1      -2.323  -0.489  25.358  0.00  0.00    -0.368 OA
ATOM      2  O   UNL     1      -1.972  -3.280  24.076  0.00  0.00    -0.368 OA
ATOM     10  C   UNL     1      -1.453  -1.979  23.723  0.00  0.00    +0.177 C 
ATOM     11  C   UNL     1      -2.548  -0.974  24.025  0.00  0.00    +0.192 C 
ATOM     12  C   UNL     1      -0.326  -1.608  24.668  0.00  0.00    +0.166 C 
ATOM     13  C   UNL     1      -3.802  -1.813  23.941  0.00  0.00    +0.235 C 
ATOM     14  C   UNL     1      -1.069  -0.984  25.846  0.00  0.00    +0.190 C 
ATOM     15  C   UNL     1      -3.334  -3.137  24.500  0.00  0.00    +0.207 C 
ENDROOT
BRANCH  12   5
ATOM      5  N   UNL     1       0.678  -0.752  24.035  0.00  0.00    -0.244 N 
ATOM      6  N   UNL     1       0.543   0.581  24.054  0.00  0.00    -0.065 NA
ATOM      7  N   UNL     1       1.588   1.088  23.407  0.00  0.00    -0.133 NA
ATOM     16  C   UNL     1       1.802  -1.140  23.382  0.00  0.00    +0.135 A 
ATOM     17  C   UNL     1       2.368   0.046  22.989  0.00  0.00    +0.097 A 
BRANCH  17  19
ATOM     19  C   UNL     1       3.609   0.277  22.238  0.00  0.00    +0.142 C 
BRANCH  19   9
ATOM      9  N   UNL     1       4.761  -0.237  22.991  0.00  0.00    -0.303 NA
ATOM     30  C   UNL     1       5.308   0.807  23.853  0.00  0.00    +0.105 C 
ATOM     31  C   UNL     1       4.371  -1.404  23.778  0.00  0.00    +0.105 C 
ENDBRANCH  19   9
ENDBRANCH  17  19
ENDBRANCH  12   5
BRANCH  13   3
ATOM      3  O   UNL     1      -4.886  -1.282  24.668  0.00  0.00    -0.442 OA
BRANCH   3  18
ATOM      4  O   UNL     1      -5.514   0.531  25.912  0.00  0.00    -0.226 OA
ATOM      8  N   UNL     1      -3.781   0.657  24.343  0.00  0.00    -0.251 N 
ATOM     18  C   UNL     1      -4.789   0.038  25.057  0.00  0.00    +0.405 C 
ATOM     32  H   UNL     1      -3.285   0.077  23.671  0.00  0.00    +0.158 HD
BRANCH   8  21
ATOM     21  C   UNL     1      -3.351   2.001  24.430  0.00  0.00    +0.036 A 
ATOM     22  C   UNL     1      -2.506   4.635  24.601  0.00  0.00    -0.042 A 
ATOM     26  C   UNL     1      -4.051   2.984  23.748  0.00  0.00    +0.024 A 
ATOM     27  C   UNL     1      -2.237   2.309  25.196  0.00  0.00    +0.024 A 
ATOM     28  C   UNL     1      -3.625   4.310  23.835  0.00  0.00    +0.006 A 
ATOM     29  C   UNL     1      -1.812   3.635  25.282  0.00  0.00    +0.006 A 
BRANCH  22  20
ATOM     20  C   UNL     1      -2.052   6.052  24.694  0.00  0.00    -0.013 C 
ATOM     23  C   UNL     1      -0.496   6.150  24.699  0.00  0.00    +0.015 C 
ATOM     24  C   UNL     1      -2.525   6.987  23.532  0.00  0.00    +0.015 C 
ATOM     25  C   UNL     1      -2.570   6.727  26.004  0.00  0.00    +0.015 C 
ENDBRANCH  22  20
ENDBRANCH   8  21
ENDBRANCH   3  18
ENDBRANCH  13   3
TORSDOF 7
ENDMDL
