MODEL 1
REMARK VINA RESULT:       4.3      0.000      0.000
REMARK  Name = 7052042
REMARK  11 active torsions:
REMARK  status: ('A' for Active; 'I' for Inactive)
REMARK    1  A    between atoms: O_4  and  C_27
REMARK    2  A    between atoms: O_4  and  C_34
REMARK    3  A    between atoms: N_8  and  C_24
REMARK    4  A    between atoms: N_9  and  C_25
REMARK    5  A    between atoms: C_11  and  C_18
REMARK    6  A    between atoms: C_16  and  C_22
REMARK    7  A    between atoms: C_24  and  C_26
REMARK    8  A    between atoms: C_24  and  C_27
REMARK    9  A    between atoms: C_25  and  C_29
REMARK   10  A    between atoms: C_25  and  C_30
REMARK   11  A    between atoms: C_26  and  C_28
REMARK                            x       y       z     vdW  Elec       q    Type
REMARK                         _______ _______ _______ _____ _____    ______ ____
ROOT
ATOM      1  O   UNL     1      -3.361  -1.684  25.901  0.00  0.00    -0.275 OA
ATOM      3  O   UNL     1       2.572   0.939  22.464  0.00  0.00    -0.253 OA
ATOM      6  N   UNL     1      -1.750  -0.797  24.476  0.00  0.00    -0.287 N 
ATOM      7  N   UNL     1       1.021  -0.255  23.714  0.00  0.00    -0.282 N 
ATOM      9  N   UNL     1       3.306  -0.843  23.722  0.00  0.00    -0.297 N 
ATOM     16  C   UNL     1      -0.649  -1.167  25.364  0.00  0.00    +0.179 C 
ATOM     18  C   UNL     1      -3.056  -1.153  24.830  0.00  0.00    +0.219 C 
ATOM     19  C   UNL     1      -1.400  -0.167  23.199  0.00  0.00    +0.127 C 
ATOM     20  C   UNL     1       0.688  -1.344  24.645  0.00  0.00    +0.141 C 
ATOM     21  C   UNL     1      -0.081   0.590  23.258  0.00  0.00    +0.128 C 
ATOM     23  C   UNL     1       2.321   0.016  23.246  0.00  0.00    +0.303 C 
ATOM     37  H   UNL     1       3.079  -1.589  24.366  0.00  0.00    +0.150 HD
ENDROOT
BRANCH  18  11
ATOM     11  C   UNL     1      -4.127  -0.848  23.822  0.00  0.00    +0.075 C 
ATOM     12  C   UNL     1      -3.680   0.295  22.909  0.00  0.00    +0.013 C 
ATOM     13  C   UNL     1      -5.465  -0.569  24.510  0.00  0.00    +0.013 C 
ATOM     14  C   UNL     1      -3.764   1.665  23.579  0.00  0.00    +0.001 C 
ATOM     15  C   UNL     1      -5.541   0.817  25.151  0.00  0.00    +0.001 C 
ATOM     17  C   UNL     1      -5.145   1.918  24.174  0.00  0.00    +0.000 C 
ENDBRANCH  18  11
BRANCH  16  22
ATOM      2  O   UNL     1      -0.521  -0.401  27.624  0.00  0.00    -0.274 OA
ATOM      8  N   UNL     1      -0.514   1.166  25.903  0.00  0.00    -0.301 N 
ATOM     22  C   UNL     1      -0.548  -0.113  26.431  0.00  0.00    +0.236 C 
ATOM     36  H   UNL     1      -0.568   1.289  24.895  0.00  0.00    +0.150 HD
BRANCH   8  24
ATOM     24  C   UNL     1      -0.441   2.356  26.719  0.00  0.00    +0.186 C 
BRANCH  24  27
ATOM      5  O   UNL     1       1.945   2.567  27.049  0.00  0.00    -0.249 OA
ATOM     27  C   UNL     1       0.836   2.405  27.549  0.00  0.00    +0.328 C 
BRANCH  27   4
ATOM      4  O   UNL     1       0.591   2.232  28.878  0.00  0.00    -0.467 OA
ATOM     34  C   UNL     1       1.733   2.318  29.736  0.00  0.00    +0.280 C 
ENDBRANCH  27   4
ENDBRANCH  24  27
BRANCH  24  26
ATOM     26  C   UNL     1      -0.633   3.632  25.885  0.00  0.00    +0.070 C 
BRANCH  26  28
ATOM     10  N   UNL     1      -4.351   4.079  26.479  0.00  0.00    -0.263 NA
ATOM     28  C   UNL     1      -2.074   4.034  25.668  0.00  0.00    -0.027 A 
ATOM     31  C   UNL     1      -2.465   4.700  24.511  0.00  0.00    +0.006 A 
ATOM     32  C   UNL     1      -3.047   3.749  26.612  0.00  0.00    +0.114 A 
ATOM     33  C   UNL     1      -3.798   5.056  24.338  0.00  0.00    +0.020 A 
ATOM     35  C   UNL     1      -4.693   4.726  25.342  0.00  0.00    +0.111 A 
ENDBRANCH  26  28
ENDBRANCH  24  26
ENDBRANCH   8  24
ENDBRANCH  16  22
BRANCH   9  25
ATOM     25  C   UNL     1       4.694  -0.717  23.337  0.00  0.00    +0.068 C 
ATOM     29  C   UNL     1       5.536  -1.778  24.032  0.00  0.00    +0.027 C 
ATOM     30  C   UNL     1       5.208   0.684  23.644  0.00  0.00    +0.027 C 
ENDBRANCH   9  25
TORSDOF 8
ENDMDL
MODEL 2
REMARK VINA RESULT:       5.6      1.957      5.365
REMARK  Name = 7052042
REMARK  11 active torsions:
REMARK  status: ('A' for Active; 'I' for Inactive)
REMARK    1  A    between atoms: O_4  and  C_27
REMARK    2  A    between atoms: O_4  and  C_34
REMARK    3  A    between atoms: N_8  and  C_24
REMARK    4  A    between atoms: N_9  and  C_25
REMARK    5  A    between atoms: C_11  and  C_18
REMARK    6  A    between atoms: C_16  and  C_22
REMARK    7  A    between atoms: C_24  and  C_26
REMARK    8  A    between atoms: C_24  and  C_27
REMARK    9  A    between atoms: C_25  and  C_29
REMARK   10  A    between atoms: C_25  and  C_30
REMARK   11  A    between atoms: C_26  and  C_28
REMARK                            x       y       z     vdW  Elec       q    Type
REMARK                         _______ _______ _______ _____ _____    ______ ____
ROOT
ATOM      1  O   UNL     1      -2.926   3.366  22.271  0.00  0.00    -0.275 OA
ATOM      3  O   UNL     1       0.110   2.157  28.845  0.00  0.00    -0.253 OA
ATOM      6  N   UNL     1      -2.337   3.141  24.510  0.00  0.00    -0.287 N 
ATOM      7  N   UNL     1      -0.384   2.726  26.648  0.00  0.00    -0.282 N 
ATOM      9  N   UNL     1       1.806   2.938  27.499  0.00  0.00    -0.297 N 
ATOM     16  C   UNL     1      -0.936   2.864  24.194  0.00  0.00    +0.179 C 
ATOM     18  C   UNL     1      -3.223   3.425  23.467  0.00  0.00    +0.219 C 
ATOM     19  C   UNL     1      -2.703   3.215  25.928  0.00  0.00    +0.127 C 
ATOM     20  C   UNL     1       0.030   3.217  25.325  0.00  0.00    +0.141 C 
ATOM     21  C   UNL     1      -1.794   2.377  26.815  0.00  0.00    +0.128 C 
ATOM     23  C   UNL     1       0.486   2.573  27.744  0.00  0.00    +0.303 C 
ATOM     37  H   UNL     1       2.094   3.271  26.589  0.00  0.00    +0.150 HD
ENDROOT
BRANCH  18  11
ATOM     11  C   UNL     1      -4.618   3.814  23.864  0.00  0.00    +0.075 C 
ATOM     12  C   UNL     1      -4.649   4.234  25.334  0.00  0.00    +0.013 C 
ATOM     13  C   UNL     1      -5.613   2.695  23.546  0.00  0.00    +0.013 C 
ATOM     14  C   UNL     1      -4.585   3.050  26.297  0.00  0.00    +0.001 C 
ATOM     15  C   UNL     1      -5.555   1.532  24.536  0.00  0.00    +0.001 C 
ATOM     17  C   UNL     1      -5.652   2.009  25.981  0.00  0.00    +0.000 C 
ENDBRANCH  18  11
BRANCH  16  22
ATOM      2  O   UNL     1      -1.809   0.749  23.505  0.00  0.00    -0.274 OA
ATOM      8  N   UNL     1       0.471   0.940  23.934  0.00  0.00    -0.301 N 
ATOM     22  C   UNL     1      -0.827   1.410  23.831  0.00  0.00    +0.236 C 
ATOM     36  H   UNL     1       1.206   1.572  24.240  0.00  0.00    +0.150 HD
BRANCH   8  24
ATOM     24  C   UNL     1       0.839  -0.431  23.661  0.00  0.00    +0.186 C 
BRANCH  24  27
ATOM      5  O   UNL     1       3.015  -1.483  23.648  0.00  0.00    -0.249 OA
ATOM     27  C   UNL     1       2.302  -0.562  23.259  0.00  0.00    +0.328 C 
BRANCH  27   4
ATOM      4  O   UNL     1       2.707   0.457  22.450  0.00  0.00    -0.467 OA
ATOM     34  C   UNL     1       4.072   0.861  22.594  0.00  0.00    +0.280 C 
ENDBRANCH  27   4
ENDBRANCH  24  27
BRANCH  24  26
ATOM     26  C   UNL     1       0.477  -1.362  24.827  0.00  0.00    +0.070 C 
BRANCH  26  28
ATOM     10  N   UNL     1      -2.993  -2.764  24.222  0.00  0.00    -0.263 NA
ATOM     28  C   UNL     1      -1.002  -1.628  24.989  0.00  0.00    -0.027 A 
ATOM     31  C   UNL     1      -1.732  -1.016  26.002  0.00  0.00    +0.006 A 
ATOM     32  C   UNL     1      -1.673  -2.485  24.133  0.00  0.00    +0.114 A 
ATOM     33  C   UNL     1      -3.093  -1.278  26.126  0.00  0.00    +0.020 A 
ATOM     35  C   UNL     1      -3.670  -2.151  25.219  0.00  0.00    +0.111 A 
ENDBRANCH  26  28
ENDBRANCH  24  26
ENDBRANCH   8  24
ENDBRANCH  16  22
BRANCH   9  25
ATOM     25  C   UNL     1       2.832   2.855  28.515  0.00  0.00    +0.068 C 
ATOM     29  C   UNL     1       2.370   1.968  29.663  0.00  0.00    +0.027 C 
ATOM     30  C   UNL     1       3.208   4.246  29.009  0.00  0.00    +0.027 C 
ENDBRANCH   9  25
TORSDOF 8
ENDMDL
MODEL 3
REMARK VINA RESULT:       5.9      1.535      3.528
REMARK  Name = 7052042
REMARK  11 active torsions:
REMARK  status: ('A' for Active; 'I' for Inactive)
REMARK    1  A    between atoms: O_4  and  C_27
REMARK    2  A    between atoms: O_4  and  C_34
REMARK    3  A    between atoms: N_8  and  C_24
REMARK    4  A    between atoms: N_9  and  C_25
REMARK    5  A    between atoms: C_11  and  C_18
REMARK    6  A    between atoms: C_16  and  C_22
REMARK    7  A    between atoms: C_24  and  C_26
REMARK    8  A    between atoms: C_24  and  C_27
REMARK    9  A    between atoms: C_25  and  C_29
REMARK   10  A    between atoms: C_25  and  C_30
REMARK   11  A    between atoms: C_26  and  C_28
REMARK                            x       y       z     vdW  Elec       q    Type
REMARK                         _______ _______ _______ _____ _____    ______ ____
ROOT
ATOM      1  O   UNL     1      -3.614  -0.843  25.948  0.00  0.00    -0.275 OA
ATOM      3  O   UNL     1       2.445   0.869  22.172  0.00  0.00    -0.253 OA
ATOM      6  N   UNL     1      -1.967  -0.240  24.419  0.00  0.00    -0.287 N 
ATOM      7  N   UNL     1       0.819  -0.058  23.548  0.00  0.00    -0.282 N 
ATOM      9  N   UNL     1       3.028  -0.888  23.541  0.00  0.00    -0.297 N 
ATOM     16  C   UNL     1      -0.882  -0.663  25.304  0.00  0.00    +0.179 C 
ATOM     18  C   UNL     1      -3.290  -0.427  24.832  0.00  0.00    +0.219 C 
ATOM     19  C   UNL     1      -1.595   0.255  23.090  0.00  0.00    +0.127 C 
ATOM     20  C   UNL     1       0.404  -1.035  24.566  0.00  0.00    +0.141 C 
ATOM     21  C   UNL     1      -0.202   0.867  23.059  0.00  0.00    +0.128 C 
ATOM     23  C   UNL     1       2.124   0.037  23.027  0.00  0.00    +0.303 C 
ATOM     37  H   UNL     1       2.745  -1.557  24.244  0.00  0.00    +0.150 HD
ENDROOT
BRANCH  18  11
ATOM     11  C   UNL     1      -4.356  -0.081  23.833  0.00  0.00    +0.075 C 
ATOM     12  C   UNL     1      -3.965   1.181  23.062  0.00  0.00    +0.013 C 
ATOM     13  C   UNL     1      -5.725   0.038  24.508  0.00  0.00    +0.013 C 
ATOM     14  C   UNL     1      -4.152   2.462  23.873  0.00  0.00    +0.001 C 
ATOM     15  C   UNL     1      -5.905   1.338  25.292  0.00  0.00    +0.001 C 
ATOM     17  C   UNL     1      -5.559   2.561  24.451  0.00  0.00    +0.000 C 
ENDBRANCH  18  11
BRANCH  16  22
ATOM      2  O   UNL     1      -0.353   0.223  27.460  0.00  0.00    -0.274 OA
ATOM      8  N   UNL     1      -0.781   1.698  25.712  0.00  0.00    -0.301 N 
ATOM     22  C   UNL     1      -0.633   0.447  26.286  0.00  0.00    +0.236 C 
ATOM     36  H   UNL     1      -1.041   1.767  24.731  0.00  0.00    +0.150 HD
BRANCH   8  24
ATOM     24  C   UNL     1      -0.618   2.931  26.448  0.00  0.00    +0.186 C 
BRANCH  24  27
ATOM      5  O   UNL     1      -2.795   3.981  26.433  0.00  0.00    -0.249 OA
ATOM     27  C   UNL     1      -1.635   3.986  26.033  0.00  0.00    +0.328 C 
BRANCH  27   4
ATOM      4  O   UNL     1      -1.105   4.899  25.170  0.00  0.00    -0.467 OA
ATOM     34  C   UNL     1      -0.301   4.362  24.115  0.00  0.00    +0.280 C 
ENDBRANCH  27   4
ENDBRANCH  24  27
BRANCH  24  26
ATOM     26  C   UNL     1      -0.623   2.694  27.966  0.00  0.00    +0.070 C 
BRANCH  26  28
ATOM     10  N   UNL     1       3.138   2.917  28.394  0.00  0.00    -0.263 NA
ATOM     28  C   UNL     1       0.748   2.612  28.598  0.00  0.00    -0.027 A 
ATOM     31  C   UNL     1       0.908   2.175  29.908  0.00  0.00    +0.006 A 
ATOM     32  C   UNL     1       1.884   2.968  27.890  0.00  0.00    +0.114 A 
ATOM     33  C   UNL     1       2.182   2.109  30.462  0.00  0.00    +0.020 A 
ATOM     35  C   UNL     1       3.254   2.488  29.671  0.00  0.00    +0.111 A 
ENDBRANCH  26  28
ENDBRANCH  24  26
ENDBRANCH   8  24
ENDBRANCH  16  22
BRANCH   9  25
ATOM     25  C   UNL     1       4.408  -0.940  23.111  0.00  0.00    +0.068 C 
ATOM     29  C   UNL     1       5.169  -1.996  23.901  0.00  0.00    +0.027 C 
ATOM     30  C   UNL     1       5.062   0.429  23.248  0.00  0.00    +0.027 C 
ENDBRANCH   9  25
TORSDOF 8
ENDMDL
MODEL 4
REMARK VINA RESULT:       6.1      1.777      3.097
REMARK  Name = 7052042
REMARK  11 active torsions:
REMARK  status: ('A' for Active; 'I' for Inactive)
REMARK    1  A    between atoms: O_4  and  C_27
REMARK    2  A    between atoms: O_4  and  C_34
REMARK    3  A    between atoms: N_8  and  C_24
REMARK    4  A    between atoms: N_9  and  C_25
REMARK    5  A    between atoms: C_11  and  C_18
REMARK    6  A    between atoms: C_16  and  C_22
REMARK    7  A    between atoms: C_24  and  C_26
REMARK    8  A    between atoms: C_24  and  C_27
REMARK    9  A    between atoms: C_25  and  C_29
REMARK   10  A    between atoms: C_25  and  C_30
REMARK   11  A    between atoms: C_26  and  C_28
REMARK                            x       y       z     vdW  Elec       q    Type
REMARK                         _______ _______ _______ _____ _____    ______ ____
ROOT
ATOM      1  O   UNL     1      -2.720  -0.187  26.005  0.00  0.00    -0.275 OA
ATOM      3  O   UNL     1       3.112   0.523  21.602  0.00  0.00    -0.253 OA
ATOM      6  N   UNL     1      -1.115  -0.176  24.321  0.00  0.00    -0.287 N 
ATOM      7  N   UNL     1       1.621   0.179  23.350  0.00  0.00    -0.282 N 
ATOM      9  N   UNL     1       3.953   0.098  23.702  0.00  0.00    -0.297 N 
ATOM     16  C   UNL     1      -0.060   0.284  25.223  0.00  0.00    +0.179 C 
ATOM     18  C   UNL     1      -2.390  -0.423  24.839  0.00  0.00    +0.219 C 
ATOM     19  C   UNL     1      -0.735  -0.462  22.933  0.00  0.00    +0.127 C 
ATOM     20  C   UNL     1       1.348  -0.100  24.768  0.00  0.00    +0.141 C 
ATOM     21  C   UNL     1       0.465   0.352  22.472  0.00  0.00    +0.128 C 
ATOM     23  C   UNL     1       2.912   0.288  22.799  0.00  0.00    +0.303 C 
ATOM     37  H   UNL     1       3.767  -0.089  24.679  0.00  0.00    +0.150 HD
ENDROOT
BRANCH  18  11
ATOM     11  C   UNL     1      -3.397  -1.004  23.888  0.00  0.00    +0.075 C 
ATOM     12  C   UNL     1      -4.552  -1.637  24.667  0.00  0.00    +0.013 C 
ATOM     13  C   UNL     1      -2.733  -1.980  22.914  0.00  0.00    +0.013 C 
ATOM     14  C   UNL     1      -4.189  -2.986  25.285  0.00  0.00    +0.001 C 
ATOM     15  C   UNL     1      -2.404  -3.335  23.541  0.00  0.00    +0.001 C 
ATOM     17  C   UNL     1      -3.610  -3.942  24.248  0.00  0.00    +0.000 C 
ENDBRANCH  18  11
BRANCH  16  22
ATOM      2  O   UNL     1       0.639   2.446  25.964  0.00  0.00    -0.274 OA
ATOM      8  N   UNL     1      -1.338   2.257  24.751  0.00  0.00    -0.301 N 
ATOM     22  C   UNL     1      -0.191   1.775  25.357  0.00  0.00    +0.236 C 
ATOM     36  H   UNL     1      -1.972   1.605  24.296  0.00  0.00    +0.150 HD
BRANCH   8  24
ATOM     24  C   UNL     1      -1.708   3.654  24.757  0.00  0.00    +0.186 C 
BRANCH  24  27
ATOM      5  O   UNL     1       0.183   4.136  23.330  0.00  0.00    -0.249 OA
ATOM     27  C   UNL     1      -0.617   4.539  24.170  0.00  0.00    +0.328 C 
BRANCH  27   4
ATOM      4  O   UNL     1      -0.634   5.795  24.698  0.00  0.00    -0.467 OA
ATOM     34  C   UNL     1      -1.885   6.221  25.248  0.00  0.00    +0.280 C 
ENDBRANCH  27   4
ENDBRANCH  24  27
BRANCH  24  26
ATOM     26  C   UNL     1      -3.066   3.888  24.077  0.00  0.00    +0.070 C 
BRANCH  26  28
ATOM     10  N   UNL     1      -5.712   3.042  26.656  0.00  0.00    -0.263 NA
ATOM     28  C   UNL     1      -4.236   3.207  24.749  0.00  0.00    -0.027 A 
ATOM     31  C   UNL     1      -4.903   2.155  24.132  0.00  0.00    +0.006 A 
ATOM     32  C   UNL     1      -4.675   3.609  26.000  0.00  0.00    +0.114 A 
ATOM     33  C   UNL     1      -5.976   1.547  24.775  0.00  0.00    +0.020 A 
ATOM     35  C   UNL     1      -6.338   2.023  26.024  0.00  0.00    +0.111 A 
ENDBRANCH  26  28
ENDBRANCH  24  26
ENDBRANCH   8  24
ENDBRANCH  16  22
BRANCH   9  25
ATOM     25  C   UNL     1       5.342   0.164  23.306  0.00  0.00    +0.068 C 
ATOM     29  C   UNL     1       5.988  -1.211  23.407  0.00  0.00    +0.027 C 
ATOM     30  C   UNL     1       6.090   1.189  24.151  0.00  0.00    +0.027 C 
ENDBRANCH   9  25
TORSDOF 8
ENDMDL
MODEL 5
REMARK VINA RESULT:       6.4      2.327      6.446
REMARK  Name = 7052042
REMARK  11 active torsions:
REMARK  status: ('A' for Active; 'I' for Inactive)
REMARK    1  A    between atoms: O_4  and  C_27
REMARK    2  A    between atoms: O_4  and  C_34
REMARK    3  A    between atoms: N_8  and  C_24
REMARK    4  A    between atoms: N_9  and  C_25
REMARK    5  A    between atoms: C_11  and  C_18
REMARK    6  A    between atoms: C_16  and  C_22
REMARK    7  A    between atoms: C_24  and  C_26
REMARK    8  A    between atoms: C_24  and  C_27
REMARK    9  A    between atoms: C_25  and  C_29
REMARK   10  A    between atoms: C_25  and  C_30
REMARK   11  A    between atoms: C_26  and  C_28
REMARK                            x       y       z     vdW  Elec       q    Type
REMARK                         _______ _______ _______ _____ _____    ______ ____
ROOT
ATOM      1  O   UNL     1       2.063  -2.246  24.739  0.00  0.00    -0.275 OA
ATOM      3  O   UNL     1      -1.729   3.840  23.163  0.00  0.00    -0.253 OA
ATOM      6  N   UNL     1       1.178  -0.243  23.952  0.00  0.00    -0.287 N 
ATOM      7  N   UNL     1      -0.632   2.046  24.149  0.00  0.00    -0.282 N 
ATOM      9  N   UNL     1      -1.872   3.580  25.446  0.00  0.00    -0.297 N 
ATOM     16  C   UNL     1       0.196  -0.162  25.033  0.00  0.00    +0.179 C 
ATOM     18  C   UNL     1       2.088  -1.304  23.941  0.00  0.00    +0.219 C 
ATOM     19  C   UNL     1       1.220   0.871  22.999  0.00  0.00    +0.127 C 
ATOM     20  C   UNL     1      -0.266   1.262  25.339  0.00  0.00    +0.141 C 
ATOM     21  C   UNL     1      -0.120   1.579  22.863  0.00  0.00    +0.128 C 
ATOM     23  C   UNL     1      -1.436   3.201  24.179  0.00  0.00    +0.303 C 
ATOM     37  H   UNL     1      -1.625   3.039  26.264  0.00  0.00    +0.150 HD
ENDROOT
BRANCH  18  11
ATOM     11  C   UNL     1       3.144  -1.268  22.874  0.00  0.00    +0.075 C 
ATOM     12  C   UNL     1       4.469  -1.795  23.426  0.00  0.00    +0.013 C 
ATOM     13  C   UNL     1       3.269   0.134  22.272  0.00  0.00    +0.013 C 
ATOM     14  C   UNL     1       5.186  -0.791  24.327  0.00  0.00    +0.001 C 
ATOM     15  C   UNL     1       4.013   1.118  23.174  0.00  0.00    +0.001 C 
ATOM     17  C   UNL     1       5.353   0.561  23.641  0.00  0.00    +0.000 C 
ENDBRANCH  18  11
BRANCH  16  22
ATOM      2  O   UNL     1      -0.829  -2.042  23.971  0.00  0.00    -0.274 OA
ATOM      8  N   UNL     1      -2.167  -0.551  25.156  0.00  0.00    -0.301 N 
ATOM     22  C   UNL     1      -0.969  -1.035  24.659  0.00  0.00    +0.236 C 
ATOM     36  H   UNL     1      -2.170   0.311  25.695  0.00  0.00    +0.150 HD
BRANCH   8  24
ATOM     24  C   UNL     1      -3.439  -1.195  24.918  0.00  0.00    +0.186 C 
BRANCH  24  27
ATOM      5  O   UNL     1      -3.067  -3.148  26.292  0.00  0.00    -0.249 OA
ATOM     27  C   UNL     1      -3.386  -2.691  25.199  0.00  0.00    +0.328 C 
BRANCH  27   4
ATOM      4  O   UNL     1      -3.712  -3.431  24.102  0.00  0.00    -0.467 OA
ATOM     34  C   UNL     1      -4.525  -2.771  23.126  0.00  0.00    +0.280 C 
ENDBRANCH  27   4
ENDBRANCH  24  27
BRANCH  24  26
ATOM     26  C   UNL     1      -4.579  -0.507  25.684  0.00  0.00    +0.070 C 
BRANCH  26  28
ATOM     10  N   UNL     1      -4.534   2.693  23.651  0.00  0.00    -0.263 NA
ATOM     28  C   UNL     1      -4.858   0.917  25.258  0.00  0.00    -0.027 A 
ATOM     31  C   UNL     1      -5.657   1.752  26.032  0.00  0.00    +0.006 A 
ATOM     32  C   UNL     1      -4.325   1.431  24.088  0.00  0.00    +0.114 A 
ATOM     33  C   UNL     1      -5.895   3.058  25.616  0.00  0.00    +0.020 A 
ATOM     35  C   UNL     1      -5.316   3.476  24.429  0.00  0.00    +0.111 A 
ENDBRANCH  26  28
ENDBRANCH  24  26
ENDBRANCH   8  24
ENDBRANCH  16  22
BRANCH   9  25
ATOM     25  C   UNL     1      -2.697   4.747  25.663  0.00  0.00    +0.068 C 
ATOM     29  C   UNL     1      -1.920   6.014  25.333  0.00  0.00    +0.027 C 
ATOM     30  C   UNL     1      -3.217   4.774  27.095  0.00  0.00    +0.027 C 
ENDBRANCH   9  25
TORSDOF 8
ENDMDL
MODEL 6
REMARK VINA RESULT:       6.4      1.969      5.938
REMARK  Name = 7052042
REMARK  11 active torsions:
REMARK  status: ('A' for Active; 'I' for Inactive)
REMARK    1  A    between atoms: O_4  and  C_27
REMARK    2  A    between atoms: O_4  and  C_34
REMARK    3  A    between atoms: N_8  and  C_24
REMARK    4  A    between atoms: N_9  and  C_25
REMARK    5  A    between atoms: C_11  and  C_18
REMARK    6  A    between atoms: C_16  and  C_22
REMARK    7  A    between atoms: C_24  and  C_26
REMARK    8  A    between atoms: C_24  and  C_27
REMARK    9  A    between atoms: C_25  and  C_29
REMARK   10  A    between atoms: C_25  and  C_30
REMARK   11  A    between atoms: C_26  and  C_28
REMARK                            x       y       z     vdW  Elec       q    Type
REMARK                         _______ _______ _______ _____ _____    ______ ____
ROOT
ATOM      1  O   UNL     1      -2.994   3.352  22.404  0.00  0.00    -0.275 OA
ATOM      3  O   UNL     1       0.143   2.210  28.943  0.00  0.00    -0.253 OA
ATOM      6  N   UNL     1      -2.370   3.151  24.636  0.00  0.00    -0.287 N 
ATOM      7  N   UNL     1      -0.385   2.755  26.747  0.00  0.00    -0.282 N 
ATOM      9  N   UNL     1       1.820   2.969  27.560  0.00  0.00    -0.297 N 
ATOM     16  C   UNL     1      -0.975   2.866  24.301  0.00  0.00    +0.179 C 
ATOM     18  C   UNL     1      -3.273   3.426  23.604  0.00  0.00    +0.219 C 
ATOM     19  C   UNL     1      -2.713   3.243  26.059  0.00  0.00    +0.127 C 
ATOM     20  C   UNL     1       0.010   3.229  25.412  0.00  0.00    +0.141 C 
ATOM     21  C   UNL     1      -1.792   2.413  26.942  0.00  0.00    +0.128 C 
ATOM     23  C   UNL     1       0.503   2.612  27.831  0.00  0.00    +0.303 C 
ATOM     37  H   UNL     1       2.094   3.291  26.641  0.00  0.00    +0.150 HD
ENDROOT
BRANCH  18  11
ATOM     11  C   UNL     1      -4.660   3.824  24.019  0.00  0.00    +0.075 C 
ATOM     12  C   UNL     1      -4.679   4.194  25.503  0.00  0.00    +0.013 C 
ATOM     13  C   UNL     1      -5.674   2.733  23.667  0.00  0.00    +0.013 C 
ATOM     14  C   UNL     1      -4.632   2.976  26.425  0.00  0.00    +0.001 C 
ATOM     15  C   UNL     1      -5.632   1.536  24.616  0.00  0.00    +0.001 C 
ATOM     17  C   UNL     1      -5.718   1.965  26.076  0.00  0.00    +0.000 C 
ENDBRANCH  18  11
BRANCH  16  22
ATOM      2  O   UNL     1      -1.608   0.892  23.113  0.00  0.00    -0.274 OA
ATOM      8  N   UNL     1       0.092   0.755  24.697  0.00  0.00    -0.301 N 
ATOM     22  C   UNL     1      -0.877   1.407  23.953  0.00  0.00    +0.236 C 
ATOM     36  H   UNL     1       0.625   1.278  25.387  0.00  0.00    +0.150 HD
BRANCH   8  24
ATOM     24  C   UNL     1       0.370  -0.657  24.568  0.00  0.00    +0.186 C 
BRANCH  24  27
ATOM      5  O   UNL     1      -1.203  -2.381  23.938  0.00  0.00    -0.249 OA
ATOM     27  C   UNL     1      -0.884  -1.505  24.737  0.00  0.00    +0.328 C 
BRANCH  27   4
ATOM      4  O   UNL     1      -1.592  -1.161  25.849  0.00  0.00    -0.467 OA
ATOM     34  C   UNL     1      -3.011  -1.087  25.684  0.00  0.00    +0.280 C 
ENDBRANCH  27   4
ENDBRANCH  24  27
BRANCH  24  26
ATOM     26  C   UNL     1       1.108  -0.977  23.260  0.00  0.00    +0.070 C 
BRANCH  26  28
ATOM     10  N   UNL     1       4.864  -1.051  23.778  0.00  0.00    -0.263 NA
ATOM     28  C   UNL     1       2.561  -0.557  23.235  0.00  0.00    -0.027 A 
ATOM     31  C   UNL     1       2.945   0.658  22.677  0.00  0.00    +0.006 A 
ATOM     32  C   UNL     1       3.549  -1.368  23.767  0.00  0.00    +0.114 A 
ATOM     33  C   UNL     1       4.288   1.018  22.669  0.00  0.00    +0.020 A 
ATOM     35  C   UNL     1       5.199   0.137  23.227  0.00  0.00    +0.111 A 
ENDBRANCH  26  28
ENDBRANCH  24  26
ENDBRANCH   8  24
ENDBRANCH  16  22
BRANCH   9  25
ATOM     25  C   UNL     1       2.862   2.895  28.560  0.00  0.00    +0.068 C 
ATOM     29  C   UNL     1       2.449   1.956  29.686  0.00  0.00    +0.027 C 
ATOM     30  C   UNL     1       3.191   4.284  29.093  0.00  0.00    +0.027 C 
ENDBRANCH   9  25
TORSDOF 8
ENDMDL
MODEL 7
REMARK VINA RESULT:       7.8      2.100      4.460
REMARK  Name = 7052042
REMARK  11 active torsions:
REMARK  status: ('A' for Active; 'I' for Inactive)
REMARK    1  A    between atoms: O_4  and  C_27
REMARK    2  A    between atoms: O_4  and  C_34
REMARK    3  A    between atoms: N_8  and  C_24
REMARK    4  A    between atoms: N_9  and  C_25
REMARK    5  A    between atoms: C_11  and  C_18
REMARK    6  A    between atoms: C_16  and  C_22
REMARK    7  A    between atoms: C_24  and  C_26
REMARK    8  A    between atoms: C_24  and  C_27
REMARK    9  A    between atoms: C_25  and  C_29
REMARK   10  A    between atoms: C_25  and  C_30
REMARK   11  A    between atoms: C_26  and  C_28
REMARK                            x       y       z     vdW  Elec       q    Type
REMARK                         _______ _______ _______ _____ _____    ______ ____
ROOT
ATOM      1  O   UNL     1      -3.494   2.463  22.892  0.00  0.00    -0.275 OA
ATOM      3  O   UNL     1       3.491   1.093  24.692  0.00  0.00    -0.253 OA
ATOM      6  N   UNL     1      -1.264   2.452  23.555  0.00  0.00    -0.287 N 
ATOM      7  N   UNL     1       1.387   1.227  23.716  0.00  0.00    -0.282 N 
ATOM      9  N   UNL     1       3.059  -0.178  22.822  0.00  0.00    -0.297 N 
ATOM     16  C   UNL     1      -1.035   1.105  23.035  0.00  0.00    +0.179 C 
ATOM     18  C   UNL     1      -2.520   3.042  23.379  0.00  0.00    +0.219 C 
ATOM     19  C   UNL     1      -0.113   3.153  24.136  0.00  0.00    +0.127 C 
ATOM     20  C   UNL     1       0.425   0.823  22.680  0.00  0.00    +0.141 C 
ATOM     21  C   UNL     1       0.929   2.201  24.705  0.00  0.00    +0.128 C 
ATOM     23  C   UNL     1       2.703   0.736  23.809  0.00  0.00    +0.303 C 
ATOM     37  H   UNL     1       2.396  -0.461  22.112  0.00  0.00    +0.150 HD
ENDROOT
BRANCH  18  11
ATOM     11  C   UNL     1      -2.656   4.468  23.830  0.00  0.00    +0.075 C 
ATOM     12  C   UNL     1      -1.772   4.720  25.053  0.00  0.00    +0.013 C 
ATOM     13  C   UNL     1      -4.123   4.829  24.076  0.00  0.00    +0.013 C 
ATOM     14  C   UNL     1      -2.351   4.139  26.342  0.00  0.00    +0.001 C 
ATOM     15  C   UNL     1      -4.678   4.263  25.383  0.00  0.00    +0.001 C 
ATOM     17  C   UNL     1      -3.785   4.600  26.572  0.00  0.00    +0.000 C 
ENDBRANCH  18  11
BRANCH  16  22
ATOM      2  O   UNL     1      -0.878  -0.155  25.060  0.00  0.00    -0.274 OA
ATOM      8  N   UNL     1      -2.769  -0.401  23.726  0.00  0.00    -0.301 N 
ATOM     22  C   UNL     1      -1.534   0.127  24.062  0.00  0.00    +0.236 C 
ATOM     36  H   UNL     1      -3.213  -0.114  22.857  0.00  0.00    +0.150 HD
BRANCH   8  24
ATOM     24  C   UNL     1      -3.457  -1.380  24.536  0.00  0.00    +0.186 C 
BRANCH  24  27
ATOM      5  O   UNL     1      -1.561  -2.661  25.317  0.00  0.00    -0.249 OA
ATOM     27  C   UNL     1      -2.635  -2.649  24.723  0.00  0.00    +0.328 C 
BRANCH  27   4
ATOM      4  O   UNL     1      -3.225  -3.733  24.145  0.00  0.00    -0.467 OA
ATOM     34  C   UNL     1      -4.455  -3.479  23.459  0.00  0.00    +0.280 C 
ENDBRANCH  27   4
ENDBRANCH  24  27
BRANCH  24  26
ATOM     26  C   UNL     1      -3.916  -0.790  25.877  0.00  0.00    +0.070 C 
BRANCH  26  28
ATOM     10  N   UNL     1      -6.359   1.938  26.859  0.00  0.00    -0.263 NA
ATOM     28  C   UNL     1      -4.955   0.303  25.765  0.00  0.00    -0.027 A 
ATOM     31  C   UNL     1      -5.463   0.683  24.528  0.00  0.00    +0.006 A 
ATOM     32  C   UNL     1      -5.431   0.955  26.890  0.00  0.00    +0.114 A 
ATOM     33  C   UNL     1      -6.419   1.690  24.455  0.00  0.00    +0.020 A 
ATOM     35  C   UNL     1      -6.830   2.281  25.638  0.00  0.00    +0.111 A 
ENDBRANCH  26  28
ENDBRANCH  24  26
ENDBRANCH   8  24
ENDBRANCH  16  22
BRANCH   9  25
ATOM     25  C   UNL     1       4.374  -0.776  22.759  0.00  0.00    +0.068 C 
ATOM     29  C   UNL     1       4.498  -1.891  23.788  0.00  0.00    +0.027 C 
ATOM     30  C   UNL     1       5.451   0.283  22.959  0.00  0.00    +0.027 C 
ENDBRANCH   9  25
TORSDOF 8
ENDMDL
