MODEL 1
REMARK VINA RESULT:      -6.5      0.000      0.000
REMARK  Name = 38027296
REMARK  14 active torsions:
REMARK  status: ('A' for Active; 'I' for Inactive)
REMARK    1  A    between atoms: N_3  and  C_16
REMARK    2  A    between atoms: N_4  and  C_13
REMARK    3  A    between atoms: C_5  and  C_9
REMARK    4  A    between atoms: C_6  and  C_13
REMARK    5  A    between atoms: C_8  and  C_12
REMARK    6  A    between atoms: C_9  and  C_14
REMARK    7  A    between atoms: C_9  and  C_15
REMARK    8  A    between atoms: C_10  and  C_17
REMARK    9  A    between atoms: C_12  and  C_20
REMARK   10  A    between atoms: C_23  and  C_24
REMARK   11  A    between atoms: C_24  and  C_25
REMARK   12  A    between atoms: C_25  and  C_26
REMARK   13  A    between atoms: C_25  and  C_27
REMARK   14  A    between atoms: C_25  and  C_28
REMARK                            x       y       z     vdW  Elec       q    Type
REMARK                         _______ _______ _______ _____ _____    ______ ____
ROOT
ATOM      5  C   UNL     1      -1.013   0.664  24.692  0.00  0.00    +0.000 C 
ATOM      6  C   UNL     1      -0.240  -0.642  24.383  0.00  0.00    +0.032 C 
ATOM      7  C   UNL     1      -2.097   0.407  25.752  0.00  0.00    +0.012 C 
ATOM      8  C   UNL     1      -3.108  -0.665  25.303  0.00  0.00    +0.023 C 
ATOM     10  C   UNL     1      -2.417  -1.886  24.733  0.00  0.00    -0.073 C 
ATOM     11  C   UNL     1      -1.132  -1.861  24.340  0.00  0.00    -0.022 C 
ATOM     17  C   UNL     1      -3.226  -3.152  24.667  0.00  0.00    +0.039 C 
ENDROOT
BRANCH   5   9
ATOM      9  C   UNL     1      -0.078   1.780  25.166  0.00  0.00    -0.013 C 
ATOM     14  C   UNL     1      -0.141   2.969  24.212  0.00  0.00    +0.007 C 
ATOM     15  C   UNL     1      -0.437   2.208  26.586  0.00  0.00    +0.007 C 
ENDBRANCH   5   9
BRANCH   8  12
ATOM     12  C   UNL     1      -4.118  -0.089  24.304  0.00  0.00    +0.103 C 
BRANCH  12  20
ATOM      1  O   UNL     1      -5.659   1.235  25.619  0.00  0.00    -0.276 OA
ATOM      3  N   UNL     1      -4.145   2.299  24.215  0.00  0.00    -0.312 N 
ATOM     20  C   UNL     1      -4.743   1.195  24.803  0.00  0.00    +0.214 C 
ATOM     29  H   UNL     1      -3.359   2.155  23.587  0.00  0.00    +0.149 HD
BRANCH   3  16
ATOM     16  C   UNL     1      -4.542   3.656  24.503  0.00  0.00    +0.073 C 
ATOM     18  C   UNL     1      -3.487   4.659  24.050  0.00  0.00    +0.022 C 
ATOM     19  C   UNL     1      -4.633   3.916  26.002  0.00  0.00    +0.022 C 
ATOM     21  C   UNL     1      -2.456   4.665  25.174  0.00  0.00    +0.002 C 
ATOM     22  C   UNL     1      -3.202   4.228  26.437  0.00  0.00    +0.002 C 
ENDBRANCH   3  16
ENDBRANCH  12  20
ENDBRANCH   8  12
BRANCH   6  13
ATOM     13  C   UNL     1       0.534  -0.528  23.066  0.00  0.00    +0.112 C 
BRANCH  13   4
ATOM      2  O   UNL     1       2.638  -0.147  21.113  0.00  0.00    -0.276 OA
ATOM      4  N   UNL     1       1.821   0.055  23.282  0.00  0.00    -0.315 N 
ATOM     23  C   UNL     1       2.782   0.203  22.282  0.00  0.00    +0.214 C 
ATOM     30  H   UNL     1       2.037   0.382  24.219  0.00  0.00    +0.149 HD
BRANCH  23  24
ATOM     24  C   UNL     1       4.070   0.845  22.769  0.00  0.00    +0.102 C 
BRANCH  24  25
ATOM     25  C   UNL     1       5.052  -0.126  23.466  0.00  0.00    -0.029 C 
ATOM     26  C   UNL     1       6.285  -0.396  22.586  0.00  0.00    +0.011 C 
ATOM     27  C   UNL     1       5.526   0.532  24.778  0.00  0.00    +0.011 C 
ATOM     28  C   UNL     1       4.374  -1.463  23.811  0.00  0.00    +0.011 C 
ENDBRANCH  24  25
ENDBRANCH  23  24
ENDBRANCH  13   4
ENDBRANCH   6  13
TORSDOF 8
ENDMDL
MODEL 2
REMARK VINA RESULT:      -4.9      1.220      7.174
REMARK  Name = 38027296
REMARK  14 active torsions:
REMARK  status: ('A' for Active; 'I' for Inactive)
REMARK    1  A    between atoms: N_3  and  C_16
REMARK    2  A    between atoms: N_4  and  C_13
REMARK    3  A    between atoms: C_5  and  C_9
REMARK    4  A    between atoms: C_6  and  C_13
REMARK    5  A    between atoms: C_8  and  C_12
REMARK    6  A    between atoms: C_9  and  C_14
REMARK    7  A    between atoms: C_9  and  C_15
REMARK    8  A    between atoms: C_10  and  C_17
REMARK    9  A    between atoms: C_12  and  C_20
REMARK   10  A    between atoms: C_23  and  C_24
REMARK   11  A    between atoms: C_24  and  C_25
REMARK   12  A    between atoms: C_25  and  C_26
REMARK   13  A    between atoms: C_25  and  C_27
REMARK   14  A    between atoms: C_25  and  C_28
REMARK                            x       y       z     vdW  Elec       q    Type
REMARK                         _______ _______ _______ _____ _____    ______ ____
ROOT
ATOM      5  C   UNL     1      -2.393  -1.100  24.266  0.00  0.00    +0.000 C 
ATOM      6  C   UNL     1      -2.954  -0.300  25.467  0.00  0.00    +0.032 C 
ATOM      7  C   UNL     1      -0.897  -1.391  24.469  0.00  0.00    +0.012 C 
ATOM      8  C   UNL     1      -0.069  -0.102  24.627  0.00  0.00    +0.023 C 
ATOM     10  C   UNL     1      -0.709   0.861  25.606  0.00  0.00    -0.073 C 
ATOM     11  C   UNL     1      -1.995   0.749  25.980  0.00  0.00    -0.022 C 
ATOM     17  C   UNL     1       0.178   1.930  26.181  0.00  0.00    +0.039 C 
ENDROOT
BRANCH   5   9
ATOM      9  C   UNL     1      -3.152  -2.412  24.051  0.00  0.00    -0.013 C 
ATOM     14  C   UNL     1      -3.238  -3.198  25.356  0.00  0.00    +0.007 C 
ATOM     15  C   UNL     1      -4.546  -2.136  23.495  0.00  0.00    +0.007 C 
ENDBRANCH   5   9
BRANCH   8  12
ATOM     12  C   UNL     1       0.171   0.572  23.271  0.00  0.00    +0.103 C 
BRANCH  12  20
ATOM      1  O   UNL     1       1.142  -0.596  21.387  0.00  0.00    -0.276 OA
ATOM      3  N   UNL     1       2.478  -0.050  23.208  0.00  0.00    -0.312 N 
ATOM     20  C   UNL     1       1.289  -0.091  22.497  0.00  0.00    +0.214 C 
ATOM     29  H   UNL     1       2.499   0.437  24.100  0.00  0.00    +0.149 HD
BRANCH   3  16
ATOM     16  C   UNL     1       3.711  -0.610  22.713  0.00  0.00    +0.073 C 
ATOM     18  C   UNL     1       4.424  -1.434  23.779  0.00  0.00    +0.022 C 
ATOM     19  C   UNL     1       4.735   0.471  22.383  0.00  0.00    +0.022 C 
ATOM     21  C   UNL     1       5.168  -0.406  24.625  0.00  0.00    +0.002 C 
ATOM     22  C   UNL     1       5.405   0.801  23.716  0.00  0.00    +0.002 C 
ENDBRANCH   3  16
ENDBRANCH  12  20
ENDBRANCH   8  12
BRANCH   6  13
ATOM     13  C   UNL     1      -4.292   0.359  25.116  0.00  0.00    +0.112 C 
BRANCH  13   4
ATOM      2  O   UNL     1      -3.256   1.946  22.925  0.00  0.00    -0.276 OA
ATOM      4  N   UNL     1      -4.160   1.781  25.063  0.00  0.00    -0.315 N 
ATOM     23  C   UNL     1      -3.649   2.472  23.965  0.00  0.00    +0.214 C 
ATOM     30  H   UNL     1      -4.463   2.311  25.875  0.00  0.00    +0.149 HD
BRANCH  23  24
ATOM     24  C   UNL     1      -3.605   3.978  24.162  0.00  0.00    +0.102 C 
BRANCH  24  25
ATOM     25  C   UNL     1      -2.403   4.486  24.992  0.00  0.00    -0.029 C 
ATOM     26  C   UNL     1      -1.076   3.934  24.442  0.00  0.00    +0.011 C 
ATOM     27  C   UNL     1      -2.368   6.024  24.893  0.00  0.00    +0.011 C 
ATOM     28  C   UNL     1      -2.537   4.098  26.474  0.00  0.00    +0.011 C 
ENDBRANCH  24  25
ENDBRANCH  23  24
ENDBRANCH  13   4
ENDBRANCH   6  13
TORSDOF 8
ENDMDL
MODEL 3
REMARK VINA RESULT:      -2.6      1.463      3.372
REMARK  Name = 38027296
REMARK  14 active torsions:
REMARK  status: ('A' for Active; 'I' for Inactive)
REMARK    1  A    between atoms: N_3  and  C_16
REMARK    2  A    between atoms: N_4  and  C_13
REMARK    3  A    between atoms: C_5  and  C_9
REMARK    4  A    between atoms: C_6  and  C_13
REMARK    5  A    between atoms: C_8  and  C_12
REMARK    6  A    between atoms: C_9  and  C_14
REMARK    7  A    between atoms: C_9  and  C_15
REMARK    8  A    between atoms: C_10  and  C_17
REMARK    9  A    between atoms: C_12  and  C_20
REMARK   10  A    between atoms: C_23  and  C_24
REMARK   11  A    between atoms: C_24  and  C_25
REMARK   12  A    between atoms: C_25  and  C_26
REMARK   13  A    between atoms: C_25  and  C_27
REMARK   14  A    between atoms: C_25  and  C_28
REMARK                            x       y       z     vdW  Elec       q    Type
REMARK                         _______ _______ _______ _____ _____    ______ ____
ROOT
ATOM      5  C   UNL     1      -3.154  -0.634  24.881  0.00  0.00    +0.000 C 
ATOM      6  C   UNL     1      -1.897   0.044  24.281  0.00  0.00    +0.032 C 
ATOM      7  C   UNL     1      -4.377  -0.384  23.985  0.00  0.00    +0.012 C 
ATOM      8  C   UNL     1      -4.670   1.117  23.806  0.00  0.00    +0.023 C 
ATOM     10  C   UNL     1      -3.417   1.900  23.473  0.00  0.00    -0.073 C 
ATOM     11  C   UNL     1      -2.187   1.399  23.679  0.00  0.00    -0.022 C 
ATOM     17  C   UNL     1      -3.610   3.257  22.854  0.00  0.00    +0.039 C 
ENDROOT
BRANCH   5   9
ATOM      9  C   UNL     1      -2.951  -2.140  25.073  0.00  0.00    -0.013 C 
ATOM     14  C   UNL     1      -3.991  -2.923  24.278  0.00  0.00    +0.007 C 
ATOM     15  C   UNL     1      -1.539  -2.544  24.661  0.00  0.00    +0.007 C 
ENDBRANCH   5   9
BRANCH   8  12
ATOM     12  C   UNL     1      -5.367   1.697  25.044  0.00  0.00    +0.103 C 
BRANCH  12  20
ATOM      1  O   UNL     1      -5.262   4.097  25.334  0.00  0.00    -0.276 OA
ATOM      3  N   UNL     1      -3.510   2.774  26.095  0.00  0.00    -0.312 N 
ATOM     20  C   UNL     1      -4.739   2.997  25.493  0.00  0.00    +0.214 C 
ATOM     29  H   UNL     1      -3.193   1.817  26.220  0.00  0.00    +0.149 HD
BRANCH   3  16
ATOM     16  C   UNL     1      -2.685   3.835  26.618  0.00  0.00    +0.073 C 
ATOM     18  C   UNL     1      -2.761   5.087  25.753  0.00  0.00    +0.022 C 
ATOM     19  C   UNL     1      -1.203   3.481  26.568  0.00  0.00    +0.022 C 
ATOM     21  C   UNL     1      -1.789   4.822  24.608  0.00  0.00    +0.002 C 
ATOM     22  C   UNL     1      -0.763   3.822  25.145  0.00  0.00    +0.002 C 
ENDBRANCH   3  16
ENDBRANCH  12  20
ENDBRANCH   8  12
BRANCH   6  13
ATOM     13  C   UNL     1      -0.787   0.176  25.328  0.00  0.00    +0.112 C 
BRANCH  13   4
ATOM      2  O   UNL     1       0.639  -0.625  22.937  0.00  0.00    -0.276 OA
ATOM      4  N   UNL     1       0.373   0.792  24.763  0.00  0.00    -0.315 N 
ATOM     23  C   UNL     1       1.001   0.342  23.603  0.00  0.00    +0.214 C 
ATOM     30  H   UNL     1       0.750   1.606  25.239  0.00  0.00    +0.149 HD
BRANCH  23  24
ATOM     24  C   UNL     1       2.220   1.164  23.215  0.00  0.00    +0.102 C 
BRANCH  24  25
ATOM     25  C   UNL     1       3.473   0.331  22.855  0.00  0.00    -0.029 C 
ATOM     26  C   UNL     1       3.406  -1.071  23.485  0.00  0.00    +0.011 C 
ATOM     27  C   UNL     1       3.518   0.174  21.322  0.00  0.00    +0.011 C 
ATOM     28  C   UNL     1       4.765   1.030  23.310  0.00  0.00    +0.011 C 
ENDBRANCH  24  25
ENDBRANCH  23  24
ENDBRANCH  13   4
ENDBRANCH   6  13
TORSDOF 8
ENDMDL
MODEL 4
REMARK VINA RESULT:      -2.5      1.522      6.996
REMARK  Name = 38027296
REMARK  14 active torsions:
REMARK  status: ('A' for Active; 'I' for Inactive)
REMARK    1  A    between atoms: N_3  and  C_16
REMARK    2  A    between atoms: N_4  and  C_13
REMARK    3  A    between atoms: C_5  and  C_9
REMARK    4  A    between atoms: C_6  and  C_13
REMARK    5  A    between atoms: C_8  and  C_12
REMARK    6  A    between atoms: C_9  and  C_14
REMARK    7  A    between atoms: C_9  and  C_15
REMARK    8  A    between atoms: C_10  and  C_17
REMARK    9  A    between atoms: C_12  and  C_20
REMARK   10  A    between atoms: C_23  and  C_24
REMARK   11  A    between atoms: C_24  and  C_25
REMARK   12  A    between atoms: C_25  and  C_26
REMARK   13  A    between atoms: C_25  and  C_27
REMARK   14  A    between atoms: C_25  and  C_28
REMARK                            x       y       z     vdW  Elec       q    Type
REMARK                         _______ _______ _______ _____ _____    ______ ____
ROOT
ATOM      5  C   UNL     1      -2.078   3.236  25.081  0.00  0.00    +0.000 C 
ATOM      6  C   UNL     1      -3.356   3.155  24.210  0.00  0.00    +0.032 C 
ATOM      7  C   UNL     1      -0.834   3.394  24.193  0.00  0.00    +0.012 C 
ATOM      8  C   UNL     1      -0.675   2.227  23.201  0.00  0.00    +0.023 C 
ATOM     10  C   UNL     1      -1.976   1.909  22.492  0.00  0.00    -0.073 C 
ATOM     11  C   UNL     1      -3.163   2.344  22.950  0.00  0.00    -0.022 C 
ATOM     17  C   UNL     1      -1.877   1.119  21.217  0.00  0.00    +0.039 C 
ENDROOT
BRANCH   5   9
ATOM      9  C   UNL     1      -2.148   4.390  26.086  0.00  0.00    -0.013 C 
ATOM     14  C   UNL     1      -1.984   5.729  25.372  0.00  0.00    +0.007 C 
ATOM     15  C   UNL     1      -3.463   4.346  26.857  0.00  0.00    +0.007 C 
ENDBRANCH   5   9
BRANCH   8  12
ATOM     12  C   UNL     1      -0.111   0.982  23.896  0.00  0.00    +0.103 C 
BRANCH  12  20
ATOM      1  O   UNL     1       0.464  -0.674  22.228  0.00  0.00    -0.276 OA
ATOM      3  N   UNL     1       2.140   0.625  23.178  0.00  0.00    -0.312 N 
ATOM     20  C   UNL     1       0.830   0.207  23.001  0.00  0.00    +0.214 C 
ATOM     29  H   UNL     1       2.326   1.399  23.810  0.00  0.00    +0.149 HD
BRANCH   3  16
ATOM     16  C   UNL     1       3.251   0.059  22.454  0.00  0.00    +0.073 C 
ATOM     18  C   UNL     1       3.826  -1.158  23.168  0.00  0.00    +0.022 C 
ATOM     19  C   UNL     1       4.441   1.011  22.402  0.00  0.00    +0.022 C 
ATOM     21  C   UNL     1       4.748  -0.578  24.236  0.00  0.00    +0.002 C 
ATOM     22  C   UNL     1       5.176   0.799  23.724  0.00  0.00    +0.002 C 
ENDBRANCH   3  16
ENDBRANCH  12  20
ENDBRANCH   8  12
BRANCH   6  13
ATOM     13  C   UNL     1      -4.534   2.586  25.008  0.00  0.00    +0.112 C 
BRANCH  13   4
ATOM      2  O   UNL     1      -2.945   0.273  25.725  0.00  0.00    -0.276 OA
ATOM      4  N   UNL     1      -4.778   1.224  24.652  0.00  0.00    -0.315 N 
ATOM     23  C   UNL     1      -3.960   0.164  25.040  0.00  0.00    +0.214 C 
ATOM     30  H   UNL     1      -5.600   1.026  24.089  0.00  0.00    +0.149 HD
BRANCH  23  24
ATOM     24  C   UNL     1      -4.431  -1.187  24.526  0.00  0.00    +0.102 C 
BRANCH  24  25
ATOM     25  C   UNL     1      -3.397  -2.328  24.666  0.00  0.00    -0.029 C 
ATOM     26  C   UNL     1      -3.196  -2.716  26.141  0.00  0.00    +0.011 C 
ATOM     27  C   UNL     1      -3.936  -3.558  23.909  0.00  0.00    +0.011 C 
ATOM     28  C   UNL     1      -2.041  -1.939  24.055  0.00  0.00    +0.011 C 
ENDBRANCH  24  25
ENDBRANCH  23  24
ENDBRANCH  13   4
ENDBRANCH   6  13
TORSDOF 8
ENDMDL
