MODEL 1
REMARK VINA RESULT:      -4.5      0.000      0.000
REMARK  Name = 11943051
REMARK  3 active torsions:
REMARK  status: ('A' for Active; 'I' for Inactive)
REMARK    1  A    between atoms: N_4  and  C_13
REMARK    2  A    between atoms: C_7  and  C_13
REMARK    3  A    between atoms: C_8  and  C_14
REMARK                            x       y       z     vdW  Elec       q    Type
REMARK                         _______ _______ _______ _____ _____    ______ ____
ROOT
ATOM     13  C   UNL     1      -0.111  -0.554  24.945  0.00  0.00    +0.124 C 
ENDROOT
BRANCH  13   4
ATOM      1  O   UNL     1      -2.037   5.552  25.592  0.00  0.00    -0.377 OA
ATOM      2  O   UNL     1       0.759   1.885  23.846  0.00  0.00    -0.253 OA
ATOM      4  N   UNL     1      -0.584   0.758  25.326  0.00  0.00    -0.298 N 
ATOM      5  N   UNL     1      -0.652   3.118  25.213  0.00  0.00    -0.281 N 
ATOM     16  C   UNL     1      -0.101   1.918  24.732  0.00  0.00    +0.302 C 
ATOM     17  C   UNL     1      -1.675   3.244  26.261  0.00  0.00    +0.137 C 
ATOM     18  C   UNL     1      -0.083   4.393  24.769  0.00  0.00    +0.137 C 
ATOM     19  C   UNL     1      -2.692   4.321  25.900  0.00  0.00    +0.179 C 
ATOM     20  C   UNL     1      -1.179   5.400  24.460  0.00  0.00    +0.179 C 
ATOM     21  H   UNL     1      -1.229   0.794  26.103  0.00  0.00    +0.150 HD
ENDBRANCH  13   4
BRANCH  13   7
ATOM      3  N   UNL     1      -1.939  -1.844  23.812  0.00  0.00    -0.297 NA
ATOM      6  C   UNL     1      -3.649  -1.493  25.739  0.00  0.00    -0.000 C 
ATOM      7  C   UNL     1      -1.221  -1.598  25.091  0.00  0.00    +0.074 C 
ATOM      8  C   UNL     1      -3.962  -0.552  24.552  0.00  0.00    +0.028 C 
ATOM      9  C   UNL     1      -2.209  -1.231  26.220  0.00  0.00    +0.024 C 
ATOM     10  C   UNL     1      -3.702  -2.935  25.201  0.00  0.00    +0.019 C 
ATOM     11  C   UNL     1      -2.838  -0.706  23.499  0.00  0.00    +0.092 C 
ATOM     12  C   UNL     1      -2.772  -3.058  23.982  0.00  0.00    +0.085 C 
BRANCH   8  14
ATOM     14  C   UNL     1      -4.140   0.876  24.971  0.00  0.00    -0.030 C 
ATOM     15  C   UNL     1      -5.313   1.518  24.960  0.00  0.00    +0.004 C 
ENDBRANCH   8  14
ENDBRANCH  13   7
TORSDOF 3
ENDMDL
MODEL 2
REMARK VINA RESULT:      -4.5     14.494     17.412
REMARK  Name = 11943051
REMARK  3 active torsions:
REMARK  status: ('A' for Active; 'I' for Inactive)
REMARK    1  A    between atoms: N_4  and  C_13
REMARK    2  A    between atoms: C_7  and  C_13
REMARK    3  A    between atoms: C_8  and  C_14
REMARK                            x       y       z     vdW  Elec       q    Type
REMARK                         _______ _______ _______ _____ _____    ______ ____
ROOT
ATOM     13  C   UNL     1      -7.476 -10.721  12.121  0.00  0.00    +0.124 C 
ENDROOT
BRANCH  13   4
ATOM      1  O   UNL     1      -5.130 -10.244  18.094  0.00  0.00    -0.377 OA
ATOM      2  O   UNL     1      -8.651 -10.308  14.643  0.00  0.00    -0.253 OA
ATOM      4  N   UNL     1      -6.761 -10.496  13.357  0.00  0.00    -0.298 N 
ATOM      5  N   UNL     1      -6.587 -10.086  15.678  0.00  0.00    -0.281 N 
ATOM     16  C   UNL     1      -7.418 -10.299  14.566  0.00  0.00    +0.302 C 
ATOM     17  C   UNL     1      -5.118 -10.060  15.671  0.00  0.00    +0.137 C 
ATOM     18  C   UNL     1      -7.191  -9.702  16.957  0.00  0.00    +0.137 C 
ATOM     19  C   UNL     1      -4.556 -10.771  16.898  0.00  0.00    +0.179 C 
ATOM     20  C   UNL     1      -6.543 -10.449  18.112  0.00  0.00    +0.179 C 
ATOM     21  H   UNL     1      -5.756 -10.410  13.285  0.00  0.00    +0.150 HD
ENDBRANCH  13   4
BRANCH  13   7
ATOM      3  N   UNL     1      -6.788 -10.183   9.770  0.00  0.00    -0.297 NA
ATOM      6  C   UNL     1      -5.075  -8.360  10.480  0.00  0.00    -0.000 C 
ATOM      7  C   UNL     1      -7.159  -9.627  11.099  0.00  0.00    +0.074 C 
ATOM      8  C   UNL     1      -4.350  -9.670  10.094  0.00  0.00    +0.028 C 
ATOM      9  C   UNL     1      -6.074  -8.656  11.616  0.00  0.00    +0.024 C 
ATOM     10  C   UNL     1      -5.890  -7.912   9.253  0.00  0.00    +0.019 C 
ATOM     11  C   UNL     1      -5.419 -10.754   9.814  0.00  0.00    +0.092 C 
ATOM     12  C   UNL     1      -6.792  -9.070   8.792  0.00  0.00    +0.085 C 
BRANCH   8  14
ATOM     14  C   UNL     1      -3.361 -10.116  11.128  0.00  0.00    -0.030 C 
ATOM     15  C   UNL     1      -2.080  -9.736  11.150  0.00  0.00    +0.004 C 
ENDBRANCH   8  14
ENDBRANCH  13   7
TORSDOF 3
ENDMDL
MODEL 3
REMARK VINA RESULT:      -3.9      2.862      4.429
REMARK  Name = 11943051
REMARK  3 active torsions:
REMARK  status: ('A' for Active; 'I' for Inactive)
REMARK    1  A    between atoms: N_4  and  C_13
REMARK    2  A    between atoms: C_7  and  C_13
REMARK    3  A    between atoms: C_8  and  C_14
REMARK                            x       y       z     vdW  Elec       q    Type
REMARK                         _______ _______ _______ _____ _____    ______ ____
ROOT
ATOM     13  C   UNL     1      -0.621   0.294  24.024  0.00  0.00    +0.124 C 
ENDROOT
BRANCH  13   4
ATOM      1  O   UNL     1       5.711  -0.610  23.316  0.00  0.00    -0.377 OA
ATOM      2  O   UNL     1       1.549   2.023  23.558  0.00  0.00    -0.253 OA
ATOM      4  N   UNL     1       0.738  -0.115  23.746  0.00  0.00    -0.298 N 
ATOM      5  N   UNL     1       3.021   0.255  23.261  0.00  0.00    -0.281 N 
ATOM     16  C   UNL     1       1.756   0.805  23.526  0.00  0.00    +0.302 C 
ATOM     17  C   UNL     1       3.351  -1.176  23.206  0.00  0.00    +0.137 C 
ATOM     18  C   UNL     1       4.113   1.141  22.850  0.00  0.00    +0.137 C 
ATOM     19  C   UNL     1       4.697  -1.450  23.867  0.00  0.00    +0.179 C 
ATOM     20  C   UNL     1       5.411   0.767  23.548  0.00  0.00    +0.179 C 
ATOM     21  H   UNL     1       0.895  -1.108  23.642  0.00  0.00    +0.150 HD
ENDBRANCH  13   4
BRANCH  13   7
ATOM      3  N   UNL     1      -2.430  -1.406  23.672  0.00  0.00    -0.297 NA
ATOM      6  C   UNL     1      -3.535  -0.998  25.990  0.00  0.00    -0.000 C 
ATOM      7  C   UNL     1      -1.427  -0.860  24.625  0.00  0.00    +0.074 C 
ATOM      8  C   UNL     1      -4.349  -0.313  24.867  0.00  0.00    +0.028 C 
ATOM      9  C   UNL     1      -2.091  -0.460  25.961  0.00  0.00    +0.024 C 
ATOM     10  C   UNL     1      -3.477  -2.500  25.656  0.00  0.00    +0.019 C 
ATOM     11  C   UNL     1      -3.575  -0.472  23.537  0.00  0.00    +0.092 C 
ATOM     12  C   UNL     1      -2.939  -2.683  24.227  0.00  0.00    +0.085 C 
BRANCH   8  14
ATOM     14  C   UNL     1      -4.657   1.124  25.164  0.00  0.00    -0.030 C 
ATOM     15  C   UNL     1      -4.179   2.153  24.456  0.00  0.00    +0.004 C 
ENDBRANCH   8  14
ENDBRANCH  13   7
TORSDOF 3
ENDMDL
MODEL 4
REMARK VINA RESULT:      -3.8      2.456      6.073
REMARK  Name = 11943051
REMARK  3 active torsions:
REMARK  status: ('A' for Active; 'I' for Inactive)
REMARK    1  A    between atoms: N_4  and  C_13
REMARK    2  A    between atoms: C_7  and  C_13
REMARK    3  A    between atoms: C_8  and  C_14
REMARK                            x       y       z     vdW  Elec       q    Type
REMARK                         _______ _______ _______ _____ _____    ______ ____
ROOT
ATOM     13  C   UNL     1      -4.935   2.219  25.408  0.00  0.00    +0.124 C 
ENDROOT
BRANCH  13   4
ATOM      1  O   UNL     1      -0.906  -2.784  25.022  0.00  0.00    -0.377 OA
ATOM      2  O   UNL     1      -5.123  -0.343  24.261  0.00  0.00    -0.253 OA
ATOM      4  N   UNL     1      -3.962   1.160  25.549  0.00  0.00    -0.298 N 
ATOM      5  N   UNL     1      -3.101  -1.011  25.182  0.00  0.00    -0.281 N 
ATOM     16  C   UNL     1      -4.129  -0.083  24.948  0.00  0.00    +0.302 C 
ATOM     17  C   UNL     1      -1.891  -0.782  25.984  0.00  0.00    +0.137 C 
ATOM     18  C   UNL     1      -3.273  -2.395  24.733  0.00  0.00    +0.137 C 
ATOM     19  C   UNL     1      -0.671  -1.408  25.317  0.00  0.00    +0.179 C 
ATOM     20  C   UNL     1      -1.994  -2.928  24.107  0.00  0.00    +0.179 C 
ATOM     21  H   UNL     1      -3.187   1.342  26.172  0.00  0.00    +0.150 HD
ENDBRANCH  13   4
BRANCH  13   7
ATOM      3  N   UNL     1      -3.665   3.731  23.863  0.00  0.00    -0.297 NA
ATOM      6  C   UNL     1      -1.922   4.429  25.663  0.00  0.00    -0.000 C 
ATOM      7  C   UNL     1      -4.246   3.573  25.223  0.00  0.00    +0.074 C 
ATOM      8  C   UNL     1      -1.317   3.390  24.689  0.00  0.00    +0.028 C 
ATOM      9  C   UNL     1      -3.183   3.829  26.314  0.00  0.00    +0.024 C 
ATOM     10  C   UNL     1      -2.367   5.637  24.818  0.00  0.00    +0.019 C 
ATOM     11  C   UNL     1      -2.434   2.913  23.731  0.00  0.00    +0.092 C 
ATOM     12  C   UNL     1      -3.293   5.155  23.688  0.00  0.00    +0.085 C 
BRANCH   8  14
ATOM     14  C   UNL     1      -0.660   2.243  25.395  0.00  0.00    -0.030 C 
ATOM     15  C   UNL     1       0.158   2.380  26.444  0.00  0.00    +0.004 C 
ENDBRANCH   8  14
ENDBRANCH  13   7
TORSDOF 3
ENDMDL
MODEL 5
REMARK VINA RESULT:      -3.4      2.115      5.732
REMARK  Name = 11943051
REMARK  3 active torsions:
REMARK  status: ('A' for Active; 'I' for Inactive)
REMARK    1  A    between atoms: N_4  and  C_13
REMARK    2  A    between atoms: C_7  and  C_13
REMARK    3  A    between atoms: C_8  and  C_14
REMARK                            x       y       z     vdW  Elec       q    Type
REMARK                         _______ _______ _______ _____ _____    ______ ____
ROOT
ATOM     13  C   UNL     1      -0.303   1.914  24.273  0.00  0.00    +0.124 C 
ENDROOT
BRANCH  13   4
ATOM      1  O   UNL     1      -4.360  -3.080  24.116  0.00  0.00    -0.377 OA
ATOM      2  O   UNL     1      -0.129  -0.759  25.134  0.00  0.00    -0.253 OA
ATOM      4  N   UNL     1      -1.282   0.881  24.019  0.00  0.00    -0.298 N 
ATOM      5  N   UNL     1      -2.155  -1.312  24.148  0.00  0.00    -0.281 N 
ATOM     16  C   UNL     1      -1.122  -0.420  24.481  0.00  0.00    +0.302 C 
ATOM     17  C   UNL     1      -3.364  -0.990  23.377  0.00  0.00    +0.137 C 
ATOM     18  C   UNL     1      -1.990  -2.737  24.444  0.00  0.00    +0.137 C 
ATOM     19  C   UNL     1      -4.587  -1.678  23.973  0.00  0.00    +0.179 C 
ATOM     20  C   UNL     1      -3.273  -3.328  25.009  0.00  0.00    +0.179 C 
ATOM     21  H   UNL     1      -2.056   1.134  23.420  0.00  0.00    +0.150 HD
ENDBRANCH  13   4
BRANCH  13   7
ATOM      3  N   UNL     1      -1.111   3.969  25.460  0.00  0.00    -0.297 NA
ATOM      6  C   UNL     1      -3.293   4.159  24.058  0.00  0.00    -0.000 C 
ATOM      7  C   UNL     1      -0.928   3.304  24.142  0.00  0.00    +0.074 C 
ATOM      8  C   UNL     1      -3.592   3.574  25.459  0.00  0.00    +0.028 C 
ATOM      9  C   UNL     1      -2.256   3.264  23.353  0.00  0.00    +0.024 C 
ATOM     10  C   UNL     1      -2.644   5.539  24.272  0.00  0.00    +0.019 C 
ATOM     11  C   UNL     1      -2.247   3.357  26.193  0.00  0.00    +0.092 C 
ATOM     12  C   UNL     1      -1.436   5.394  25.213  0.00  0.00    +0.085 C 
BRANCH   8  14
ATOM     14  C   UNL     1      -4.406   2.317  25.404  0.00  0.00    -0.030 C 
ATOM     15  C   UNL     1      -5.731   2.291  25.227  0.00  0.00    +0.004 C 
ENDBRANCH   8  14
ENDBRANCH  13   7
TORSDOF 3
ENDMDL
MODEL 6
REMARK VINA RESULT:      -3.4      1.701      3.301
REMARK  Name = 11943051
REMARK  3 active torsions:
REMARK  status: ('A' for Active; 'I' for Inactive)
REMARK    1  A    between atoms: N_4  and  C_13
REMARK    2  A    between atoms: C_7  and  C_13
REMARK    3  A    between atoms: C_8  and  C_14
REMARK                            x       y       z     vdW  Elec       q    Type
REMARK                         _______ _______ _______ _____ _____    ______ ____
ROOT
ATOM     13  C   UNL     1      -4.720   0.415  24.897  0.00  0.00    +0.124 C 
ENDROOT
BRANCH  13   4
ATOM      1  O   UNL     1      -0.445   5.210  24.501  0.00  0.00    -0.377 OA
ATOM      2  O   UNL     1      -4.822   3.164  25.488  0.00  0.00    -0.253 OA
ATOM      4  N   UNL     1      -3.684   1.380  24.603  0.00  0.00    -0.298 N 
ATOM      5  N   UNL     1      -2.724   3.540  24.573  0.00  0.00    -0.281 N 
ATOM     16  C   UNL     1      -3.812   2.725  24.929  0.00  0.00    +0.302 C 
ATOM     17  C   UNL     1      -1.490   3.097  23.908  0.00  0.00    +0.137 C 
ATOM     18  C   UNL     1      -2.842   4.992  24.721  0.00  0.00    +0.137 C 
ATOM     19  C   UNL     1      -0.272   3.793  24.505  0.00  0.00    +0.179 C 
ATOM     20  C   UNL     1      -1.567   5.585  25.301  0.00  0.00    +0.179 C 
ATOM     21  H   UNL     1      -2.891   1.040  24.076  0.00  0.00    +0.150 HD
ENDBRANCH  13   4
BRANCH  13   7
ATOM      3  N   UNL     1      -3.538  -1.541  25.928  0.00  0.00    -0.297 NA
ATOM      6  C   UNL     1      -2.063  -2.002  23.836  0.00  0.00    -0.000 C 
ATOM      7  C   UNL     1      -4.206  -1.014  24.708  0.00  0.00    +0.074 C 
ATOM      8  C   UNL     1      -1.244  -1.287  24.936  0.00  0.00    +0.028 C 
ATOM      9  C   UNL     1      -3.283  -1.133  23.475  0.00  0.00    +0.024 C 
ATOM     10  C   UNL     1      -2.594  -3.313  24.445  0.00  0.00    +0.019 C 
ATOM     11  C   UNL     1      -2.202  -0.918  26.094  0.00  0.00    +0.092 C 
ATOM     12  C   UNL     1      -3.348  -3.000  25.749  0.00  0.00    +0.085 C 
BRANCH   8  14
ATOM     14  C   UNL     1      -0.501  -0.090  24.425  0.00  0.00    -0.030 C 
ATOM     15  C   UNL     1       0.358  -0.125  23.401  0.00  0.00    +0.004 C 
ENDBRANCH   8  14
ENDBRANCH  13   7
TORSDOF 3
ENDMDL
MODEL 7
REMARK VINA RESULT:      -2.8      3.157      5.299
REMARK  Name = 11943051
REMARK  3 active torsions:
REMARK  status: ('A' for Active; 'I' for Inactive)
REMARK    1  A    between atoms: N_4  and  C_13
REMARK    2  A    between atoms: C_7  and  C_13
REMARK    3  A    between atoms: C_8  and  C_14
REMARK                            x       y       z     vdW  Elec       q    Type
REMARK                         _______ _______ _______ _____ _____    ______ ____
ROOT
ATOM     13  C   UNL     1      -0.366  -0.465  23.400  0.00  0.00    +0.124 C 
ENDROOT
BRANCH  13   4
ATOM      1  O   UNL     1       6.064  -0.442  23.652  0.00  0.00    -0.377 OA
ATOM      2  O   UNL     1       1.583   1.542  23.104  0.00  0.00    -0.253 OA
ATOM      4  N   UNL     1       1.062  -0.680  23.347  0.00  0.00    -0.298 N 
ATOM      5  N   UNL     1       3.317   0.002  23.156  0.00  0.00    -0.281 N 
ATOM     16  C   UNL     1       1.962   0.369  23.198  0.00  0.00    +0.302 C 
ATOM     17  C   UNL     1       3.850  -1.364  23.260  0.00  0.00    +0.137 C 
ATOM     18  C   UNL     1       4.322   1.018  22.832  0.00  0.00    +0.137 C 
ATOM     19  C   UNL     1       5.108  -1.392  24.122  0.00  0.00    +0.179 C 
ATOM     20  C   UNL     1       5.541   0.885  23.731  0.00  0.00    +0.179 C 
ATOM     21  H   UNL     1       1.372  -1.642  23.344  0.00  0.00    +0.150 HD
ENDBRANCH  13   4
BRANCH  13   7
ATOM      3  N   UNL     1      -0.924   0.887  25.437  0.00  0.00    -0.297 NA
ATOM      6  C   UNL     1      -2.813   2.236  24.264  0.00  0.00    -0.000 C 
ATOM      7  C   UNL     1      -0.690   0.918  23.968  0.00  0.00    +0.074 C 
ATOM      8  C   UNL     1      -3.410   1.137  25.175  0.00  0.00    +0.028 C 
ATOM      9  C   UNL     1      -1.878   1.577  23.231  0.00  0.00    +0.024 C 
ATOM     10  C   UNL     1      -1.949   3.146  25.157  0.00  0.00    +0.019 C 
ATOM     11  C   UNL     1      -2.247   0.284  25.735  0.00  0.00    +0.092 C 
ATOM     12  C   UNL     1      -0.933   2.285  25.928  0.00  0.00    +0.085 C 
BRANCH   8  14
ATOM     14  C   UNL     1      -4.434   0.294  24.477  0.00  0.00    -0.030 C 
ATOM     15  C   UNL     1      -4.266  -1.001  24.190  0.00  0.00    +0.004 C 
ENDBRANCH   8  14
ENDBRANCH  13   7
TORSDOF 3
ENDMDL
MODEL 8
REMARK VINA RESULT:      -2.7     15.064     17.847
REMARK  Name = 11943051
REMARK  3 active torsions:
REMARK  status: ('A' for Active; 'I' for Inactive)
REMARK    1  A    between atoms: N_4  and  C_13
REMARK    2  A    between atoms: C_7  and  C_13
REMARK    3  A    between atoms: C_8  and  C_14
REMARK                            x       y       z     vdW  Elec       q    Type
REMARK                         _______ _______ _______ _____ _____    ______ ____
ROOT
ATOM     13  C   UNL     1      -6.712  -9.320  12.117  0.00  0.00    +0.124 C 
ENDROOT
BRANCH  13   4
ATOM      1  O   UNL     1      -2.696 -10.777  16.931  0.00  0.00    -0.377 OA
ATOM      2  O   UNL     1      -3.922  -9.638  12.292  0.00  0.00    -0.253 OA
ATOM      4  N   UNL     1      -5.989  -9.798  13.275  0.00  0.00    -0.298 N 
ATOM      5  N   UNL     1      -4.048 -10.411  14.476  0.00  0.00    -0.281 N 
ATOM     16  C   UNL     1      -4.605  -9.927  13.280  0.00  0.00    +0.302 C 
ATOM     17  C   UNL     1      -4.787 -10.776  15.692  0.00  0.00    +0.137 C 
ATOM     18  C   UNL     1      -2.621 -10.740  14.516  0.00  0.00    +0.137 C 
ATOM     19  C   UNL     1      -4.045 -10.310  16.940  0.00  0.00    +0.179 C 
ATOM     20  C   UNL     1      -1.985 -10.252  15.809  0.00  0.00    +0.179 C 
ATOM     21  H   UNL     1      -6.549 -10.109  14.057  0.00  0.00    +0.150 HD
ENDBRANCH  13   4
BRANCH  13   7
ATOM      3  N   UNL     1      -5.519  -8.831   9.967  0.00  0.00    -0.297 NA
ATOM      6  C   UNL     1      -7.040 -10.387   8.542  0.00  0.00    -0.000 C 
ATOM      7  C   UNL     1      -6.115  -9.888  10.828  0.00  0.00    +0.074 C 
ATOM      8  C   UNL     1      -7.429  -8.904   8.337  0.00  0.00    +0.028 C 
ATOM      9  C   UNL     1      -7.144 -10.729  10.041  0.00  0.00    +0.024 C 
ATOM     10  C   UNL     1      -5.561 -10.528   8.137  0.00  0.00    +0.019 C 
ATOM     11  C   UNL     1      -6.587  -8.041   9.307  0.00  0.00    +0.092 C 
ATOM     12  C   UNL     1      -4.720  -9.499   8.911  0.00  0.00    +0.085 C 
BRANCH   8  14
ATOM     14  C   UNL     1      -8.898  -8.658   8.503  0.00  0.00    -0.030 C 
ATOM     15  C   UNL     1      -9.424  -7.481   8.859  0.00  0.00    +0.004 C 
ENDBRANCH   8  14
ENDBRANCH  13   7
TORSDOF 3
ENDMDL
MODEL 9
REMARK VINA RESULT:      -2.2      1.937      3.374
REMARK  Name = 11943051
REMARK  3 active torsions:
REMARK  status: ('A' for Active; 'I' for Inactive)
REMARK    1  A    between atoms: N_4  and  C_13
REMARK    2  A    between atoms: C_7  and  C_13
REMARK    3  A    between atoms: C_8  and  C_14
REMARK                            x       y       z     vdW  Elec       q    Type
REMARK                         _______ _______ _______ _____ _____    ______ ____
ROOT
ATOM     13  C   UNL     1      -4.771  -0.314  23.770  0.00  0.00    +0.124 C 
ENDROOT
BRANCH  13   4
ATOM      1  O   UNL     1      -1.994   5.223  25.513  0.00  0.00    -0.377 OA
ATOM      2  O   UNL     1      -5.372   1.636  25.707  0.00  0.00    -0.253 OA
ATOM      4  N   UNL     1      -4.101   0.957  23.921  0.00  0.00    -0.298 N 
ATOM      5  N   UNL     1      -3.720   3.063  24.925  0.00  0.00    -0.281 N 
ATOM     16  C   UNL     1      -4.459   1.869  24.908  0.00  0.00    +0.302 C 
ATOM     17  C   UNL     1      -2.622   3.417  24.013  0.00  0.00    +0.137 C 
ATOM     18  C   UNL     1      -4.138   4.149  25.815  0.00  0.00    +0.137 C 
ATOM     19  C   UNL     1      -1.494   4.114  24.766  0.00  0.00    +0.179 C 
ATOM     20  C   UNL     1      -2.937   4.789  26.494  0.00  0.00    +0.179 C 
ATOM     21  H   UNL     1      -3.407   1.185  23.223  0.00  0.00    +0.150 HD
ENDBRANCH  13   4
BRANCH  13   7
ATOM      3  N   UNL     1      -3.754  -1.989  25.334  0.00  0.00    -0.297 NA
ATOM      6  C   UNL     1      -1.331  -1.625  24.462  0.00  0.00    -0.000 C 
ATOM      7  C   UNL     1      -3.788  -1.475  23.939  0.00  0.00    +0.074 C 
ATOM      8  C   UNL     1      -1.539  -0.906  25.816  0.00  0.00    +0.028 C 
ATOM      9  C   UNL     1      -2.370  -1.100  23.452  0.00  0.00    +0.024 C 
ATOM     10  C   UNL     1      -1.623  -3.119  24.692  0.00  0.00    +0.019 C 
ATOM     11  C   UNL     1      -3.028  -1.042  26.216  0.00  0.00    +0.092 C 
ATOM     12  C   UNL     1      -3.015  -3.274  25.330  0.00  0.00    +0.085 C 
BRANCH   8  14
ATOM     14  C   UNL     1      -1.098   0.526  25.789  0.00  0.00    -0.030 C 
ATOM     15  C   UNL     1      -0.198   1.016  24.929  0.00  0.00    +0.004 C 
ENDBRANCH   8  14
ENDBRANCH  13   7
TORSDOF 3
ENDMDL
MODEL 10
REMARK VINA RESULT:      -1.4      1.986      3.497
REMARK  Name = 11943051
REMARK  3 active torsions:
REMARK  status: ('A' for Active; 'I' for Inactive)
REMARK    1  A    between atoms: N_4  and  C_13
REMARK    2  A    between atoms: C_7  and  C_13
REMARK    3  A    between atoms: C_8  and  C_14
REMARK                            x       y       z     vdW  Elec       q    Type
REMARK                         _______ _______ _______ _____ _____    ______ ____
ROOT
ATOM     13  C   UNL     1      -0.311   2.786  25.414  0.00  0.00    +0.124 C 
ENDROOT
BRANCH  13   4
ATOM      1  O   UNL     1      -6.637   3.880  25.851  0.00  0.00    -0.377 OA
ATOM      2  O   UNL     1      -1.894   5.109  25.301  0.00  0.00    -0.253 OA
ATOM      4  N   UNL     1      -1.730   2.852  25.680  0.00  0.00    -0.298 N 
ATOM      5  N   UNL     1      -3.812   3.950  25.897  0.00  0.00    -0.281 N 
ATOM     16  C   UNL     1      -2.442   4.044  25.603  0.00  0.00    +0.302 C 
ATOM     17  C   UNL     1      -4.539   2.725  26.263  0.00  0.00    +0.137 C 
ATOM     18  C   UNL     1      -4.604   5.177  26.007  0.00  0.00    +0.137 C 
ATOM     19  C   UNL     1      -5.906   2.683  25.588  0.00  0.00    +0.179 C 
ATOM     20  C   UNL     1      -5.954   5.018  25.324  0.00  0.00    +0.179 C 
ATOM     21  H   UNL     1      -2.166   2.000  26.003  0.00  0.00    +0.150 HD
ENDBRANCH  13   4
BRANCH  13   7
ATOM      3  N   UNL     1       0.051   1.140  23.557  0.00  0.00    -0.297 NA
ATOM      6  C   UNL     1      -1.120  -0.820  24.803  0.00  0.00    -0.000 C 
ATOM      7  C   UNL     1       0.107   1.365  25.026  0.00  0.00    +0.074 C 
ATOM      8  C   UNL     1      -2.050  -0.228  23.718  0.00  0.00    +0.028 C 
ATOM      9  C   UNL     1      -0.717   0.300  25.782  0.00  0.00    +0.024 C 
ATOM     10  C   UNL     1       0.161  -1.296  24.092  0.00  0.00    +0.019 C 
ATOM     11  C   UNL     1      -1.357   1.014  23.107  0.00  0.00    +0.092 C 
ATOM     12  C   UNL     1       0.744  -0.137  23.265  0.00  0.00    +0.085 C 
BRANCH   8  14
ATOM     14  C   UNL     1      -3.418   0.096  24.236  0.00  0.00    -0.030 C 
ATOM     15  C   UNL     1      -4.109  -0.691  25.068  0.00  0.00    +0.004 C 
ENDBRANCH   8  14
ENDBRANCH  13   7
TORSDOF 3
ENDMDL
