MODEL 1
REMARK VINA RESULT:       9.8      0.000      0.000
REMARK  Name = 11913115
REMARK  7 active torsions:
REMARK  status: ('A' for Active; 'I' for Inactive)
REMARK    1  A    between atoms: O_4  and  C_14
REMARK    2  A    between atoms: O_4  and  C_18
REMARK    3  A    between atoms: O_6  and  C_30
REMARK    4  A    between atoms: O_6  and  C_34
REMARK    5  A    between atoms: N_7  and  C_13
REMARK    6  A    between atoms: N_10  and  C_22
REMARK    7  A    between atoms: C_19  and  C_23
REMARK                            x       y       z     vdW  Elec       q    Type
REMARK                         _______ _______ _______ _____ _____    ______ ____
ROOT
ATOM      2  O   UNL     1      -3.809   2.188  25.122  0.00  0.00    -0.368 OA
ATOM      3  O   UNL     1      -6.316   3.752  25.947  0.00  0.00    -0.368 OA
ATOM     11  C   UNL     1      -6.110   2.734  24.946  0.00  0.00    +0.173 C 
ATOM     12  C   UNL     1      -4.735   2.973  24.354  0.00  0.00    +0.192 C 
ATOM     13  C   UNL     1      -5.994   1.379  25.602  0.00  0.00    +0.130 C 
ATOM     14  C   UNL     1      -4.535   4.452  24.578  0.00  0.00    +0.235 C 
ATOM     15  C   UNL     1      -4.538   1.349  26.032  0.00  0.00    +0.185 C 
ATOM     16  C   UNL     1      -5.211   4.666  25.913  0.00  0.00    +0.207 C 
ENDROOT
BRANCH  13   7
ATOM      7  N   UNL     1      -6.255   0.330  24.639  0.00  0.00    -0.306 N 
ATOM      8  N   UNL     1      -4.159  -0.618  24.959  0.00  0.00    -0.214 NA
ATOM      9  N   UNL     1      -5.737  -1.567  23.404  0.00  0.00    -0.223 NA
ATOM     17  C   UNL     1      -5.344  -0.661  24.320  0.00  0.00    +0.216 A 
ATOM     19  C   UNL     1      -3.297  -1.598  24.624  0.00  0.00    +0.076 A 
ATOM     20  C   UNL     1      -4.825  -2.519  23.118  0.00  0.00    +0.116 A 
ATOM     21  C   UNL     1      -3.577  -2.586  23.702  0.00  0.00    +0.048 A 
ATOM     40  H   UNL     1      -7.167   0.273  24.200  0.00  0.00    +0.149 HD
BRANCH  19  23
ATOM      1  F   UNL     1       1.036  -3.505  25.571  0.00  0.00    -0.205 F 
ATOM     23  C   UNL     1      -2.025  -1.557  25.308  0.00  0.00    +0.003 A 
ATOM     26  C   UNL     1      -1.090  -2.571  25.105  0.00  0.00    +0.048 A 
ATOM     27  C   UNL     1      -1.734  -0.502  26.173  0.00  0.00    +0.010 A 
ATOM     31  C   UNL     1       0.138  -2.531  25.766  0.00  0.00    +0.124 A 
ATOM     32  C   UNL     1      -0.506  -0.461  26.835  0.00  0.00    +0.003 A 
ATOM     33  C   UNL     1       0.430  -1.476  26.630  0.00  0.00    +0.038 A 
ENDBRANCH  19  23
ENDBRANCH  13   7
BRANCH  14   4
ATOM      4  O   UNL     1      -3.179   4.840  24.602  0.00  0.00    -0.442 OA
BRANCH   4  18
ATOM      5  O   UNL     1      -1.886   3.606  26.029  0.00  0.00    -0.226 OA
ATOM     10  N   UNL     1      -1.852   3.247  23.716  0.00  0.00    -0.251 N 
ATOM     18  C   UNL     1      -2.255   3.856  24.889  0.00  0.00    +0.405 C 
ATOM     41  H   UNL     1      -2.274   3.596  22.859  0.00  0.00    +0.158 HD
BRANCH  10  22
ATOM     22  C   UNL     1      -0.921   2.194  23.558  0.00  0.00    +0.037 A 
ATOM     24  C   UNL     1       0.352   2.300  24.118  0.00  0.00    +0.027 A 
ATOM     25  C   UNL     1      -1.276   1.051  22.842  0.00  0.00    +0.027 A 
ATOM     28  C   UNL     1       1.271   1.261  23.962  0.00  0.00    +0.048 A 
ATOM     29  C   UNL     1      -0.358   0.014  22.685  0.00  0.00    +0.048 A 
ATOM     30  C   UNL     1       0.916   0.118  23.245  0.00  0.00    +0.129 A 
BRANCH  30   6
ATOM      6  O   UNL     1       1.812  -0.894  23.092  0.00  0.00    -0.456 OA
BRANCH   6  34
ATOM     34  C   UNL     1       3.155  -0.597  23.257  0.00  0.00    +0.128 A 
ATOM     35  C   UNL     1       3.669   0.602  22.763  0.00  0.00    +0.046 A 
ATOM     36  C   UNL     1       3.993  -1.496  23.915  0.00  0.00    +0.046 A 
ATOM     37  C   UNL     1       5.021   0.902  22.929  0.00  0.00    +0.004 A 
ATOM     38  C   UNL     1       5.345  -1.196  24.082  0.00  0.00    +0.004 A 
ATOM     39  C   UNL     1       5.859   0.003  23.588  0.00  0.00    +0.000 A 
ENDBRANCH   6  34
ENDBRANCH  30   6
ENDBRANCH  10  22
ENDBRANCH   4  18
ENDBRANCH  14   4
TORSDOF 7
ENDMDL
MODEL 2
REMARK VINA RESULT:       9.9      2.267      4.801
REMARK  Name = 11913115
REMARK  7 active torsions:
REMARK  status: ('A' for Active; 'I' for Inactive)
REMARK    1  A    between atoms: O_4  and  C_14
REMARK    2  A    between atoms: O_4  and  C_18
REMARK    3  A    between atoms: O_6  and  C_30
REMARK    4  A    between atoms: O_6  and  C_34
REMARK    5  A    between atoms: N_7  and  C_13
REMARK    6  A    between atoms: N_10  and  C_22
REMARK    7  A    between atoms: C_19  and  C_23
REMARK                            x       y       z     vdW  Elec       q    Type
REMARK                         _______ _______ _______ _____ _____    ______ ____
ROOT
ATOM      2  O   UNL     1      -3.230  -0.174  25.189  0.00  0.00    -0.368 OA
ATOM      3  O   UNL     1      -4.605  -2.203  23.345  0.00  0.00    -0.368 OA
ATOM     11  C   UNL     1      -5.141  -1.196  24.228  0.00  0.00    +0.173 C 
ATOM     12  C   UNL     1      -4.243  -1.159  25.448  0.00  0.00    +0.192 C 
ATOM     13  C   UNL     1      -4.975   0.173  23.611  0.00  0.00    +0.130 C 
ATOM     14  C   UNL     1      -3.672  -2.556  25.476  0.00  0.00    +0.235 C 
ATOM     15  C   UNL     1      -3.541   0.520  23.972  0.00  0.00    +0.185 C 
ATOM     16  C   UNL     1      -3.517  -2.866  24.005  0.00  0.00    +0.207 C 
ENDROOT
BRANCH  13   7
ATOM      7  N   UNL     1      -5.890   1.114  24.224  0.00  0.00    -0.306 N 
ATOM      8  N   UNL     1      -4.170   2.574  24.776  0.00  0.00    -0.214 NA
ATOM      9  N   UNL     1      -6.462   3.075  25.329  0.00  0.00    -0.223 NA
ATOM     17  C   UNL     1      -5.489   2.306  24.801  0.00  0.00    +0.216 A 
ATOM     19  C   UNL     1      -3.816   3.743  25.347  0.00  0.00    +0.076 A 
ATOM     20  C   UNL     1      -6.036   4.229  25.882  0.00  0.00    +0.116 A 
ATOM     21  C   UNL     1      -4.714   4.619  25.921  0.00  0.00    +0.048 A 
ATOM     40  H   UNL     1      -6.886   0.930  24.194  0.00  0.00    +0.149 HD
BRANCH  19  23
ATOM      1  F   UNL     1       0.731   2.637  26.531  0.00  0.00    -0.205 F 
ATOM     23  C   UNL     1      -2.402   4.035  25.320  0.00  0.00    +0.003 A 
ATOM     26  C   UNL     1      -1.501   3.177  25.950  0.00  0.00    +0.048 A 
ATOM     27  C   UNL     1      -1.938   5.175  24.665  0.00  0.00    +0.010 A 
ATOM     31  C   UNL     1      -0.135   3.460  25.925  0.00  0.00    +0.124 A 
ATOM     32  C   UNL     1      -0.573   5.458  24.639  0.00  0.00    +0.003 A 
ATOM     33  C   UNL     1       0.329   4.600  25.269  0.00  0.00    +0.038 A 
ENDBRANCH  19  23
ENDBRANCH  13   7
BRANCH  14   4
ATOM      4  O   UNL     1      -2.447  -2.649  26.169  0.00  0.00    -0.442 OA
BRANCH   4  18
ATOM      5  O   UNL     1      -0.669  -3.535  25.035  0.00  0.00    -0.226 OA
ATOM     10  N   UNL     1      -1.003  -1.223  25.187  0.00  0.00    -0.251 N 
ATOM     18  C   UNL     1      -1.295  -2.554  25.416  0.00  0.00    +0.405 C 
ATOM     41  H   UNL     1      -1.648  -0.546  25.587  0.00  0.00    +0.158 HD
BRANCH  10  22
ATOM     22  C   UNL     1       0.084  -0.682  24.462  0.00  0.00    +0.037 A 
ATOM     24  C   UNL     1       0.072   0.660  24.085  0.00  0.00    +0.027 A 
ATOM     25  C   UNL     1       1.169  -1.492  24.125  0.00  0.00    +0.027 A 
ATOM     28  C   UNL     1       1.144   1.193  23.370  0.00  0.00    +0.048 A 
ATOM     29  C   UNL     1       2.241  -0.959  23.410  0.00  0.00    +0.048 A 
ATOM     30  C   UNL     1       2.228   0.384  23.031  0.00  0.00    +0.129 A 
BRANCH  30   6
ATOM      6  O   UNL     1       3.274   0.904  22.334  0.00  0.00    -0.456 OA
BRANCH   6  34
ATOM     34  C   UNL     1       4.554   0.578  22.751  0.00  0.00    +0.128 A 
ATOM     35  C   UNL     1       5.079   1.157  23.906  0.00  0.00    +0.046 A 
ATOM     36  C   UNL     1       5.317  -0.330  22.017  0.00  0.00    +0.046 A 
ATOM     37  C   UNL     1       6.368   0.827  24.327  0.00  0.00    +0.004 A 
ATOM     38  C   UNL     1       6.605  -0.659  22.439  0.00  0.00    +0.004 A 
ATOM     39  C   UNL     1       7.130  -0.080  23.593  0.00  0.00    +0.000 A 
ENDBRANCH   6  34
ENDBRANCH  30   6
ENDBRANCH  10  22
ENDBRANCH   4  18
ENDBRANCH  14   4
TORSDOF 7
ENDMDL
MODEL 3
REMARK VINA RESULT:      12.0      1.900      3.533
REMARK  Name = 11913115
REMARK  7 active torsions:
REMARK  status: ('A' for Active; 'I' for Inactive)
REMARK    1  A    between atoms: O_4  and  C_14
REMARK    2  A    between atoms: O_4  and  C_18
REMARK    3  A    between atoms: O_6  and  C_30
REMARK    4  A    between atoms: O_6  and  C_34
REMARK    5  A    between atoms: N_7  and  C_13
REMARK    6  A    between atoms: N_10  and  C_22
REMARK    7  A    between atoms: C_19  and  C_23
REMARK                            x       y       z     vdW  Elec       q    Type
REMARK                         _______ _______ _______ _____ _____    ______ ____
ROOT
ATOM      2  O   UNL     1      -2.044   4.105  23.930  0.00  0.00    -0.368 OA
ATOM      3  O   UNL     1      -4.649   4.091  25.551  0.00  0.00    -0.368 OA
ATOM     11  C   UNL     1      -3.370   3.466  25.789  0.00  0.00    +0.173 C 
ATOM     12  C   UNL     1      -2.840   3.023  24.439  0.00  0.00    +0.192 C 
ATOM     13  C   UNL     1      -2.368   4.497  26.253  0.00  0.00    +0.130 C 
ATOM     14  C   UNL     1      -4.106   2.834  23.638  0.00  0.00    +0.235 C 
ATOM     15  C   UNL     1      -1.903   5.111  24.944  0.00  0.00    +0.185 C 
ATOM     16  C   UNL     1      -4.986   3.944  24.164  0.00  0.00    +0.207 C 
ENDROOT
BRANCH  13   7
ATOM      7  N   UNL     1      -1.261   3.853  26.928  0.00  0.00    -0.306 N 
ATOM      8  N   UNL     1      -1.892   1.753  26.163  0.00  0.00    -0.214 NA
ATOM      9  N   UNL     1       0.050   2.043  27.561  0.00  0.00    -0.223 NA
ATOM     17  C   UNL     1      -1.024   2.490  26.882  0.00  0.00    +0.216 A 
ATOM     19  C   UNL     1      -1.631   0.430  26.140  0.00  0.00    +0.076 A 
ATOM     20  C   UNL     1       0.250   0.711  27.495  0.00  0.00    +0.116 A 
ATOM     21  C   UNL     1      -0.564  -0.153  26.793  0.00  0.00    +0.048 A 
ATOM     40  H   UNL     1      -0.582   4.420  27.424  0.00  0.00    +0.149 HD
BRANCH  19  23
ATOM      1  F   UNL     1      -2.715  -3.606  23.725  0.00  0.00    -0.205 F 
ATOM     23  C   UNL     1      -2.558  -0.364  25.369  0.00  0.00    +0.003 A 
ATOM     26  C   UNL     1      -2.181  -1.626  24.911  0.00  0.00    +0.048 A 
ATOM     27  C   UNL     1      -3.830   0.131  25.082  0.00  0.00    +0.010 A 
ATOM     31  C   UNL     1      -3.077  -2.394  24.165  0.00  0.00    +0.124 A 
ATOM     32  C   UNL     1      -4.726  -0.636  24.337  0.00  0.00    +0.003 A 
ATOM     33  C   UNL     1      -4.349  -1.899  23.879  0.00  0.00    +0.038 A 
ENDBRANCH  19  23
ENDBRANCH  13   7
BRANCH  14   4
ATOM      4  O   UNL     1      -3.909   2.929  22.245  0.00  0.00    -0.442 OA
BRANCH   4  18
ATOM      5  O   UNL     1      -2.522   2.310  20.535  0.00  0.00    -0.226 OA
ATOM     10  N   UNL     1      -2.058   1.748  22.760  0.00  0.00    -0.251 N 
ATOM     18  C   UNL     1      -2.785   2.316  21.731  0.00  0.00    +0.405 C 
ATOM     41  H   UNL     1      -2.441   1.859  23.696  0.00  0.00    +0.158 HD
BRANCH  10  22
ATOM     22  C   UNL     1      -0.845   1.027  22.674  0.00  0.00    +0.037 A 
ATOM     24  C   UNL     1       0.206   1.327  23.541  0.00  0.00    +0.027 A 
ATOM     25  C   UNL     1      -0.699   0.017  21.723  0.00  0.00    +0.027 A 
ATOM     28  C   UNL     1       1.404   0.616  23.456  0.00  0.00    +0.048 A 
ATOM     29  C   UNL     1       0.498  -0.693  21.639  0.00  0.00    +0.048 A 
ATOM     30  C   UNL     1       1.550  -0.394  22.504  0.00  0.00    +0.129 A 
BRANCH  30   6
ATOM      6  O   UNL     1       2.718  -1.087  22.422  0.00  0.00    -0.456 OA
BRANCH   6  34
ATOM     34  C   UNL     1       3.829  -0.554  23.053  0.00  0.00    +0.128 A 
ATOM     35  C   UNL     1       4.175   0.781  22.846  0.00  0.00    +0.046 A 
ATOM     36  C   UNL     1       4.603  -1.352  23.895  0.00  0.00    +0.046 A 
ATOM     37  C   UNL     1       5.294   1.318  23.483  0.00  0.00    +0.004 A 
ATOM     38  C   UNL     1       5.722  -0.815  24.531  0.00  0.00    +0.004 A 
ATOM     39  C   UNL     1       6.067   0.520  24.325  0.00  0.00    +0.000 A 
ENDBRANCH   6  34
ENDBRANCH  30   6
ENDBRANCH  10  22
ENDBRANCH   4  18
ENDBRANCH  14   4
TORSDOF 7
ENDMDL
MODEL 4
REMARK VINA RESULT:      12.4      1.629      3.710
REMARK  Name = 11913115
REMARK  7 active torsions:
REMARK  status: ('A' for Active; 'I' for Inactive)
REMARK    1  A    between atoms: O_4  and  C_14
REMARK    2  A    between atoms: O_4  and  C_18
REMARK    3  A    between atoms: O_6  and  C_30
REMARK    4  A    between atoms: O_6  and  C_34
REMARK    5  A    between atoms: N_7  and  C_13
REMARK    6  A    between atoms: N_10  and  C_22
REMARK    7  A    between atoms: C_19  and  C_23
REMARK                            x       y       z     vdW  Elec       q    Type
REMARK                         _______ _______ _______ _____ _____    ______ ____
ROOT
ATOM      2  O   UNL     1      -4.090   2.482  23.625  0.00  0.00    -0.368 OA
ATOM      3  O   UNL     1      -5.800   2.764  26.157  0.00  0.00    -0.368 OA
ATOM     11  C   UNL     1      -4.393   2.987  25.922  0.00  0.00    +0.173 C 
ATOM     12  C   UNL     1      -3.939   1.925  24.940  0.00  0.00    +0.192 C 
ATOM     13  C   UNL     1      -4.193   4.284  25.174  0.00  0.00    +0.130 C 
ATOM     14  C   UNL     1      -4.922   0.807  25.190  0.00  0.00    +0.235 C 
ATOM     15  C   UNL     1      -4.440   3.871  23.734  0.00  0.00    +0.185 C 
ATOM     16  C   UNL     1      -6.198   1.563  25.481  0.00  0.00    +0.207 C 
ENDROOT
BRANCH  13   7
ATOM      7  N   UNL     1      -2.833   4.752  25.337  0.00  0.00    -0.306 N 
ATOM      8  N   UNL     1      -2.033   2.600  25.688  0.00  0.00    -0.214 NA
ATOM      9  N   UNL     1      -0.555   4.504  25.716  0.00  0.00    -0.223 NA
ATOM     17  C   UNL     1      -1.760   3.915  25.591  0.00  0.00    +0.216 A 
ATOM     19  C   UNL     1      -0.965   1.815  25.936  0.00  0.00    +0.076 A 
ATOM     20  C   UNL     1       0.468   3.659  25.963  0.00  0.00    +0.116 A 
ATOM     21  C   UNL     1       0.321   2.293  26.084  0.00  0.00    +0.048 A 
ATOM     40  H   UNL     1      -2.627   5.737  25.212  0.00  0.00    +0.149 HD
BRANCH  19  23
ATOM      1  F   UNL     1       0.375  -2.797  25.451  0.00  0.00    -0.205 F 
ATOM     23  C   UNL     1      -1.252   0.404  26.039  0.00  0.00    +0.003 A 
ATOM     26  C   UNL     1      -0.280  -0.533  25.689  0.00  0.00    +0.048 A 
ATOM     27  C   UNL     1      -2.502  -0.023  26.487  0.00  0.00    +0.010 A 
ATOM     31  C   UNL     1      -0.558  -1.897  25.788  0.00  0.00    +0.124 A 
ATOM     32  C   UNL     1      -2.781  -1.386  26.586  0.00  0.00    +0.003 A 
ATOM     33  C   UNL     1      -1.808  -2.323  26.237  0.00  0.00    +0.038 A 
ENDBRANCH  19  23
ENDBRANCH  13   7
BRANCH  14   4
ATOM      4  O   UNL     1      -5.064  -0.073  24.097  0.00  0.00    -0.442 OA
BRANCH   4  18
ATOM      5  O   UNL     1      -3.813  -1.818  23.309  0.00  0.00    -0.226 OA
ATOM     10  N   UNL     1      -2.939   0.348  23.470  0.00  0.00    -0.251 N 
ATOM     18  C   UNL     1      -3.908  -0.630  23.591  0.00  0.00    +0.405 C 
ATOM     41  H   UNL     1      -3.208   1.286  23.758  0.00  0.00    +0.158 HD
BRANCH  10  22
ATOM     22  C   UNL     1      -1.615   0.207  22.995  0.00  0.00    +0.037 A 
ATOM     24  C   UNL     1      -1.114  -1.059  22.691  0.00  0.00    +0.027 A 
ATOM     25  C   UNL     1      -0.809   1.334  22.830  0.00  0.00    +0.027 A 
ATOM     28  C   UNL     1       0.192  -1.198  22.223  0.00  0.00    +0.048 A 
ATOM     29  C   UNL     1       0.497   1.195  22.363  0.00  0.00    +0.048 A 
ATOM     30  C   UNL     1       0.998  -0.071  22.059  0.00  0.00    +0.129 A 
BRANCH  30   6
ATOM      6  O   UNL     1       2.273  -0.207  21.602  0.00  0.00    -0.456 OA
BRANCH   6  34
ATOM     34  C   UNL     1       3.295  -0.215  22.536  0.00  0.00    +0.128 A 
ATOM     35  C   UNL     1       3.572  -1.377  23.256  0.00  0.00    +0.046 A 
ATOM     36  C   UNL     1       4.048   0.937  22.757  0.00  0.00    +0.046 A 
ATOM     37  C   UNL     1       4.602  -1.387  24.196  0.00  0.00    +0.004 A 
ATOM     38  C   UNL     1       5.078   0.928  23.697  0.00  0.00    +0.004 A 
ATOM     39  C   UNL     1       5.355  -0.234  24.417  0.00  0.00    +0.000 A 
ENDBRANCH   6  34
ENDBRANCH  30   6
ENDBRANCH  10  22
ENDBRANCH   4  18
ENDBRANCH  14   4
TORSDOF 7
ENDMDL
MODEL 5
REMARK VINA RESULT:      12.6      2.606      5.258
REMARK  Name = 11913115
REMARK  7 active torsions:
REMARK  status: ('A' for Active; 'I' for Inactive)
REMARK    1  A    between atoms: O_4  and  C_14
REMARK    2  A    between atoms: O_4  and  C_18
REMARK    3  A    between atoms: O_6  and  C_30
REMARK    4  A    between atoms: O_6  and  C_34
REMARK    5  A    between atoms: N_7  and  C_13
REMARK    6  A    between atoms: N_10  and  C_22
REMARK    7  A    between atoms: C_19  and  C_23
REMARK                            x       y       z     vdW  Elec       q    Type
REMARK                         _______ _______ _______ _____ _____    ______ ____
ROOT
ATOM      2  O   UNL     1      -2.874  -1.641  23.515  0.00  0.00    -0.368 OA
ATOM      3  O   UNL     1      -1.220  -0.969  26.010  0.00  0.00    -0.368 OA
ATOM     11  C   UNL     1      -2.436  -0.395  25.485  0.00  0.00    +0.173 C 
ATOM     12  C   UNL     1      -2.308  -0.403  23.974  0.00  0.00    +0.192 C 
ATOM     13  C   UNL     1      -3.602  -1.317  25.756  0.00  0.00    +0.130 C 
ATOM     14  C   UNL     1      -0.812  -0.364  23.773  0.00  0.00    +0.235 C 
ATOM     15  C   UNL     1      -3.498  -2.316  24.618  0.00  0.00    +0.185 C 
ATOM     16  C   UNL     1      -0.313  -1.207  24.924  0.00  0.00    +0.207 C 
ENDROOT
BRANCH  13   7
ATOM      7  N   UNL     1      -4.849  -0.586  25.672  0.00  0.00    -0.306 N 
ATOM      8  N   UNL     1      -3.754   1.431  25.317  0.00  0.00    -0.214 NA
ATOM      9  N   UNL     1      -6.160   1.311  25.399  0.00  0.00    -0.223 NA
ATOM     17  C   UNL     1      -4.924   0.778  25.453  0.00  0.00    +0.216 A 
ATOM     19  C   UNL     1      -3.865   2.758  25.105  0.00  0.00    +0.076 A 
ATOM     20  C   UNL     1      -6.196   2.642  25.184  0.00  0.00    +0.116 A 
ATOM     21  C   UNL     1      -5.071   3.425  25.028  0.00  0.00    +0.048 A 
ATOM     40  H   UNL     1      -5.726  -1.092  25.724  0.00  0.00    +0.149 HD
BRANCH  19  23
ATOM      1  F   UNL     1       0.835   2.796  24.006  0.00  0.00    -0.205 F 
ATOM     23  C   UNL     1      -2.613   3.462  24.956  0.00  0.00    +0.003 A 
ATOM     26  C   UNL     1      -1.471   2.775  24.544  0.00  0.00    +0.048 A 
ATOM     27  C   UNL     1      -2.545   4.829  25.226  0.00  0.00    +0.010 A 
ATOM     31  C   UNL     1      -0.261   3.455  24.401  0.00  0.00    +0.124 A 
ATOM     32  C   UNL     1      -1.337   5.509  25.083  0.00  0.00    +0.003 A 
ATOM     33  C   UNL     1      -0.195   4.822  24.670  0.00  0.00    +0.038 A 
ENDBRANCH  19  23
ENDBRANCH  13   7
BRANCH  14   4
ATOM      4  O   UNL     1      -0.398  -0.873  22.525  0.00  0.00    -0.442 OA
BRANCH   4  18
ATOM      5  O   UNL     1       1.282  -0.615  20.994  0.00  0.00    -0.226 OA
ATOM     10  N   UNL     1       1.680  -0.460  23.296  0.00  0.00    -0.251 N 
ATOM     18  C   UNL     1       0.913  -0.643  22.162  0.00  0.00    +0.405 C 
ATOM     41  H   UNL     1       1.190  -0.519  24.185  0.00  0.00    +0.158 HD
BRANCH  10  22
ATOM     22  C   UNL     1       3.068  -0.200  23.375  0.00  0.00    +0.037 A 
ATOM     24  C   UNL     1       3.926  -1.154  23.923  0.00  0.00    +0.027 A 
ATOM     25  C   UNL     1       3.579   1.010  22.906  0.00  0.00    +0.027 A 
ATOM     28  C   UNL     1       5.295  -0.897  24.002  0.00  0.00    +0.048 A 
ATOM     29  C   UNL     1       4.947   1.267  22.985  0.00  0.00    +0.048 A 
ATOM     30  C   UNL     1       5.805   0.314  23.533  0.00  0.00    +0.129 A 
BRANCH  30   6
ATOM      6  O   UNL     1       7.141   0.563  23.610  0.00  0.00    -0.456 OA
BRANCH   6  34
ATOM     34  C   UNL     1       8.001  -0.338  23.006  0.00  0.00    +0.128 A 
ATOM     35  C   UNL     1       9.379  -0.136  23.070  0.00  0.00    +0.046 A 
ATOM     36  C   UNL     1       7.489  -1.448  22.334  0.00  0.00    +0.046 A 
ATOM     37  C   UNL     1      10.246  -1.045  22.463  0.00  0.00    +0.004 A 
ATOM     38  C   UNL     1       8.356  -2.357  21.727  0.00  0.00    +0.004 A 
ATOM     39  C   UNL     1       9.734  -2.154  21.791  0.00  0.00    +0.000 A 
ENDBRANCH   6  34
ENDBRANCH  30   6
ENDBRANCH  10  22
ENDBRANCH   4  18
ENDBRANCH  14   4
TORSDOF 7
ENDMDL
MODEL 6
REMARK VINA RESULT:      13.1      2.138      4.208
REMARK  Name = 11913115
REMARK  7 active torsions:
REMARK  status: ('A' for Active; 'I' for Inactive)
REMARK    1  A    between atoms: O_4  and  C_14
REMARK    2  A    between atoms: O_4  and  C_18
REMARK    3  A    between atoms: O_6  and  C_30
REMARK    4  A    between atoms: O_6  and  C_34
REMARK    5  A    between atoms: N_7  and  C_13
REMARK    6  A    between atoms: N_10  and  C_22
REMARK    7  A    between atoms: C_19  and  C_23
REMARK                            x       y       z     vdW  Elec       q    Type
REMARK                         _______ _______ _______ _____ _____    ______ ____
ROOT
ATOM      2  O   UNL     1      -5.389   1.913  24.032  0.00  0.00    -0.368 OA
ATOM      3  O   UNL     1      -5.662   2.351  27.056  0.00  0.00    -0.368 OA
ATOM     11  C   UNL     1      -4.798   2.962  26.075  0.00  0.00    +0.173 C 
ATOM     12  C   UNL     1      -4.416   1.876  25.089  0.00  0.00    +0.192 C 
ATOM     13  C   UNL     1      -5.579   3.952  25.243  0.00  0.00    +0.130 C 
ATOM     14  C   UNL     1      -4.541   0.622  25.920  0.00  0.00    +0.235 C 
ATOM     15  C   UNL     1      -6.238   3.057  24.208  0.00  0.00    +0.185 C 
ATOM     16  C   UNL     1      -5.727   0.941  26.802  0.00  0.00    +0.207 C 
ENDROOT
BRANCH  13   7
ATOM      7  N   UNL     1      -4.681   4.887  24.599  0.00  0.00    -0.306 N 
ATOM      8  N   UNL     1      -2.806   3.853  25.501  0.00  0.00    -0.214 NA
ATOM      9  N   UNL     1      -2.604   5.778  24.064  0.00  0.00    -0.223 NA
ATOM     17  C   UNL     1      -3.304   4.837  24.727  0.00  0.00    +0.216 A 
ATOM     19  C   UNL     1      -1.462   3.835  25.603  0.00  0.00    +0.076 A 
ATOM     20  C   UNL     1      -1.265   5.700  24.211  0.00  0.00    +0.116 A 
ATOM     21  C   UNL     1      -0.632   4.741  24.975  0.00  0.00    +0.048 A 
ATOM     40  H   UNL     1      -5.058   5.592  23.977  0.00  0.00    +0.149 HD
BRANCH  19  23
ATOM      1  F   UNL     1       1.285   2.370  29.292  0.00  0.00    -0.205 F 
ATOM     23  C   UNL     1      -0.924   2.781  26.431  0.00  0.00    +0.003 A 
ATOM     26  C   UNL     1      -0.063   3.091  27.482  0.00  0.00    +0.048 A 
ATOM     27  C   UNL     1      -1.266   1.453  26.177  0.00  0.00    +0.010 A 
ATOM     31  C   UNL     1       0.458   2.072  28.282  0.00  0.00    +0.124 A 
ATOM     32  C   UNL     1      -0.746   0.434  26.976  0.00  0.00    +0.003 A 
ATOM     33  C   UNL     1       0.115   0.744  28.028  0.00  0.00    +0.038 A 
ENDBRANCH  19  23
ENDBRANCH  13   7
BRANCH  14   4
ATOM      4  O   UNL     1      -4.749  -0.543  25.153  0.00  0.00    -0.442 OA
BRANCH   4  18
ATOM      5  O   UNL     1      -3.820  -1.873  23.541  0.00  0.00    -0.226 OA
ATOM     10  N   UNL     1      -2.641  -0.090  24.495  0.00  0.00    -0.251 N 
ATOM     18  C   UNL     1      -3.725  -0.926  24.312  0.00  0.00    +0.405 C 
ATOM     41  H   UNL     1      -2.752   0.647  25.187  0.00  0.00    +0.158 HD
BRANCH  10  22
ATOM     22  C   UNL     1      -1.390  -0.130  23.837  0.00  0.00    +0.037 A 
ATOM     24  C   UNL     1      -0.928   0.993  23.150  0.00  0.00    +0.027 A 
ATOM     25  C   UNL     1      -0.618  -1.291  23.875  0.00  0.00    +0.027 A 
ATOM     28  C   UNL     1       0.306   0.953  22.500  0.00  0.00    +0.048 A 
ATOM     29  C   UNL     1       0.615  -1.330  23.226  0.00  0.00    +0.048 A 
ATOM     30  C   UNL     1       1.078  -0.208  22.537  0.00  0.00    +0.129 A 
BRANCH  30   6
ATOM      6  O   UNL     1       2.281  -0.246  21.904  0.00  0.00    -0.456 OA
BRANCH   6  34
ATOM     34  C   UNL     1       3.423  -0.232  22.687  0.00  0.00    +0.128 A 
ATOM     35  C   UNL     1       3.802  -1.377  23.387  0.00  0.00    +0.046 A 
ATOM     36  C   UNL     1       4.194   0.926  22.776  0.00  0.00    +0.046 A 
ATOM     37  C   UNL     1       4.952  -1.364  24.176  0.00  0.00    +0.004 A 
ATOM     38  C   UNL     1       5.345   0.940  23.565  0.00  0.00    +0.004 A 
ATOM     39  C   UNL     1       5.723  -0.205  24.265  0.00  0.00    +0.000 A 
ENDBRANCH   6  34
ENDBRANCH  30   6
ENDBRANCH  10  22
ENDBRANCH   4  18
ENDBRANCH  14   4
TORSDOF 7
ENDMDL
MODEL 7
REMARK VINA RESULT:      13.3      2.306      4.388
REMARK  Name = 11913115
REMARK  7 active torsions:
REMARK  status: ('A' for Active; 'I' for Inactive)
REMARK    1  A    between atoms: O_4  and  C_14
REMARK    2  A    between atoms: O_4  and  C_18
REMARK    3  A    between atoms: O_6  and  C_30
REMARK    4  A    between atoms: O_6  and  C_34
REMARK    5  A    between atoms: N_7  and  C_13
REMARK    6  A    between atoms: N_10  and  C_22
REMARK    7  A    between atoms: C_19  and  C_23
REMARK                            x       y       z     vdW  Elec       q    Type
REMARK                         _______ _______ _______ _____ _____    ______ ____
ROOT
ATOM      2  O   UNL     1      -1.822   2.138  25.314  0.00  0.00    -0.368 OA
ATOM      3  O   UNL     1      -0.687   4.804  24.307  0.00  0.00    -0.368 OA
ATOM     11  C   UNL     1      -2.044   4.345  24.474  0.00  0.00    +0.173 C 
ATOM     12  C   UNL     1      -2.059   2.875  24.103  0.00  0.00    +0.192 C 
ATOM     13  C   UNL     1      -2.417   4.355  25.938  0.00  0.00    +0.130 C 
ATOM     14  C   UNL     1      -0.895   2.768  23.147  0.00  0.00    +0.235 C 
ATOM     15  C   UNL     1      -1.837   3.041  26.430  0.00  0.00    +0.185 C 
ATOM     16  C   UNL     1       0.095   3.744  23.739  0.00  0.00    +0.207 C 
ENDROOT
BRANCH  13   7
ATOM      7  N   UNL     1      -3.857   4.357  26.089  0.00  0.00    -0.306 N 
ATOM      8  N   UNL     1      -4.014   2.106  25.543  0.00  0.00    -0.214 NA
ATOM      9  N   UNL     1      -5.974   3.403  26.075  0.00  0.00    -0.223 NA
ATOM     17  C   UNL     1      -4.649   3.240  25.894  0.00  0.00    +0.216 A 
ATOM     19  C   UNL     1      -4.816   1.037  25.361  0.00  0.00    +0.076 A 
ATOM     20  C   UNL     1      -6.716   2.294  25.876  0.00  0.00    +0.116 A 
ATOM     21  C   UNL     1      -6.187   1.072  25.515  0.00  0.00    +0.048 A 
ATOM     40  H   UNL     1      -4.323   5.201  26.404  0.00  0.00    +0.149 HD
BRANCH  19  23
ATOM      1  F   UNL     1      -0.962  -1.862  25.551  0.00  0.00    -0.205 F 
ATOM     23  C   UNL     1      -4.139  -0.182  24.986  0.00  0.00    +0.003 A 
ATOM     26  C   UNL     1      -2.852  -0.438  25.459  0.00  0.00    +0.048 A 
ATOM     27  C   UNL     1      -4.771  -1.102  24.150  0.00  0.00    +0.010 A 
ATOM     31  C   UNL     1      -2.198  -1.616  25.097  0.00  0.00    +0.124 A 
ATOM     32  C   UNL     1      -4.117  -2.279  23.788  0.00  0.00    +0.003 A 
ATOM     33  C   UNL     1      -2.830  -2.536  24.262  0.00  0.00    +0.038 A 
ENDBRANCH  19  23
ENDBRANCH  13   7
BRANCH  14   4
ATOM      4  O   UNL     1      -0.363   1.465  23.051  0.00  0.00    -0.442 OA
BRANCH   4  18
ATOM      5  O   UNL     1       1.066   1.599  24.832  0.00  0.00    -0.226 OA
ATOM     10  N   UNL     1       1.690   0.561  22.829  0.00  0.00    -0.251 N 
ATOM     18  C   UNL     1       0.841   1.236  23.684  0.00  0.00    +0.405 C 
ATOM     41  H   UNL     1       1.321   0.344  21.906  0.00  0.00    +0.158 HD
BRANCH  10  22
ATOM     22  C   UNL     1       3.015   0.131  23.077  0.00  0.00    +0.037 A 
ATOM     24  C   UNL     1       4.083   0.993  22.832  0.00  0.00    +0.027 A 
ATOM     25  C   UNL     1       3.252  -1.153  23.566  0.00  0.00    +0.027 A 
ATOM     28  C   UNL     1       5.390   0.570  23.076  0.00  0.00    +0.048 A 
ATOM     29  C   UNL     1       4.558  -1.576  23.810  0.00  0.00    +0.048 A 
ATOM     30  C   UNL     1       5.627  -0.715  23.564  0.00  0.00    +0.129 A 
BRANCH  30   6
ATOM      6  O   UNL     1       6.902  -1.127  23.802  0.00  0.00    -0.456 OA
BRANCH   6  34
ATOM     34  C   UNL     1       7.925  -0.220  23.584  0.00  0.00    +0.128 A 
ATOM     35  C   UNL     1       7.867   1.048  24.161  0.00  0.00    +0.046 A 
ATOM     36  C   UNL     1       9.013  -0.573  22.786  0.00  0.00    +0.046 A 
ATOM     37  C   UNL     1       8.897   1.962  23.942  0.00  0.00    +0.004 A 
ATOM     38  C   UNL     1      10.043   0.341  22.567  0.00  0.00    +0.004 A 
ATOM     39  C   UNL     1       9.985   1.608  23.145  0.00  0.00    +0.000 A 
ENDBRANCH   6  34
ENDBRANCH  30   6
ENDBRANCH  10  22
ENDBRANCH   4  18
ENDBRANCH  14   4
TORSDOF 7
ENDMDL
