MODEL 1
REMARK VINA RESULT:       1.3      0.000      0.000
REMARK  Name = 26742858
REMARK  5 active torsions:
REMARK  status: ('A' for Active; 'I' for Inactive)
REMARK    1  A    between atoms: N_8  and  C_21
REMARK    2  A    between atoms: N_9  and  C_23
REMARK    3  A    between atoms: N_10  and  C_27
REMARK    4  A    between atoms: C_21  and  C_23
REMARK    5  A    between atoms: C_30  and  C_33
REMARK                            x       y       z     vdW  Elec       q    Type
REMARK                         _______ _______ _______ _____ _____    ______ ____
ROOT
ATOM      4  O   UNL     1      -5.929   2.290  26.984  0.00  0.00    -0.276 OA
ATOM      5  O   UNL     1       0.149  -0.535  25.384  0.00  0.00    -0.252 OA
ATOM      7  N   UNL     1      -1.863  -0.531  24.246  0.00  0.00    -0.285 N 
ATOM      8  N   UNL     1      -4.796   3.219  25.186  0.00  0.00    -0.300 N 
ATOM     10  N   UNL     1       0.096   0.286  23.216  0.00  0.00    -0.269 N 
ATOM     12  C   UNL     1      -3.853   0.680  23.389  0.00  0.00    +0.011 C 
ATOM     13  C   UNL     1      -4.653   0.139  24.601  0.00  0.00    +0.004 C 
ATOM     14  C   UNL     1      -3.735  -0.180  25.797  0.00  0.00    +0.023 C 
ATOM     15  C   UNL     1      -2.704  -0.294  23.063  0.00  0.00    +0.113 C 
ATOM     16  C   UNL     1      -3.305   2.111  23.549  0.00  0.00    +0.024 C 
ATOM     17  C   UNL     1      -5.863   0.998  24.987  0.00  0.00    +0.100 C 
ATOM     18  C   UNL     1      -2.585  -1.099  25.384  0.00  0.00    +0.109 C 
ATOM     19  C   UNL     1      -4.393   3.153  23.783  0.00  0.00    +0.108 C 
ATOM     20  C   UNL     1      -5.538   2.226  25.816  0.00  0.00    +0.216 C 
ATOM     22  C   UNL     1      -0.477  -0.284  24.352  0.00  0.00    +0.306 C 
ATOM     34  H   UNL     1      -0.491   0.869  22.627  0.00  0.00    +0.156 HD
ENDROOT
BRANCH  10  27
ATOM     27  C   UNL     1       1.425   0.131  22.753  0.00  0.00    +0.035 A 
ATOM     28  C   UNL     1       2.490   0.203  23.651  0.00  0.00    +0.035 A 
ATOM     29  C   UNL     1       1.670  -0.097  21.399  0.00  0.00    +0.023 A 
ATOM     30  C   UNL     1       3.799   0.048  23.196  0.00  0.00    +0.057 A 
ATOM     31  C   UNL     1       2.979  -0.251  20.943  0.00  0.00    +0.002 A 
ATOM     32  C   UNL     1       4.043  -0.179  21.841  0.00  0.00    +0.012 A 
BRANCH  30  33
ATOM      1  F   UNL     1       6.090   0.562  23.568  0.00  0.00    -0.166 F 
ATOM      2  F   UNL     1       4.715   0.976  25.200  0.00  0.00    -0.166 F 
ATOM      3  F   UNL     1       5.251  -1.072  24.731  0.00  0.00    -0.166 F 
ATOM     33  C   UNL     1       4.938   0.126  24.155  0.00  0.00    +0.417 C 
ENDBRANCH  30  33
ENDBRANCH  10  27
BRANCH   8  21
ATOM     21  C   UNL     1      -4.368   4.394  25.932  0.00  0.00    +0.126 C 
BRANCH  21  23
ATOM     23  C   UNL     1      -3.156   4.111  26.803  0.00  0.00    +0.128 C 
BRANCH  23   9
ATOM      6  O   UNL     1      -1.828   6.069  24.949  0.00  0.00    -0.253 OA
ATOM      9  N   UNL     1      -1.954   3.973  26.026  0.00  0.00    -0.283 N 
ATOM     11  N   UNL     1      -0.212   4.400  24.650  0.00  0.00    -0.298 N 
ATOM     24  C   UNL     1      -1.114   2.790  26.098  0.00  0.00    +0.128 C 
ATOM     25  C   UNL     1      -0.010   3.042  25.083  0.00  0.00    +0.124 C 
ATOM     26  C   UNL     1      -1.390   4.950  25.183  0.00  0.00    +0.302 C 
ATOM     35  H   UNL     1       0.395   4.890  24.000  0.00  0.00    +0.150 HD
ENDBRANCH  23   9
ENDBRANCH  21  23
ENDBRANCH   8  21
TORSDOF 5
ENDMDL
