MODEL 1
REMARK VINA RESULT:      -3.3      0.000      0.000
REMARK  Name = 45783479
REMARK  11 active torsions:
REMARK  status: ('A' for Active; 'I' for Inactive)
REMARK    1  A    between atoms: O_3  and  C_22
REMARK    2  A    between atoms: O_4  and  C_28
REMARK    3  A    between atoms: O_4  and  C_29
REMARK    4  A    between atoms: N_5  and  C_14
REMARK    5  A    between atoms: N_9  and  C_26
REMARK    6  A    between atoms: N_9  and  C_27
REMARK    7  A    between atoms: C_10  and  C_15
REMARK    8  A    between atoms: C_14  and  C_16
REMARK    9  A    between atoms: C_18  and  C_21
REMARK   10  A    between atoms: C_19  and  C_22
REMARK   11  A    between atoms: C_27  and  C_28
REMARK                            x       y       z     vdW  Elec       q    Type
REMARK                         _______ _______ _______ _____ _____    ______ ____
ROOT
ATOM      1  O   UNL     1      -1.972   2.348  25.687  0.00  0.00    -0.336 OA
ATOM      6  N   UNL     1      -1.748   1.652  23.570  0.00  0.00    -0.190 NA
ATOM      7  N   UNL     1      -0.612   2.065  25.512  0.00  0.00    -0.056 NA
ATOM     15  C   UNL     1      -2.569   2.078  24.497  0.00  0.00    +0.245 A 
ATOM     18  C   UNL     1      -0.559   1.660  24.239  0.00  0.00    +0.204 A 
ENDROOT
BRANCH  18  21
ATOM      8  N   UNL     1       2.978   1.729  23.095  0.00  0.00    -0.240 NA
ATOM     21  C   UNL     1       0.663   1.256  23.607  0.00  0.00    +0.041 A 
ATOM     23  C   UNL     1       0.749   0.053  22.915  0.00  0.00    +0.016 A 
ATOM     24  C   UNL     1       1.796   2.051  23.668  0.00  0.00    +0.124 A 
ATOM     25  C   UNL     1       1.948  -0.312  22.312  0.00  0.00    +0.044 A 
ATOM     26  C   UNL     1       3.023   0.553  22.431  0.00  0.00    +0.119 A 
BRANCH  26   9
ATOM      9  N   UNL     1       4.238   0.166  21.813  0.00  0.00    -0.327 N 
ATOM     31  H   UNL     1       4.178  -0.125  20.843  0.00  0.00    +0.148 HD
BRANCH   9  27
ATOM     27  C   UNL     1       5.488   0.174  22.499  0.00  0.00    +0.131 C 
BRANCH  27  28
ATOM     28  C   UNL     1       5.262   0.353  23.991  0.00  0.00    +0.178 C 
BRANCH  28   4
ATOM      4  O   UNL     1       5.487  -0.884  24.655  0.00  0.00    -0.381 OA
ATOM     29  C   UNL     1       4.797  -1.950  24.018  0.00  0.00    +0.194 C 
ENDBRANCH  28   4
ENDBRANCH  27  28
ENDBRANCH   9  27
ENDBRANCH  26   9
ENDBRANCH  18  21
BRANCH  15  10
ATOM      5  N   UNL     1      -4.839   1.213  25.037  0.00  0.00    -0.284 NA
ATOM     10  C   UNL     1      -4.064   2.309  24.423  0.00  0.00    +0.146 C 
ATOM     11  C   UNL     1      -4.509   3.575  25.180  0.00  0.00    +0.030 C 
ATOM     12  C   UNL     1      -5.576   3.099  26.155  0.00  0.00    +0.017 C 
ATOM     13  C   UNL     1      -6.078   1.811  25.536  0.00  0.00    +0.085 C 
BRANCH   5  14
ATOM     14  C   UNL     1      -5.093   0.106  24.123  0.00  0.00    +0.159 C 
BRANCH  14  16
ATOM      2  O   UNL     1      -2.939  -0.697  24.920  0.00  0.00    -0.461 OA
ATOM     16  C   UNL     1      -4.114  -1.020  24.320  0.00  0.00    +0.119 A 
ATOM     17  C   UNL     1      -4.148  -2.361  24.012  0.00  0.00    +0.046 A 
ATOM     19  C   UNL     1      -2.214  -1.844  24.997  0.00  0.00    +0.131 A 
ATOM     20  C   UNL     1      -2.913  -2.895  24.452  0.00  0.00    +0.047 A 
BRANCH  19  22
ATOM     22  C   UNL     1      -0.887  -1.735  25.620  0.00  0.00    +0.230 C 
BRANCH  22   3
ATOM      3  O   UNL     1      -0.849  -0.617  26.511  0.00  0.00    -0.387 OA
ATOM     30  H   UNL     1       0.088  -0.408  26.662  0.00  0.00    +0.210 HD
ENDBRANCH  22   3
ENDBRANCH  19  22
ENDBRANCH  14  16
ENDBRANCH   5  14
ENDBRANCH  15  10
TORSDOF 10
ENDMDL
MODEL 2
REMARK VINA RESULT:      -2.5     17.582     19.036
REMARK  Name = 45783479
REMARK  11 active torsions:
REMARK  status: ('A' for Active; 'I' for Inactive)
REMARK    1  A    between atoms: O_3  and  C_22
REMARK    2  A    between atoms: O_4  and  C_28
REMARK    3  A    between atoms: O_4  and  C_29
REMARK    4  A    between atoms: N_5  and  C_14
REMARK    5  A    between atoms: N_9  and  C_26
REMARK    6  A    between atoms: N_9  and  C_27
REMARK    7  A    between atoms: C_10  and  C_15
REMARK    8  A    between atoms: C_14  and  C_16
REMARK    9  A    between atoms: C_18  and  C_21
REMARK   10  A    between atoms: C_19  and  C_22
REMARK   11  A    between atoms: C_27  and  C_28
REMARK                            x       y       z     vdW  Elec       q    Type
REMARK                         _______ _______ _______ _____ _____    ______ ____
ROOT
ATOM      1  O   UNL     1      14.069  -7.577  29.912  0.00  0.00    -0.336 OA
ATOM      6  N   UNL     1      15.185  -8.754  28.368  0.00  0.00    -0.190 NA
ATOM      7  N   UNL     1      14.458  -6.659  28.929  0.00  0.00    -0.056 NA
ATOM     15  C   UNL     1      14.536  -8.786  29.505  0.00  0.00    +0.245 A 
ATOM     18  C   UNL     1      15.112  -7.428  28.053  0.00  0.00    +0.204 A 
ENDROOT
BRANCH  18  21
ATOM      8  N   UNL     1      16.386  -4.981  25.560  0.00  0.00    -0.240 NA
ATOM     21  C   UNL     1      15.703  -6.904  26.856  0.00  0.00    +0.041 A 
ATOM     23  C   UNL     1      16.157  -7.752  25.851  0.00  0.00    +0.016 A 
ATOM     24  C   UNL     1      15.839  -5.539  26.664  0.00  0.00    +0.124 A 
ATOM     25  C   UNL     1      16.726  -7.214  24.701  0.00  0.00    +0.044 A 
ATOM     26  C   UNL     1      16.817  -5.836  24.606  0.00  0.00    +0.119 A 
BRANCH  26   9
ATOM      9  N   UNL     1      17.399  -5.304  23.429  0.00  0.00    -0.327 N 
ATOM     31  H   UNL     1      17.829  -5.971  22.797  0.00  0.00    +0.148 HD
BRANCH   9  27
ATOM     27  C   UNL     1      17.398  -3.909  23.131  0.00  0.00    +0.131 C 
BRANCH  27  28
ATOM     28  C   UNL     1      16.006  -3.469  22.710  0.00  0.00    +0.178 C 
BRANCH  28   4
ATOM      4  O   UNL     1      15.613  -2.341  23.481  0.00  0.00    -0.381 OA
ATOM     29  C   UNL     1      16.731  -1.537  23.833  0.00  0.00    +0.194 C 
ENDBRANCH  28   4
ENDBRANCH  27  28
ENDBRANCH   9  27
ENDBRANCH  26   9
ENDBRANCH  18  21
BRANCH  15  10
ATOM      5  N   UNL     1      14.112  -9.576  31.826  0.00  0.00    -0.284 NA
ATOM     10  C   UNL     1      14.240  -9.964  30.408  0.00  0.00    +0.146 C 
ATOM     11  C   UNL     1      12.905 -10.653  30.069  0.00  0.00    +0.030 C 
ATOM     12  C   UNL     1      12.118 -10.657  31.372  0.00  0.00    +0.017 C 
ATOM     13  C   UNL     1      13.189 -10.533  32.436  0.00  0.00    +0.085 C 
BRANCH   5  14
ATOM     14  C   UNL     1      15.390  -9.523  32.526  0.00  0.00    +0.159 C 
BRANCH  14  16
ATOM      2  O   UNL     1      15.000  -7.127  32.691  0.00  0.00    -0.461 OA
ATOM     16  C   UNL     1      15.924  -8.119  32.613  0.00  0.00    +0.119 A 
ATOM     17  C   UNL     1      17.197  -7.596  32.630  0.00  0.00    +0.046 A 
ATOM     19  C   UNL     1      15.688  -5.957  32.760  0.00  0.00    +0.131 A 
ATOM     20  C   UNL     1      17.043  -6.192  32.725  0.00  0.00    +0.047 A 
BRANCH  19  22
ATOM     22  C   UNL     1      14.882  -4.732  32.853  0.00  0.00    +0.230 C 
BRANCH  22   3
ATOM      3  O   UNL     1      15.729  -3.580  32.834  0.00  0.00    -0.387 OA
ATOM     30  H   UNL     1      16.323  -3.654  33.600  0.00  0.00    +0.210 HD
ENDBRANCH  22   3
ENDBRANCH  19  22
ENDBRANCH  14  16
ENDBRANCH   5  14
ENDBRANCH  15  10
TORSDOF 10
ENDMDL
MODEL 3
REMARK VINA RESULT:      -2.1     15.702     19.068
REMARK  Name = 45783479
REMARK  11 active torsions:
REMARK  status: ('A' for Active; 'I' for Inactive)
REMARK    1  A    between atoms: O_3  and  C_22
REMARK    2  A    between atoms: O_4  and  C_28
REMARK    3  A    between atoms: O_4  and  C_29
REMARK    4  A    between atoms: N_5  and  C_14
REMARK    5  A    between atoms: N_9  and  C_26
REMARK    6  A    between atoms: N_9  and  C_27
REMARK    7  A    between atoms: C_10  and  C_15
REMARK    8  A    between atoms: C_14  and  C_16
REMARK    9  A    between atoms: C_18  and  C_21
REMARK   10  A    between atoms: C_19  and  C_22
REMARK   11  A    between atoms: C_27  and  C_28
REMARK                            x       y       z     vdW  Elec       q    Type
REMARK                         _______ _______ _______ _____ _____    ______ ____
ROOT
ATOM      1  O   UNL     1      17.347  -6.510  28.938  0.00  0.00    -0.336 OA
ATOM      6  N   UNL     1      17.189  -6.984  26.755  0.00  0.00    -0.190 NA
ATOM      7  N   UNL     1      17.400  -5.281  28.268  0.00  0.00    -0.056 NA
ATOM     15  C   UNL     1      17.223  -7.460  27.975  0.00  0.00    +0.245 A 
ATOM     18  C   UNL     1      17.301  -5.644  26.985  0.00  0.00    +0.204 A 
ENDROOT
BRANCH  18  21
ATOM      8  N   UNL     1      17.245  -2.386  25.194  0.00  0.00    -0.240 NA
ATOM     21  C   UNL     1      17.312  -4.694  25.911  0.00  0.00    +0.041 A 
ATOM     23  C   UNL     1      17.395  -5.110  24.587  0.00  0.00    +0.016 A 
ATOM     24  C   UNL     1      17.240  -3.333  26.160  0.00  0.00    +0.124 A 
ATOM     25  C   UNL     1      17.404  -4.165  23.566  0.00  0.00    +0.044 A 
ATOM     26  C   UNL     1      17.328  -2.828  23.919  0.00  0.00    +0.119 A 
BRANCH  26   9
ATOM      9  N   UNL     1      17.339  -1.878  22.869  0.00  0.00    -0.327 N 
ATOM     31  H   UNL     1      18.214  -1.389  22.711  0.00  0.00    +0.148 HD
BRANCH   9  27
ATOM     27  C   UNL     1      16.192  -1.603  22.067  0.00  0.00    +0.131 C 
BRANCH  27  28
ATOM     28  C   UNL     1      15.113  -2.639  22.330  0.00  0.00    +0.178 C 
BRANCH  28   4
ATOM      4  O   UNL     1      13.861  -2.146  21.870  0.00  0.00    -0.381 OA
ATOM     29  C   UNL     1      13.018  -3.200  21.425  0.00  0.00    +0.194 C 
ENDBRANCH  28   4
ENDBRANCH  27  28
ENDBRANCH   9  27
ENDBRANCH  26   9
ENDBRANCH  18  21
BRANCH  15  10
ATOM      5  N   UNL     1      16.117  -9.094  29.491  0.00  0.00    -0.284 NA
ATOM     10  C   UNL     1      17.142  -8.896  28.448  0.00  0.00    +0.146 C 
ATOM     11  C   UNL     1      16.748  -9.872  27.323  0.00  0.00    +0.030 C 
ATOM     12  C   UNL     1      15.528 -10.614  27.850  0.00  0.00    +0.017 C 
ATOM     13  C   UNL     1      15.646 -10.472  29.354  0.00  0.00    +0.085 C 
BRANCH   5  14
ATOM     14  C   UNL     1      16.604  -8.812  30.836  0.00  0.00    +0.159 C 
BRANCH  14  16
ATOM      2  O   UNL     1      14.603  -7.428  30.907  0.00  0.00    -0.461 OA
ATOM     16  C   UNL     1      15.748  -7.793  31.541  0.00  0.00    +0.119 A 
ATOM     17  C   UNL     1      15.875  -7.121  32.734  0.00  0.00    +0.046 A 
ATOM     19  C   UNL     1      13.991  -6.514  31.705  0.00  0.00    +0.131 A 
ATOM     20  C   UNL     1      14.735  -6.290  32.840  0.00  0.00    +0.047 A 
BRANCH  19  22
ATOM     22  C   UNL     1      12.716  -5.972  31.215  0.00  0.00    +0.230 C 
BRANCH  22   3
ATOM      3  O   UNL     1      12.055  -6.933  30.388  0.00  0.00    -0.387 OA
ATOM     30  H   UNL     1      12.736  -7.335  29.822  0.00  0.00    +0.210 HD
ENDBRANCH  22   3
ENDBRANCH  19  22
ENDBRANCH  14  16
ENDBRANCH   5  14
ENDBRANCH  15  10
TORSDOF 10
ENDMDL
MODEL 4
REMARK VINA RESULT:      -1.9      1.715      3.344
REMARK  Name = 45783479
REMARK  11 active torsions:
REMARK  status: ('A' for Active; 'I' for Inactive)
REMARK    1  A    between atoms: O_3  and  C_22
REMARK    2  A    between atoms: O_4  and  C_28
REMARK    3  A    between atoms: O_4  and  C_29
REMARK    4  A    between atoms: N_5  and  C_14
REMARK    5  A    between atoms: N_9  and  C_26
REMARK    6  A    between atoms: N_9  and  C_27
REMARK    7  A    between atoms: C_10  and  C_15
REMARK    8  A    between atoms: C_14  and  C_16
REMARK    9  A    between atoms: C_18  and  C_21
REMARK   10  A    between atoms: C_19  and  C_22
REMARK   11  A    between atoms: C_27  and  C_28
REMARK                            x       y       z     vdW  Elec       q    Type
REMARK                         _______ _______ _______ _____ _____    ______ ____
ROOT
ATOM      1  O   UNL     1      -3.519  -0.677  25.072  0.00  0.00    -0.336 OA
ATOM      6  N   UNL     1      -2.432   1.232  24.637  0.00  0.00    -0.190 NA
ATOM      7  N   UNL     1      -2.278  -1.048  24.540  0.00  0.00    -0.056 NA
ATOM     15  C   UNL     1      -3.529   0.681  25.094  0.00  0.00    +0.245 A 
ATOM     18  C   UNL     1      -1.695   0.132  24.309  0.00  0.00    +0.204 A 
ENDROOT
BRANCH  18  21
ATOM      8  N   UNL     1       1.734   1.418  23.665  0.00  0.00    -0.240 NA
ATOM     21  C   UNL     1      -0.379   0.247  23.750  0.00  0.00    +0.041 A 
ATOM     23  C   UNL     1       0.072  -0.651  22.789  0.00  0.00    +0.016 A 
ATOM     24  C   UNL     1       0.482   1.255  24.151  0.00  0.00    +0.124 A 
ATOM     25  C   UNL     1       1.354  -0.515  22.266  0.00  0.00    +0.044 A 
ATOM     26  C   UNL     1       2.138   0.526  22.733  0.00  0.00    +0.119 A 
BRANCH  26   9
ATOM      9  N   UNL     1       3.441   0.651  22.191  0.00  0.00    -0.327 N 
ATOM     31  H   UNL     1       3.570   0.312  21.243  0.00  0.00    +0.148 HD
BRANCH   9  27
ATOM     27  C   UNL     1       4.528   1.215  22.921  0.00  0.00    +0.131 C 
BRANCH  27  28
ATOM     28  C   UNL     1       5.578   0.151  23.196  0.00  0.00    +0.178 C 
BRANCH  28   4
ATOM      4  O   UNL     1       5.172  -0.636  24.308  0.00  0.00    -0.381 OA
ATOM     29  C   UNL     1       4.610  -1.874  23.893  0.00  0.00    +0.194 C 
ENDBRANCH  28   4
ENDBRANCH  27  28
ENDBRANCH   9  27
ENDBRANCH  26   9
ENDBRANCH  18  21
BRANCH  15  10
ATOM      5  N   UNL     1      -4.827   2.788  25.358  0.00  0.00    -0.284 NA
ATOM     10  C   UNL     1      -4.780   1.339  25.637  0.00  0.00    +0.146 C 
ATOM     11  C   UNL     1      -6.068   0.778  25.006  0.00  0.00    +0.030 C 
ATOM     12  C   UNL     1      -6.800   1.992  24.452  0.00  0.00    +0.017 C 
ATOM     13  C   UNL     1      -6.242   3.145  25.259  0.00  0.00    +0.085 C 
BRANCH   5  14
ATOM     14  C   UNL     1      -4.127   3.588  26.355  0.00  0.00    +0.159 C 
BRANCH  14  16
ATOM      2  O   UNL     1      -1.733   3.189  26.535  0.00  0.00    -0.461 OA
ATOM     16  C   UNL     1      -2.717   3.905  25.932  0.00  0.00    +0.119 A 
ATOM     17  C   UNL     1      -2.183   4.799  25.033  0.00  0.00    +0.046 A 
ATOM     19  C   UNL     1      -0.557   3.629  26.015  0.00  0.00    +0.131 A 
ATOM     20  C   UNL     1      -0.781   4.620  25.088  0.00  0.00    +0.047 A 
BRANCH  19  22
ATOM     22  C   UNL     1       0.662   2.987  26.527  0.00  0.00    +0.230 C 
BRANCH  22   3
ATOM      3  O   UNL     1       0.364   2.221  27.697  0.00  0.00    -0.387 OA
ATOM     30  H   UNL     1      -0.591   2.044  27.684  0.00  0.00    +0.210 HD
ENDBRANCH  22   3
ENDBRANCH  19  22
ENDBRANCH  14  16
ENDBRANCH   5  14
ENDBRANCH  15  10
TORSDOF 10
ENDMDL
MODEL 5
REMARK VINA RESULT:      -0.5      1.467      2.050
REMARK  Name = 45783479
REMARK  11 active torsions:
REMARK  status: ('A' for Active; 'I' for Inactive)
REMARK    1  A    between atoms: O_3  and  C_22
REMARK    2  A    between atoms: O_4  and  C_28
REMARK    3  A    between atoms: O_4  and  C_29
REMARK    4  A    between atoms: N_5  and  C_14
REMARK    5  A    between atoms: N_9  and  C_26
REMARK    6  A    between atoms: N_9  and  C_27
REMARK    7  A    between atoms: C_10  and  C_15
REMARK    8  A    between atoms: C_14  and  C_16
REMARK    9  A    between atoms: C_18  and  C_21
REMARK   10  A    between atoms: C_19  and  C_22
REMARK   11  A    between atoms: C_27  and  C_28
REMARK                            x       y       z     vdW  Elec       q    Type
REMARK                         _______ _______ _______ _____ _____    ______ ____
ROOT
ATOM      1  O   UNL     1      -2.122   3.791  25.061  0.00  0.00    -0.336 OA
ATOM      6  N   UNL     1      -2.169   1.925  23.824  0.00  0.00    -0.190 NA
ATOM      7  N   UNL     1      -0.795   3.354  24.965  0.00  0.00    -0.056 NA
ATOM     15  C   UNL     1      -2.866   2.894  24.362  0.00  0.00    +0.245 A 
ATOM     18  C   UNL     1      -0.905   2.249  24.221  0.00  0.00    +0.204 A 
ENDROOT
BRANCH  18  21
ATOM      8  N   UNL     1       1.156  -0.743  23.427  0.00  0.00    -0.240 NA
ATOM     21  C   UNL     1       0.228   1.448  23.858  0.00  0.00    +0.041 A 
ATOM     23  C   UNL     1       1.461   2.031  23.590  0.00  0.00    +0.016 A 
ATOM     24  C   UNL     1       0.128   0.070  23.763  0.00  0.00    +0.124 A 
ATOM     25  C   UNL     1       2.542   1.228  23.240  0.00  0.00    +0.044 A 
ATOM     26  C   UNL     1       2.339  -0.140  23.173  0.00  0.00    +0.119 A 
BRANCH  26   9
ATOM      9  N   UNL     1       3.449  -0.944  22.814  0.00  0.00    -0.327 N 
ATOM     31  H   UNL     1       3.756  -0.886  21.849  0.00  0.00    +0.148 HD
BRANCH   9  27
ATOM     27  C   UNL     1       4.111  -1.800  23.743  0.00  0.00    +0.131 C 
BRANCH  27  28
ATOM     28  C   UNL     1       5.377  -1.133  24.254  0.00  0.00    +0.178 C 
BRANCH  28   4
ATOM      4  O   UNL     1       5.781  -0.122  23.341  0.00  0.00    -0.381 OA
ATOM     29  C   UNL     1       6.051   1.103  24.007  0.00  0.00    +0.194 C 
ENDBRANCH  28   4
ENDBRANCH  27  28
ENDBRANCH   9  27
ENDBRANCH  26   9
ENDBRANCH  18  21
BRANCH  15  10
ATOM      5  N   UNL     1      -5.111   2.299  25.255  0.00  0.00    -0.284 NA
ATOM     10  C   UNL     1      -4.358   3.147  24.311  0.00  0.00    +0.146 C 
ATOM     11  C   UNL     1      -4.730   4.591  24.698  0.00  0.00    +0.030 C 
ATOM     12  C   UNL     1      -5.741   4.450  25.828  0.00  0.00    +0.017 C 
ATOM     13  C   UNL     1      -6.304   3.058  25.632  0.00  0.00    +0.085 C 
BRANCH   5  14
ATOM     14  C   UNL     1      -5.443   0.988  24.713  0.00  0.00    +0.159 C 
BRANCH  14  16
ATOM      2  O   UNL     1      -4.209  -1.041  24.181  0.00  0.00    -0.461 OA
ATOM     16  C   UNL     1      -4.419  -0.050  25.087  0.00  0.00    +0.119 A 
ATOM     17  C   UNL     1      -3.617  -0.226  26.191  0.00  0.00    +0.046 A 
ATOM     19  C   UNL     1      -3.261  -1.858  24.711  0.00  0.00    +0.131 A 
ATOM     20  C   UNL     1      -2.865  -1.400  25.946  0.00  0.00    +0.047 A 
BRANCH  19  22
ATOM     22  C   UNL     1      -2.868  -3.014  23.894  0.00  0.00    +0.230 C 
BRANCH  22   3
ATOM      3  O   UNL     1      -3.911  -3.992  23.885  0.00  0.00    -0.387 OA
ATOM     30  H   UNL     1      -4.300  -3.982  22.995  0.00  0.00    +0.210 HD
ENDBRANCH  22   3
ENDBRANCH  19  22
ENDBRANCH  14  16
ENDBRANCH   5  14
ENDBRANCH  15  10
TORSDOF 10
ENDMDL
MODEL 6
REMARK VINA RESULT:       0.1     16.790     19.078
REMARK  Name = 45783479
REMARK  11 active torsions:
REMARK  status: ('A' for Active; 'I' for Inactive)
REMARK    1  A    between atoms: O_3  and  C_22
REMARK    2  A    between atoms: O_4  and  C_28
REMARK    3  A    between atoms: O_4  and  C_29
REMARK    4  A    between atoms: N_5  and  C_14
REMARK    5  A    between atoms: N_9  and  C_26
REMARK    6  A    between atoms: N_9  and  C_27
REMARK    7  A    between atoms: C_10  and  C_15
REMARK    8  A    between atoms: C_14  and  C_16
REMARK    9  A    between atoms: C_18  and  C_21
REMARK   10  A    between atoms: C_19  and  C_22
REMARK   11  A    between atoms: C_27  and  C_28
REMARK                            x       y       z     vdW  Elec       q    Type
REMARK                         _______ _______ _______ _____ _____    ______ ____
ROOT
ATOM      1  O   UNL     1      15.208  -7.123  29.267  0.00  0.00    -0.336 OA
ATOM      6  N   UNL     1      17.038  -7.526  28.040  0.00  0.00    -0.190 NA
ATOM      7  N   UNL     1      15.088  -6.333  28.116  0.00  0.00    -0.056 NA
ATOM     15  C   UNL     1      16.383  -7.793  29.142  0.00  0.00    +0.245 A 
ATOM     18  C   UNL     1      16.205  -6.626  27.443  0.00  0.00    +0.204 A 
ENDROOT
BRANCH  18  21
ATOM      8  N   UNL     1      16.735  -4.047  24.817  0.00  0.00    -0.240 NA
ATOM     21  C   UNL     1      16.517  -6.037  26.173  0.00  0.00    +0.041 A 
ATOM     23  C   UNL     1      16.894  -6.824  25.091  0.00  0.00    +0.016 A 
ATOM     24  C   UNL     1      16.454  -4.666  25.987  0.00  0.00    +0.124 A 
ATOM     25  C   UNL     1      17.192  -6.224  23.872  0.00  0.00    +0.044 A 
ATOM     26  C   UNL     1      17.099  -4.845  23.788  0.00  0.00    +0.119 A 
BRANCH  26   9
ATOM      9  N   UNL     1      17.405  -4.249  22.540  0.00  0.00    -0.327 N 
ATOM     31  H   UNL     1      17.886  -4.835  21.866  0.00  0.00    +0.148 HD
BRANCH   9  27
ATOM     27  C   UNL     1      17.071  -2.898  22.229  0.00  0.00    +0.131 C 
BRANCH  27  28
ATOM     28  C   UNL     1      16.063  -2.366  23.234  0.00  0.00    +0.178 C 
BRANCH  28   4
ATOM      4  O   UNL     1      16.303  -0.983  23.458  0.00  0.00    -0.381 OA
ATOM     29  C   UNL     1      17.179  -0.777  24.557  0.00  0.00    +0.194 C 
ENDBRANCH  28   4
ENDBRANCH  27  28
ENDBRANCH   9  27
ENDBRANCH  26   9
ENDBRANCH  18  21
BRANCH  15  10
ATOM      5  N   UNL     1      15.908  -8.535  31.469  0.00  0.00    -0.284 NA
ATOM     10  C   UNL     1      16.750  -8.730  30.274  0.00  0.00    +0.146 C 
ATOM     11  C   UNL     1      16.565 -10.213  29.902  0.00  0.00    +0.030 C 
ATOM     12  C   UNL     1      15.651 -10.781  30.978  0.00  0.00    +0.017 C 
ATOM     13  C   UNL     1      15.839  -9.832  32.144  0.00  0.00    +0.085 C 
BRANCH   5  14
ATOM     14  C   UNL     1      16.395  -7.483  32.352  0.00  0.00    +0.159 C 
BRANCH  14  16
ATOM      2  O   UNL     1      14.075  -6.781  32.570  0.00  0.00    -0.461 OA
ATOM     16  C   UNL     1      15.376  -6.391  32.540  0.00  0.00    +0.119 A 
ATOM     17  C   UNL     1      15.475  -5.027  32.694  0.00  0.00    +0.046 A 
ATOM     19  C   UNL     1      13.335  -5.655  32.745  0.00  0.00    +0.131 A 
ATOM     20  C   UNL     1      14.150  -4.550  32.827  0.00  0.00    +0.047 A 
BRANCH  19  22
ATOM     22  C   UNL     1      11.878  -5.837  32.809  0.00  0.00    +0.230 C 
BRANCH  22   3
ATOM      3  O   UNL     1      11.488  -6.981  32.046  0.00  0.00    -0.387 OA
ATOM     30  H   UNL     1      12.273  -7.549  31.966  0.00  0.00    +0.210 HD
ENDBRANCH  22   3
ENDBRANCH  19  22
ENDBRANCH  14  16
ENDBRANCH   5  14
ENDBRANCH  15  10
TORSDOF 10
ENDMDL
