MODEL 1
REMARK VINA RESULT:      -2.9      0.000      0.000
REMARK  Name = 38028751
REMARK  11 active torsions:
REMARK  status: ('A' for Active; 'I' for Inactive)
REMARK    1  A    between atoms: S_1  and  N_6
REMARK    2  A    between atoms: S_1  and  C_24
REMARK    3  A    between atoms: N_6  and  C_14
REMARK    4  A    between atoms: C_7  and  C_11
REMARK    5  A    between atoms: C_8  and  C_14
REMARK    6  A    between atoms: C_10  and  C_15
REMARK    7  A    between atoms: C_11  and  C_16
REMARK    8  A    between atoms: C_11  and  C_17
REMARK    9  A    between atoms: C_12  and  C_18
REMARK   10  A    between atoms: C_15  and  C_19
REMARK   11  A    between atoms: C_24  and  C_25
REMARK                            x       y       z     vdW  Elec       q    Type
REMARK                         _______ _______ _______ _____ _____    ______ ____
ROOT
ATOM      7  C   UNL     1      -2.368  -1.275  24.331  0.00  0.00    +0.000 C 
ATOM      8  C   UNL     1      -2.966  -0.538  25.556  0.00  0.00    +0.030 C 
ATOM      9  C   UNL     1      -0.845  -1.409  24.477  0.00  0.00    +0.012 C 
ATOM     10  C   UNL     1      -0.149  -0.041  24.610  0.00  0.00    +0.023 C 
ATOM     12  C   UNL     1      -0.849   0.850  25.616  0.00  0.00    -0.073 C 
ATOM     13  C   UNL     1      -2.102   0.604  26.037  0.00  0.00    -0.023 C 
ATOM     18  C   UNL     1      -0.058   2.005  26.163  0.00  0.00    +0.039 C 
ENDROOT
BRANCH   7  11
ATOM     11  C   UNL     1      -2.995  -2.660  24.139  0.00  0.00    -0.013 C 
ATOM     16  C   UNL     1      -3.190  -3.347  25.486  0.00  0.00    +0.007 C 
ATOM     17  C   UNL     1      -4.321  -2.544  23.393  0.00  0.00    +0.007 C 
ENDBRANCH   7  11
BRANCH   8  14
ATOM     14  C   UNL     1      -4.377  -0.021  25.256  0.00  0.00    +0.113 C 
BRANCH  14   6
ATOM      6  N   UNL     1      -4.428   1.424  25.527  0.00  0.00    -0.194 NA
ATOM     31  H   UNL     1      -3.678   1.757  26.147  0.00  0.00    +0.148 HD
BRANCH   6   1
ATOM      1  S   UNL     1      -5.945   2.183  25.733  0.00  0.00    +0.033 S 
ATOM      3  O   UNL     1      -6.384   2.034  27.106  0.00  0.00    -0.158 OA
ATOM      4  O   UNL     1      -6.807   1.800  24.632  0.00  0.00    -0.158 OA
BRANCH   1  24
ATOM     24  C   UNL     1      -5.493   3.885  25.485  0.00  0.00    +0.220 C 
BRANCH  24  25
ATOM     25  C   UNL     1      -4.061   3.917  25.046  0.00  0.00    -0.025 A 
ATOM     26  C   UNL     1      -3.691   3.341  23.832  0.00  0.00    +0.005 A 
ATOM     27  C   UNL     1      -3.099   4.523  25.853  0.00  0.00    +0.005 A 
ATOM     28  C   UNL     1      -2.357   3.372  23.423  0.00  0.00    +0.000 A 
ATOM     29  C   UNL     1      -1.765   4.553  25.445  0.00  0.00    +0.000 A 
ATOM     30  C   UNL     1      -1.394   3.977  24.230  0.00  0.00    +0.000 A 
ENDBRANCH  24  25
ENDBRANCH   1  24
ENDBRANCH   6   1
ENDBRANCH  14   6
ENDBRANCH   8  14
BRANCH  10  15
ATOM     15  C   UNL     1      -0.032   0.654  23.250  0.00  0.00    +0.103 C 
BRANCH  15  19
ATOM      2  O   UNL     1       0.563  -0.906  21.550  0.00  0.00    -0.276 OA
ATOM      5  N   UNL     1       2.286   0.224  22.595  0.00  0.00    -0.301 N 
ATOM     19  C   UNL     1       0.955  -0.085  22.381  0.00  0.00    +0.216 C 
ATOM     20  C   UNL     1       2.815   1.186  23.558  0.00  0.00    +0.108 C 
ATOM     21  C   UNL     1       3.361  -0.407  21.843  0.00  0.00    +0.108 C 
ATOM     22  C   UNL     1       4.315   0.925  23.570  0.00  0.00    +0.020 C 
ATOM     23  C   UNL     1       4.588   0.437  22.153  0.00  0.00    +0.020 C 
ENDBRANCH  15  19
ENDBRANCH  10  15
TORSDOF 8
ENDMDL
MODEL 2
REMARK VINA RESULT:      -1.9      2.009      6.823
REMARK  Name = 38028751
REMARK  11 active torsions:
REMARK  status: ('A' for Active; 'I' for Inactive)
REMARK    1  A    between atoms: S_1  and  N_6
REMARK    2  A    between atoms: S_1  and  C_24
REMARK    3  A    between atoms: N_6  and  C_14
REMARK    4  A    between atoms: C_7  and  C_11
REMARK    5  A    between atoms: C_8  and  C_14
REMARK    6  A    between atoms: C_10  and  C_15
REMARK    7  A    between atoms: C_11  and  C_16
REMARK    8  A    between atoms: C_11  and  C_17
REMARK    9  A    between atoms: C_12  and  C_18
REMARK   10  A    between atoms: C_15  and  C_19
REMARK   11  A    between atoms: C_24  and  C_25
REMARK                            x       y       z     vdW  Elec       q    Type
REMARK                         _______ _______ _______ _____ _____    ______ ____
ROOT
ATOM      7  C   UNL     1      -1.785  -0.568  25.378  0.00  0.00    +0.000 C 
ATOM      8  C   UNL     1      -1.501  -1.955  24.746  0.00  0.00    +0.030 C 
ATOM      9  C   UNL     1      -3.176  -0.552  26.030  0.00  0.00    +0.012 C 
ATOM     10  C   UNL     1      -4.297  -0.868  25.021  0.00  0.00    +0.023 C 
ATOM     12  C   UNL     1      -3.963  -2.076  24.170  0.00  0.00    -0.073 C 
ATOM     13  C   UNL     1      -2.711  -2.555  24.070  0.00  0.00    -0.023 C 
ATOM     18  C   UNL     1      -5.111  -2.748  23.471  0.00  0.00    +0.039 C 
ENDROOT
BRANCH   7  11
ATOM     11  C   UNL     1      -0.722  -0.187  26.414  0.00  0.00    -0.013 C 
ATOM     16  C   UNL     1      -0.692   1.325  26.612  0.00  0.00    +0.007 C 
ATOM     17  C   UNL     1      -0.988  -0.900  27.735  0.00  0.00    +0.007 C 
ENDBRANCH   7  11
BRANCH   8  14
ATOM     14  C   UNL     1      -0.341  -1.879  23.747  0.00  0.00    +0.113 C 
BRANCH  14   6
ATOM      6  N   UNL     1       0.586  -0.816  24.165  0.00  0.00    -0.194 NA
ATOM     31  H   UNL     1       0.594  -0.647  25.180  0.00  0.00    +0.148 HD
BRANCH   6   1
ATOM      1  S   UNL     1       0.760   0.574  23.187  0.00  0.00    +0.033 S 
ATOM      3  O   UNL     1       1.355   1.646  23.959  0.00  0.00    -0.158 OA
ATOM      4  O   UNL     1      -0.475   0.781  22.455  0.00  0.00    -0.158 OA
BRANCH   1  24
ATOM     24  C   UNL     1       1.976  -0.000  22.022  0.00  0.00    +0.220 C 
BRANCH  24  25
ATOM     25  C   UNL     1       3.279  -0.128  22.749  0.00  0.00    -0.025 A 
ATOM     26  C   UNL     1       4.148   0.960  22.819  0.00  0.00    +0.005 A 
ATOM     27  C   UNL     1       3.622  -1.335  23.357  0.00  0.00    +0.005 A 
ATOM     28  C   UNL     1       5.361   0.841  23.498  0.00  0.00    +0.000 A 
ATOM     29  C   UNL     1       4.835  -1.455  24.035  0.00  0.00    +0.000 A 
ATOM     30  C   UNL     1       5.705  -0.366  24.105  0.00  0.00    +0.000 A 
ENDBRANCH  24  25
ENDBRANCH   1  24
ENDBRANCH   6   1
ENDBRANCH  14   6
ENDBRANCH   8  14
BRANCH  10  15
ATOM     15  C   UNL     1      -4.611   0.351  24.147  0.00  0.00    +0.103 C 
BRANCH  15  19
ATOM      2  O   UNL     1      -5.990   1.575  25.655  0.00  0.00    -0.276 OA
ATOM      5  N   UNL     1      -3.986   2.542  25.036  0.00  0.00    -0.301 N 
ATOM     19  C   UNL     1      -4.936   1.537  25.019  0.00  0.00    +0.216 C 
ATOM     20  C   UNL     1      -2.719   2.559  24.310  0.00  0.00    +0.108 C 
ATOM     21  C   UNL     1      -4.153   3.756  25.822  0.00  0.00    +0.108 C 
ATOM     22  C   UNL     1      -2.214   3.987  24.462  0.00  0.00    +0.020 C 
ATOM     23  C   UNL     1      -2.779   4.407  25.812  0.00  0.00    +0.020 C 
ENDBRANCH  15  19
ENDBRANCH  10  15
TORSDOF 8
ENDMDL
MODEL 3
REMARK VINA RESULT:      -1.8      2.505      6.174
REMARK  Name = 38028751
REMARK  11 active torsions:
REMARK  status: ('A' for Active; 'I' for Inactive)
REMARK    1  A    between atoms: S_1  and  N_6
REMARK    2  A    between atoms: S_1  and  C_24
REMARK    3  A    between atoms: N_6  and  C_14
REMARK    4  A    between atoms: C_7  and  C_11
REMARK    5  A    between atoms: C_8  and  C_14
REMARK    6  A    between atoms: C_10  and  C_15
REMARK    7  A    between atoms: C_11  and  C_16
REMARK    8  A    between atoms: C_11  and  C_17
REMARK    9  A    between atoms: C_12  and  C_18
REMARK   10  A    between atoms: C_15  and  C_19
REMARK   11  A    between atoms: C_24  and  C_25
REMARK                            x       y       z     vdW  Elec       q    Type
REMARK                         _______ _______ _______ _____ _____    ______ ____
ROOT
ATOM      7  C   UNL     1      -3.863   0.018  24.721  0.00  0.00    +0.000 C 
ATOM      8  C   UNL     1      -3.420   0.249  23.254  0.00  0.00    +0.030 C 
ATOM      9  C   UNL     1      -5.064   0.911  25.066  0.00  0.00    +0.012 C 
ATOM     10  C   UNL     1      -4.750   2.408  24.882  0.00  0.00    +0.023 C 
ATOM     12  C   UNL     1      -4.062   2.680  23.559  0.00  0.00    -0.073 C 
ATOM     13  C   UNL     1      -3.486   1.701  22.840  0.00  0.00    -0.023 C 
ATOM     18  C   UNL     1      -4.091   4.097  23.059  0.00  0.00    +0.039 C 
ENDROOT
BRANCH   7  11
ATOM     11  C   UNL     1      -4.216  -1.450  24.984  0.00  0.00    -0.013 C 
ATOM     16  C   UNL     1      -4.358  -2.207  23.668  0.00  0.00    +0.007 C 
ATOM     17  C   UNL     1      -3.159  -2.100  25.870  0.00  0.00    +0.007 C 
ENDBRANCH   7  11
BRANCH   8  14
ATOM     14  C   UNL     1      -2.006  -0.289  23.013  0.00  0.00    +0.113 C 
BRANCH  14   6
ATOM      6  N   UNL     1      -1.031   0.777  23.293  0.00  0.00    -0.194 NA
ATOM     31  H   UNL     1      -0.996   1.508  22.570  0.00  0.00    +0.148 HD
BRANCH   6   1
ATOM      1  S   UNL     1       0.470   0.373  24.002  0.00  0.00    +0.033 S 
ATOM      3  O   UNL     1       0.325  -0.825  24.806  0.00  0.00    -0.158 OA
ATOM      4  O   UNL     1       1.056   1.576  24.561  0.00  0.00    -0.158 OA
BRANCH   1  24
ATOM     24  C   UNL     1       1.410  -0.052  22.553  0.00  0.00    +0.220 C 
BRANCH  24  25
ATOM     25  C   UNL     1       2.854  -0.108  22.948  0.00  0.00    -0.025 A 
ATOM     26  C   UNL     1       3.375  -1.268  23.520  0.00  0.00    +0.005 A 
ATOM     27  C   UNL     1       3.677   0.999  22.740  0.00  0.00    +0.005 A 
ATOM     28  C   UNL     1       4.720  -1.321  23.887  0.00  0.00    +0.000 A 
ATOM     29  C   UNL     1       5.022   0.946  23.107  0.00  0.00    +0.000 A 
ATOM     30  C   UNL     1       5.543  -0.214  23.681  0.00  0.00    +0.000 A 
ENDBRANCH  24  25
ENDBRANCH   1  24
ENDBRANCH   6   1
ENDBRANCH  14   6
ENDBRANCH   8  14
BRANCH  10  15
ATOM     15  C   UNL     1      -3.920   2.946  26.052  0.00  0.00    +0.103 C 
BRANCH  15  19
ATOM      2  O   UNL     1      -1.913   1.670  25.910  0.00  0.00    -0.276 OA
ATOM      5  N   UNL     1      -1.785   3.905  25.340  0.00  0.00    -0.301 N 
ATOM     19  C   UNL     1      -2.451   2.768  25.763  0.00  0.00    +0.216 C 
ATOM     20  C   UNL     1      -2.362   5.231  25.142  0.00  0.00    +0.108 C 
ATOM     21  C   UNL     1      -0.363   3.901  25.026  0.00  0.00    +0.108 C 
ATOM     22  C   UNL     1      -1.158   6.144  24.952  0.00  0.00    +0.020 C 
ATOM     23  C   UNL     1      -0.129   5.222  24.309  0.00  0.00    +0.020 C 
ENDBRANCH  15  19
ENDBRANCH  10  15
TORSDOF 8
ENDMDL
MODEL 4
REMARK VINA RESULT:      -1.5      2.216      6.323
REMARK  Name = 38028751
REMARK  11 active torsions:
REMARK  status: ('A' for Active; 'I' for Inactive)
REMARK    1  A    between atoms: S_1  and  N_6
REMARK    2  A    between atoms: S_1  and  C_24
REMARK    3  A    between atoms: N_6  and  C_14
REMARK    4  A    between atoms: C_7  and  C_11
REMARK    5  A    between atoms: C_8  and  C_14
REMARK    6  A    between atoms: C_10  and  C_15
REMARK    7  A    between atoms: C_11  and  C_16
REMARK    8  A    between atoms: C_11  and  C_17
REMARK    9  A    between atoms: C_12  and  C_18
REMARK   10  A    between atoms: C_15  and  C_19
REMARK   11  A    between atoms: C_24  and  C_25
REMARK                            x       y       z     vdW  Elec       q    Type
REMARK                         _______ _______ _______ _____ _____    ______ ____
ROOT
ATOM      7  C   UNL     1      -3.413  -0.934  24.970  0.00  0.00    +0.000 C 
ATOM      8  C   UNL     1      -2.627  -0.798  23.643  0.00  0.00    +0.030 C 
ATOM      9  C   UNL     1      -4.759  -0.198  24.874  0.00  0.00    +0.012 C 
ATOM     10  C   UNL     1      -4.583   1.301  24.563  0.00  0.00    +0.023 C 
ATOM     12  C   UNL     1      -3.604   1.528  23.428  0.00  0.00    -0.073 C 
ATOM     13  C   UNL     1      -2.748   0.575  23.022  0.00  0.00    -0.023 C 
ATOM     18  C   UNL     1      -3.665   2.863  22.740  0.00  0.00    +0.039 C 
ENDROOT
BRANCH   7  11
ATOM     11  C   UNL     1      -3.650  -2.401  25.343  0.00  0.00    -0.013 C 
ATOM     16  C   UNL     1      -4.080  -3.199  24.117  0.00  0.00    +0.007 C 
ATOM     17  C   UNL     1      -2.394  -3.001  25.966  0.00  0.00    +0.007 C 
ENDBRANCH   7  11
BRANCH   8  14
ATOM     14  C   UNL     1      -1.146  -1.141  23.840  0.00  0.00    +0.113 C 
BRANCH  14   6
ATOM      6  N   UNL     1      -0.480  -0.024  24.528  0.00  0.00    -0.194 NA
ATOM     31  H   UNL     1      -1.062   0.427  25.247  0.00  0.00    +0.148 HD
BRANCH   6   1
ATOM      1  S   UNL     1       0.530   1.025  23.635  0.00  0.00    +0.033 S 
ATOM      3  O   UNL     1       1.516   1.621  24.513  0.00  0.00    -0.158 OA
ATOM      4  O   UNL     1      -0.302   1.852  22.782  0.00  0.00    -0.158 OA
BRANCH   1  24
ATOM     24  C   UNL     1       1.366  -0.144  22.586  0.00  0.00    +0.220 C 
BRANCH  24  25
ATOM     25  C   UNL     1       2.815  -0.139  22.964  0.00  0.00    -0.025 A 
ATOM     26  C   UNL     1       3.607   0.973  22.681  0.00  0.00    +0.005 A 
ATOM     27  C   UNL     1       3.372  -1.248  23.601  0.00  0.00    +0.005 A 
ATOM     28  C   UNL     1       4.956   0.978  23.034  0.00  0.00    +0.000 A 
ATOM     29  C   UNL     1       4.722  -1.244  23.954  0.00  0.00    +0.000 A 
ATOM     30  C   UNL     1       5.514  -0.131  23.670  0.00  0.00    +0.000 A 
ENDBRANCH  24  25
ENDBRANCH   1  24
ENDBRANCH   6   1
ENDBRANCH  14   6
ENDBRANCH   8  14
BRANCH  10  15
ATOM     15  C   UNL     1      -4.163   2.079  25.814  0.00  0.00    +0.103 C 
BRANCH  15  19
ATOM      2  O   UNL     1      -5.174   4.202  25.434  0.00  0.00    -0.276 OA
ATOM      5  N   UNL     1      -2.869   4.097  25.332  0.00  0.00    -0.301 N 
ATOM     19  C   UNL     1      -4.128   3.555  25.512  0.00  0.00    +0.216 C 
ATOM     20  C   UNL     1      -1.594   3.390  25.413  0.00  0.00    +0.108 C 
ATOM     21  C   UNL     1      -2.665   5.506  25.026  0.00  0.00    +0.108 C 
ATOM     22  C   UNL     1      -0.576   4.379  24.863  0.00  0.00    +0.020 C 
ATOM     23  C   UNL     1      -1.175   5.729  25.235  0.00  0.00    +0.020 C 
ENDBRANCH  15  19
ENDBRANCH  10  15
TORSDOF 8
ENDMDL
MODEL 5
REMARK VINA RESULT:      -1.4      1.285      4.635
REMARK  Name = 38028751
REMARK  11 active torsions:
REMARK  status: ('A' for Active; 'I' for Inactive)
REMARK    1  A    between atoms: S_1  and  N_6
REMARK    2  A    between atoms: S_1  and  C_24
REMARK    3  A    between atoms: N_6  and  C_14
REMARK    4  A    between atoms: C_7  and  C_11
REMARK    5  A    between atoms: C_8  and  C_14
REMARK    6  A    between atoms: C_10  and  C_15
REMARK    7  A    between atoms: C_11  and  C_16
REMARK    8  A    between atoms: C_11  and  C_17
REMARK    9  A    between atoms: C_12  and  C_18
REMARK   10  A    between atoms: C_15  and  C_19
REMARK   11  A    between atoms: C_24  and  C_25
REMARK                            x       y       z     vdW  Elec       q    Type
REMARK                         _______ _______ _______ _____ _____    ______ ____
ROOT
ATOM      7  C   UNL     1      -2.108   3.695  25.031  0.00  0.00    +0.000 C 
ATOM      8  C   UNL     1      -3.314   3.848  24.070  0.00  0.00    +0.030 C 
ATOM      9  C   UNL     1      -0.841   3.323  24.247  0.00  0.00    +0.012 C 
ATOM     10  C   UNL     1      -1.007   2.009  23.460  0.00  0.00    +0.023 C 
ATOM     12  C   UNL     1      -2.312   1.974  22.692  0.00  0.00    -0.073 C 
ATOM     13  C   UNL     1      -3.326   2.812  22.969  0.00  0.00    -0.023 C 
ATOM     18  C   UNL     1      -2.409   0.983  21.566  0.00  0.00    +0.039 C 
ENDROOT
BRANCH   7  11
ATOM     11  C   UNL     1      -1.861   4.972  25.840  0.00  0.00    -0.013 C 
ATOM     16  C   UNL     1      -1.354   6.088  24.932  0.00  0.00    +0.007 C 
ATOM     17  C   UNL     1      -3.135   5.399  26.562  0.00  0.00    +0.007 C 
ENDBRANCH   7  11
BRANCH   8  14
ATOM     14  C   UNL     1      -4.640   3.797  24.835  0.00  0.00    +0.113 C 
BRANCH  14   6
ATOM      6  N   UNL     1      -5.450   2.681  24.321  0.00  0.00    -0.194 NA
ATOM     31  H   UNL     1      -6.227   2.977  23.715  0.00  0.00    +0.148 HD
BRANCH   6   1
ATOM      1  S   UNL     1      -5.776   1.348  25.338  0.00  0.00    +0.033 S 
ATOM      3  O   UNL     1      -6.378   0.279  24.568  0.00  0.00    -0.158 OA
ATOM      4  O   UNL     1      -6.405   1.835  26.551  0.00  0.00    -0.158 OA
BRANCH   1  24
ATOM     24  C   UNL     1      -4.122   0.851  25.763  0.00  0.00    +0.220 C 
BRANCH  24  25
ATOM     25  C   UNL     1      -3.921  -0.544  25.257  0.00  0.00    -0.025 A 
ATOM     26  C   UNL     1      -4.311  -0.879  23.961  0.00  0.00    +0.005 A 
ATOM     27  C   UNL     1      -3.344  -1.508  26.084  0.00  0.00    +0.005 A 
ATOM     28  C   UNL     1      -4.123  -2.179  23.490  0.00  0.00    +0.000 A 
ATOM     29  C   UNL     1      -3.157  -2.808  25.613  0.00  0.00    +0.000 A 
ATOM     30  C   UNL     1      -3.546  -3.144  24.316  0.00  0.00    +0.000 A 
ENDBRANCH  24  25
ENDBRANCH   1  24
ENDBRANCH   6   1
ENDBRANCH  14   6
ENDBRANCH   8  14
BRANCH  10  15
ATOM     15  C   UNL     1      -0.881   0.793  24.384  0.00  0.00    +0.103 C 
BRANCH  15  19
ATOM      2  O   UNL     1      -0.521  -1.420  23.579  0.00  0.00    -0.276 OA
ATOM      5  N   UNL     1       1.186   0.106  23.271  0.00  0.00    -0.301 N 
ATOM     19  C   UNL     1      -0.067  -0.282  23.709  0.00  0.00    +0.216 C 
ATOM     20  C   UNL     1       1.780   1.435  23.391  0.00  0.00    +0.108 C 
ATOM     21  C   UNL     1       2.097  -0.815  22.606  0.00  0.00    +0.108 C 
ATOM     22  C   UNL     1       3.240   1.233  23.011  0.00  0.00    +0.020 C 
ATOM     23  C   UNL     1       3.179   0.078  22.020  0.00  0.00    +0.020 C 
ENDBRANCH  15  19
ENDBRANCH  10  15
TORSDOF 8
ENDMDL
MODEL 6
REMARK VINA RESULT:      -0.7      1.816      3.284
REMARK  Name = 38028751
REMARK  11 active torsions:
REMARK  status: ('A' for Active; 'I' for Inactive)
REMARK    1  A    between atoms: S_1  and  N_6
REMARK    2  A    between atoms: S_1  and  C_24
REMARK    3  A    between atoms: N_6  and  C_14
REMARK    4  A    between atoms: C_7  and  C_11
REMARK    5  A    between atoms: C_8  and  C_14
REMARK    6  A    between atoms: C_10  and  C_15
REMARK    7  A    between atoms: C_11  and  C_16
REMARK    8  A    between atoms: C_11  and  C_17
REMARK    9  A    between atoms: C_12  and  C_18
REMARK   10  A    between atoms: C_15  and  C_19
REMARK   11  A    between atoms: C_24  and  C_25
REMARK                            x       y       z     vdW  Elec       q    Type
REMARK                         _______ _______ _______ _____ _____    ______ ____
ROOT
ATOM      7  C   UNL     1      -2.779   0.817  23.938  0.00  0.00    +0.000 C 
ATOM      8  C   UNL     1      -4.232   0.441  24.326  0.00  0.00    +0.030 C 
ATOM      9  C   UNL     1      -2.164  -0.271  23.045  0.00  0.00    +0.012 C 
ATOM     10  C   UNL     1      -2.144  -1.649  23.735  0.00  0.00    +0.023 C 
ATOM     12  C   UNL     1      -3.476  -1.975  24.379  0.00  0.00    -0.073 C 
ATOM     13  C   UNL     1      -4.402  -1.031  24.622  0.00  0.00    -0.023 C 
ATOM     18  C   UNL     1      -3.739  -3.421  24.695  0.00  0.00    +0.039 C 
ENDROOT
BRANCH   7  11
ATOM     11  C   UNL     1      -2.714   2.171  23.225  0.00  0.00    -0.013 C 
ATOM     16  C   UNL     1      -1.292   2.455  22.752  0.00  0.00    +0.007 C 
ATOM     17  C   UNL     1      -3.689   2.203  22.053  0.00  0.00    +0.007 C 
ENDBRANCH   7  11
BRANCH   8  14
ATOM     14  C   UNL     1      -4.714   1.263  25.525  0.00  0.00    +0.113 C 
BRANCH  14   6
ATOM      6  N   UNL     1      -5.632   2.312  25.052  0.00  0.00    -0.194 NA
ATOM     31  H   UNL     1      -6.083   2.094  24.154  0.00  0.00    +0.148 HD
BRANCH   6   1
ATOM      1  S   UNL     1      -5.219   3.953  25.289  0.00  0.00    +0.033 S 
ATOM      3  O   UNL     1      -6.365   4.678  25.802  0.00  0.00    -0.158 OA
ATOM      4  O   UNL     1      -4.505   4.424  24.118  0.00  0.00    -0.158 OA
BRANCH   1  24
ATOM     24  C   UNL     1      -4.034   3.802  26.607  0.00  0.00    +0.220 C 
BRANCH  24  25
ATOM     25  C   UNL     1      -2.684   4.125  26.045  0.00  0.00    -0.025 A 
ATOM     26  C   UNL     1      -2.492   5.302  25.323  0.00  0.00    +0.005 A 
ATOM     27  C   UNL     1      -1.618   3.248  26.245  0.00  0.00    +0.005 A 
ATOM     28  C   UNL     1      -1.235   5.604  24.801  0.00  0.00    +0.000 A 
ATOM     29  C   UNL     1      -0.360   3.548  25.721  0.00  0.00    +0.000 A 
ATOM     30  C   UNL     1      -0.168   4.727  24.999  0.00  0.00    +0.000 A 
ENDBRANCH  24  25
ENDBRANCH   1  24
ENDBRANCH   6   1
ENDBRANCH  14   6
ENDBRANCH   8  14
BRANCH  10  15
ATOM     15  C   UNL     1      -1.004  -1.738  24.756  0.00  0.00    +0.103 C 
BRANCH  15  19
ATOM      2  O   UNL     1      -0.685   0.377  25.803  0.00  0.00    -0.276 OA
ATOM      5  N   UNL     1       0.640  -0.105  23.974  0.00  0.00    -0.301 N 
ATOM     19  C   UNL     1      -0.343  -0.392  24.904  0.00  0.00    +0.216 C 
ATOM     20  C   UNL     1       1.094  -0.971  22.889  0.00  0.00    +0.108 C 
ATOM     21  C   UNL     1       1.369   1.155  23.976  0.00  0.00    +0.108 C 
ATOM     22  C   UNL     1       1.966  -0.070  22.025  0.00  0.00    +0.020 C 
ATOM     23  C   UNL     1       2.537   0.920  23.031  0.00  0.00    +0.020 C 
ENDBRANCH  15  19
ENDBRANCH  10  15
TORSDOF 8
ENDMDL
MODEL 7
REMARK VINA RESULT:       0.1      2.403      7.004
REMARK  Name = 38028751
REMARK  11 active torsions:
REMARK  status: ('A' for Active; 'I' for Inactive)
REMARK    1  A    between atoms: S_1  and  N_6
REMARK    2  A    between atoms: S_1  and  C_24
REMARK    3  A    between atoms: N_6  and  C_14
REMARK    4  A    between atoms: C_7  and  C_11
REMARK    5  A    between atoms: C_8  and  C_14
REMARK    6  A    between atoms: C_10  and  C_15
REMARK    7  A    between atoms: C_11  and  C_16
REMARK    8  A    between atoms: C_11  and  C_17
REMARK    9  A    between atoms: C_12  and  C_18
REMARK   10  A    between atoms: C_15  and  C_19
REMARK   11  A    between atoms: C_24  and  C_25
REMARK                            x       y       z     vdW  Elec       q    Type
REMARK                         _______ _______ _______ _____ _____    ______ ____
ROOT
ATOM      7  C   UNL     1      -1.623   0.764  25.508  0.00  0.00    +0.000 C 
ATOM      8  C   UNL     1      -1.122  -0.667  25.828  0.00  0.00    +0.030 C 
ATOM      9  C   UNL     1      -3.156   0.825  25.586  0.00  0.00    +0.012 C 
ATOM     10  C   UNL     1      -3.829  -0.158  24.608  0.00  0.00    +0.023 C 
ATOM     12  C   UNL     1      -3.202  -1.536  24.675  0.00  0.00    -0.073 C 
ATOM     13  C   UNL     1      -1.999  -1.746  25.236  0.00  0.00    -0.023 C 
ATOM     18  C   UNL     1      -4.013  -2.675  24.123  0.00  0.00    +0.039 C 
ENDROOT
BRANCH   7  11
ATOM     11  C   UNL     1      -1.014   1.804  26.454  0.00  0.00    -0.013 C 
ATOM     16  C   UNL     1       0.390   2.183  25.996  0.00  0.00    +0.007 C 
ATOM     17  C   UNL     1      -1.908   3.037  26.534  0.00  0.00    +0.007 C 
ENDBRANCH   7  11
BRANCH   8  14
ATOM     14  C   UNL     1       0.322  -0.866  25.357  0.00  0.00    +0.113 C 
BRANCH  14   6
ATOM      6  N   UNL     1       0.339  -0.974  23.889  0.00  0.00    -0.194 NA
ATOM     31  H   UNL     1       0.715  -1.866  23.543  0.00  0.00    +0.148 HD
BRANCH   6   1
ATOM      1  S   UNL     1       0.729   0.402  22.954  0.00  0.00    +0.033 S 
ATOM      3  O   UNL     1       1.334   1.413  23.798  0.00  0.00    -0.158 OA
ATOM      4  O   UNL     1      -0.403   0.721  22.107  0.00  0.00    -0.158 OA
BRANCH   1  24
ATOM     24  C   UNL     1       2.002  -0.268  21.907  0.00  0.00    +0.220 C 
BRANCH  24  25
ATOM     25  C   UNL     1       3.285  -0.249  22.680  0.00  0.00    -0.025 A 
ATOM     26  C   UNL     1       3.692  -1.381  23.385  0.00  0.00    +0.005 A 
ATOM     27  C   UNL     1       4.073   0.902  22.693  0.00  0.00    +0.005 A 
ATOM     28  C   UNL     1       4.887  -1.362  24.104  0.00  0.00    +0.000 A 
ATOM     29  C   UNL     1       5.268   0.921  23.412  0.00  0.00    +0.000 A 
ATOM     30  C   UNL     1       5.675  -0.212  24.118  0.00  0.00    +0.000 A 
ENDBRANCH  24  25
ENDBRANCH   1  24
ENDBRANCH   6   1
ENDBRANCH  14   6
ENDBRANCH   8  14
BRANCH  10  15
ATOM     15  C   UNL     1      -3.806   0.387  23.176  0.00  0.00    +0.103 C 
BRANCH  15  19
ATOM      2  O   UNL     1      -2.648   2.356  22.500  0.00  0.00    -0.276 OA
ATOM      5  N   UNL     1      -4.355   2.609  24.036  0.00  0.00    -0.301 N 
ATOM     19  C   UNL     1      -3.542   1.871  23.196  0.00  0.00    +0.216 C 
ATOM     20  C   UNL     1      -5.430   2.098  24.882  0.00  0.00    +0.108 C 
ATOM     21  C   UNL     1      -4.223   4.053  24.175  0.00  0.00    +0.108 C 
ATOM     22  C   UNL     1      -5.794   3.270  25.783  0.00  0.00    +0.020 C 
ATOM     23  C   UNL     1      -5.483   4.480  24.912  0.00  0.00    +0.020 C 
ENDBRANCH  15  19
ENDBRANCH  10  15
TORSDOF 8
ENDMDL
MODEL 8
REMARK VINA RESULT:       0.3      2.484      4.294
REMARK  Name = 38028751
REMARK  11 active torsions:
REMARK  status: ('A' for Active; 'I' for Inactive)
REMARK    1  A    between atoms: S_1  and  N_6
REMARK    2  A    between atoms: S_1  and  C_24
REMARK    3  A    between atoms: N_6  and  C_14
REMARK    4  A    between atoms: C_7  and  C_11
REMARK    5  A    between atoms: C_8  and  C_14
REMARK    6  A    between atoms: C_10  and  C_15
REMARK    7  A    between atoms: C_11  and  C_16
REMARK    8  A    between atoms: C_11  and  C_17
REMARK    9  A    between atoms: C_12  and  C_18
REMARK   10  A    between atoms: C_15  and  C_19
REMARK   11  A    between atoms: C_24  and  C_25
REMARK                            x       y       z     vdW  Elec       q    Type
REMARK                         _______ _______ _______ _____ _____    ______ ____
ROOT
ATOM      7  C   UNL     1       0.013   1.640  25.166  0.00  0.00    +0.000 C 
ATOM      8  C   UNL     1      -0.867   0.447  24.715  0.00  0.00    +0.030 C 
ATOM      9  C   UNL     1       0.619   2.350  23.946  0.00  0.00    +0.012 C 
ATOM     10  C   UNL     1       1.483   1.404  23.091  0.00  0.00    +0.023 C 
ATOM     12  C   UNL     1       0.782   0.087  22.827  0.00  0.00    -0.073 C 
ATOM     13  C   UNL     1      -0.274  -0.318  23.554  0.00  0.00    -0.023 C 
ATOM     18  C   UNL     1       1.295  -0.735  21.678  0.00  0.00    +0.039 C 
ENDROOT
BRANCH   7  11
ATOM     11  C   UNL     1      -0.781   2.644  26.009  0.00  0.00    -0.013 C 
ATOM     16  C   UNL     1      -0.119   2.836  27.370  0.00  0.00    +0.007 C 
ATOM     17  C   UNL     1      -0.903   3.976  25.275  0.00  0.00    +0.007 C 
ENDBRANCH   7  11
BRANCH   8  14
ATOM     14  C   UNL     1      -1.133  -0.514  25.878  0.00  0.00    +0.113 C 
BRANCH  14   6
ATOM      6  N   UNL     1      -2.546  -0.925  25.850  0.00  0.00    -0.194 NA
ATOM     31  H   UNL     1      -3.021  -0.838  26.758  0.00  0.00    +0.148 HD
BRANCH   6   1
ATOM      1  S   UNL     1      -3.006  -2.271  24.905  0.00  0.00    +0.033 S 
ATOM      3  O   UNL     1      -3.582  -3.294  25.755  0.00  0.00    -0.158 OA
ATOM      4  O   UNL     1      -1.924  -2.587  23.992  0.00  0.00    -0.158 OA
BRANCH   1  24
ATOM     24  C   UNL     1      -4.320  -1.557  23.941  0.00  0.00    +0.220 C 
BRANCH  24  25
ATOM     25  C   UNL     1      -4.272  -0.073  24.136  0.00  0.00    -0.025 A 
ATOM     26  C   UNL     1      -3.539   0.723  23.256  0.00  0.00    +0.005 A 
ATOM     27  C   UNL     1      -4.963   0.513  25.196  0.00  0.00    +0.005 A 
ATOM     28  C   UNL     1      -3.495   2.105  23.437  0.00  0.00    +0.000 A 
ATOM     29  C   UNL     1      -4.919   1.896  25.378  0.00  0.00    +0.000 A 
ATOM     30  C   UNL     1      -4.185   2.692  24.498  0.00  0.00    +0.000 A 
ENDBRANCH  24  25
ENDBRANCH   1  24
ENDBRANCH   6   1
ENDBRANCH  14   6
ENDBRANCH   8  14
BRANCH  10  15
ATOM     15  C   UNL     1       2.855   1.177  23.734  0.00  0.00    +0.103 C 
BRANCH  15  19
ATOM      2  O   UNL     1       3.655   1.069  21.492  0.00  0.00    -0.276 OA
ATOM      5  N   UNL     1       4.985   0.135  23.134  0.00  0.00    -0.301 N 
ATOM     19  C   UNL     1       3.860   0.796  22.676  0.00  0.00    +0.216 C 
ATOM     20  C   UNL     1       5.290  -0.214  24.518  0.00  0.00    +0.108 C 
ATOM     21  C   UNL     1       6.046  -0.306  22.239  0.00  0.00    +0.108 C 
ATOM     22  C   UNL     1       6.482  -1.156  24.418  0.00  0.00    +0.020 C 
ATOM     23  C   UNL     1       7.196  -0.671  23.163  0.00  0.00    +0.020 C 
ENDBRANCH  15  19
ENDBRANCH  10  15
TORSDOF 8
ENDMDL
MODEL 9
REMARK VINA RESULT:       0.8      2.223      6.833
REMARK  Name = 38028751
REMARK  11 active torsions:
REMARK  status: ('A' for Active; 'I' for Inactive)
REMARK    1  A    between atoms: S_1  and  N_6
REMARK    2  A    between atoms: S_1  and  C_24
REMARK    3  A    between atoms: N_6  and  C_14
REMARK    4  A    between atoms: C_7  and  C_11
REMARK    5  A    between atoms: C_8  and  C_14
REMARK    6  A    between atoms: C_10  and  C_15
REMARK    7  A    between atoms: C_11  and  C_16
REMARK    8  A    between atoms: C_11  and  C_17
REMARK    9  A    between atoms: C_12  and  C_18
REMARK   10  A    between atoms: C_15  and  C_19
REMARK   11  A    between atoms: C_24  and  C_25
REMARK                            x       y       z     vdW  Elec       q    Type
REMARK                         _______ _______ _______ _____ _____    ______ ____
ROOT
ATOM      7  C   UNL     1      -3.045  -0.677  24.979  0.00  0.00    +0.000 C 
ATOM      8  C   UNL     1      -2.070  -0.353  23.819  0.00  0.00    +0.030 C 
ATOM      9  C   UNL     1      -4.475  -0.256  24.611  0.00  0.00    +0.012 C 
ATOM     10  C   UNL     1      -4.578   1.248  24.295  0.00  0.00    +0.023 C 
ATOM     12  C   UNL     1      -3.476   1.702  23.358  0.00  0.00    -0.073 C 
ATOM     13  C   UNL     1      -2.370   0.967  23.147  0.00  0.00    -0.023 C 
ATOM     18  C   UNL     1      -3.697   2.999  22.632  0.00  0.00    +0.039 C 
ENDROOT
BRANCH   7  11
ATOM     11  C   UNL     1      -3.019  -2.165  25.344  0.00  0.00    -0.013 C 
ATOM     16  C   UNL     1      -3.895  -2.963  24.383  0.00  0.00    +0.007 C 
ATOM     17  C   UNL     1      -1.588  -2.691  25.333  0.00  0.00    +0.007 C 
ENDBRANCH   7  11
BRANCH   8  14
ATOM     14  C   UNL     1      -0.615  -0.363  24.300  0.00  0.00    +0.113 C 
BRANCH  14   6
ATOM      6  N   UNL     1       0.190   0.495  23.416  0.00  0.00    -0.194 NA
ATOM     31  H   UNL     1      -0.370   1.129  22.830  0.00  0.00    +0.148 HD
BRANCH   6   1
ATOM      1  S   UNL     1       1.590  -0.147  22.677  0.00  0.00    +0.033 S 
ATOM      3  O   UNL     1       1.364  -0.308  21.255  0.00  0.00    -0.158 OA
ATOM      4  O   UNL     1       2.073  -1.251  23.483  0.00  0.00    -0.158 OA
BRANCH   1  24
ATOM     24  C   UNL     1       2.724   1.206  22.900  0.00  0.00    +0.220 C 
BRANCH  24  25
ATOM     25  C   UNL     1       4.084   0.627  23.136  0.00  0.00    -0.025 A 
ATOM     26  C   UNL     1       4.625   0.615  24.421  0.00  0.00    +0.005 A 
ATOM     27  C   UNL     1       4.810   0.097  22.069  0.00  0.00    +0.005 A 
ATOM     28  C   UNL     1       5.891   0.074  24.640  0.00  0.00    +0.000 A 
ATOM     29  C   UNL     1       6.077  -0.444  22.288  0.00  0.00    +0.000 A 
ATOM     30  C   UNL     1       6.618  -0.455  23.574  0.00  0.00    +0.000 A 
ENDBRANCH  24  25
ENDBRANCH   1  24
ENDBRANCH   6   1
ENDBRANCH  14   6
ENDBRANCH   8  14
BRANCH  10  15
ATOM     15  C   UNL     1      -4.583   2.083  25.580  0.00  0.00    +0.103 C 
BRANCH  15  19
ATOM      2  O   UNL     1      -5.174   4.322  25.020  0.00  0.00    -0.276 OA
ATOM      5  N   UNL     1      -2.924   3.849  25.247  0.00  0.00    -0.301 N 
ATOM     19  C   UNL     1      -4.268   3.522  25.258  0.00  0.00    +0.216 C 
ATOM     20  C   UNL     1      -1.805   2.953  25.523  0.00  0.00    +0.108 C 
ATOM     21  C   UNL     1      -2.454   5.194  24.948  0.00  0.00    +0.108 C 
ATOM     22  C   UNL     1      -0.573   3.744  25.104  0.00  0.00    +0.020 C 
ATOM     23  C   UNL     1      -0.990   5.186  25.361  0.00  0.00    +0.020 C 
ENDBRANCH  15  19
ENDBRANCH  10  15
TORSDOF 8
ENDMDL
MODEL 10
REMARK VINA RESULT:       1.0      1.692      4.751
REMARK  Name = 38028751
REMARK  11 active torsions:
REMARK  status: ('A' for Active; 'I' for Inactive)
REMARK    1  A    between atoms: S_1  and  N_6
REMARK    2  A    between atoms: S_1  and  C_24
REMARK    3  A    between atoms: N_6  and  C_14
REMARK    4  A    between atoms: C_7  and  C_11
REMARK    5  A    between atoms: C_8  and  C_14
REMARK    6  A    between atoms: C_10  and  C_15
REMARK    7  A    between atoms: C_11  and  C_16
REMARK    8  A    between atoms: C_11  and  C_17
REMARK    9  A    between atoms: C_12  and  C_18
REMARK   10  A    between atoms: C_15  and  C_19
REMARK   11  A    between atoms: C_24  and  C_25
REMARK                            x       y       z     vdW  Elec       q    Type
REMARK                         _______ _______ _______ _____ _____    ______ ____
ROOT
ATOM      7  C   UNL     1      -2.851   3.502  24.891  0.00  0.00    +0.000 C 
ATOM      8  C   UNL     1      -4.062   3.475  23.924  0.00  0.00    +0.030 C 
ATOM      9  C   UNL     1      -1.544   3.700  24.108  0.00  0.00    +0.012 C 
ATOM     10  C   UNL     1      -1.313   2.587  23.068  0.00  0.00    +0.023 C 
ATOM     12  C   UNL     1      -2.558   2.316  22.248  0.00  0.00    -0.073 C 
ATOM     13  C   UNL     1      -3.775   2.732  22.640  0.00  0.00    -0.023 C 
ATOM     18  C   UNL     1      -2.365   1.594  20.944  0.00  0.00    +0.039 C 
ENDROOT
BRANCH   7  11
ATOM     11  C   UNL     1      -2.993   4.601  25.949  0.00  0.00    -0.013 C 
ATOM     16  C   UNL     1      -2.659   4.054  27.333  0.00  0.00    +0.007 C 
ATOM     17  C   UNL     1      -2.099   5.788  25.606  0.00  0.00    +0.007 C 
ENDBRANCH   7  11
BRANCH   8  14
ATOM     14  C   UNL     1      -5.296   2.870  24.600  0.00  0.00    +0.113 C 
BRANCH  14   6
ATOM      6  N   UNL     1      -4.882   1.717  25.415  0.00  0.00    -0.194 NA
ATOM     31  H   UNL     1      -4.134   1.931  26.088  0.00  0.00    +0.148 HD
BRANCH   6   1
ATOM      1  S   UNL     1      -4.803   0.170  24.695  0.00  0.00    +0.033 S 
ATOM      3  O   UNL     1      -3.821   0.175  23.629  0.00  0.00    -0.158 OA
ATOM      4  O   UNL     1      -6.154  -0.300  24.458  0.00  0.00    -0.158 OA
BRANCH   1  24
ATOM     24  C   UNL     1      -4.141  -0.783  26.044  0.00  0.00    +0.220 C 
BRANCH  24  25
ATOM     25  C   UNL     1      -2.836  -1.364  25.593  0.00  0.00    -0.025 A 
ATOM     26  C   UNL     1      -2.815  -2.357  24.614  0.00  0.00    +0.005 A 
ATOM     27  C   UNL     1      -1.641  -0.911  26.152  0.00  0.00    +0.005 A 
ATOM     28  C   UNL     1      -1.600  -2.897  24.194  0.00  0.00    +0.000 A 
ATOM     29  C   UNL     1      -0.426  -1.452  25.733  0.00  0.00    +0.000 A 
ATOM     30  C   UNL     1      -0.405  -2.445  24.753  0.00  0.00    +0.000 A 
ENDBRANCH  24  25
ENDBRANCH   1  24
ENDBRANCH   6   1
ENDBRANCH  14   6
ENDBRANCH   8  14
BRANCH  10  15
ATOM     15  C   UNL     1      -0.805   1.304  23.736  0.00  0.00    +0.103 C 
BRANCH  15  19
ATOM      2  O   UNL     1       0.945   2.155  25.110  0.00  0.00    -0.276 OA
ATOM      5  N   UNL     1       1.557   0.817  23.329  0.00  0.00    -0.301 N 
ATOM     19  C   UNL     1       0.640   1.471  24.132  0.00  0.00    +0.216 C 
ATOM     20  C   UNL     1       1.262  -0.009  22.162  0.00  0.00    +0.108 C 
ATOM     21  C   UNL     1       2.991   0.884  23.573  0.00  0.00    +0.108 C 
ATOM     22  C   UNL     1       2.618  -0.238  21.508  0.00  0.00    +0.020 C 
ATOM     23  C   UNL     1       3.577  -0.206  22.690  0.00  0.00    +0.020 C 
ENDBRANCH  15  19
ENDBRANCH  10  15
TORSDOF 8
ENDMDL
