MODEL 1
REMARK VINA RESULT:      11.1      0.000      0.000
REMARK  Name = 11939798
REMARK  8 active torsions:
REMARK  status: ('A' for Active; 'I' for Inactive)
REMARK    1  A    between atoms: N_4  and  C_12
REMARK    2  A    between atoms: N_5  and  C_13
REMARK    3  A    between atoms: N_8  and  C_26
REMARK    4  A    between atoms: N_8  and  C_30
REMARK    5  A    between atoms: N_8  and  C_31
REMARK    6  A    between atoms: C_16  and  C_18
REMARK    7  A    between atoms: C_21  and  C_27
REMARK    8  A    between atoms: C_32  and  C_35
REMARK                            x       y       z     vdW  Elec       q    Type
REMARK                         _______ _______ _______ _____ _____    ______ ____
ROOT
ATOM      1  O   UNL     1      -4.266  -0.030  26.428  0.00  0.00    -0.370 OA
ATOM      2  O   UNL     1      -6.081   0.355  23.943  0.00  0.00    -0.370 OA
ATOM     10  C   UNL     1      -4.675   0.568  24.166  0.00  0.00    +0.171 C 
ATOM     11  C   UNL     1      -4.521   1.101  25.576  0.00  0.00    +0.171 C 
ATOM     12  C   UNL     1      -3.940  -0.755  24.186  0.00  0.00    +0.130 C 
ATOM     13  C   UNL     1      -5.872   1.699  25.893  0.00  0.00    +0.130 C 
ATOM     14  C   UNL     1      -4.161  -1.212  25.620  0.00  0.00    +0.185 C 
ATOM     15  C   UNL     1      -6.816   0.833  25.079  0.00  0.00    +0.185 C 
ENDROOT
BRANCH  13   5
ATOM      5  N   UNL     1      -5.927   3.070  25.435  0.00  0.00    -0.306 N 
ATOM      6  N   UNL     1      -3.590   3.258  25.366  0.00  0.00    -0.214 NA
ATOM      7  N   UNL     1      -4.999   5.112  24.748  0.00  0.00    -0.223 NA
ATOM     17  C   UNL     1      -4.805   3.836  25.175  0.00  0.00    +0.216 A 
ATOM     21  C   UNL     1      -2.517   4.034  25.103  0.00  0.00    +0.076 A 
ATOM     22  C   UNL     1      -3.883   5.831  24.504  0.00  0.00    +0.116 A 
ATOM     23  C   UNL     1      -2.605   5.340  24.665  0.00  0.00    +0.048 A 
ATOM     37  H   UNL     1      -6.827   3.493  25.239  0.00  0.00    +0.149 HD
BRANCH  21  27
ATOM     27  C   UNL     1      -1.237   3.401  25.311  0.00  0.00    +0.002 A 
ATOM     28  C   UNL     1      -0.737   3.235  26.605  0.00  0.00    +0.029 A 
ATOM     29  C   UNL     1      -0.492   2.953  24.218  0.00  0.00    +0.010 A 
ATOM     32  C   UNL     1       0.500   2.622  26.804  0.00  0.00    +0.052 A 
ATOM     33  C   UNL     1       0.746   2.340  24.417  0.00  0.00    +0.002 A 
ATOM     34  C   UNL     1       1.241   2.176  25.711  0.00  0.00    +0.019 A 
BRANCH  32  35
ATOM      9  N   UNL     1       1.422   2.315  29.205  0.00  0.00    -0.191 NA
ATOM     35  C   UNL     1       1.010   2.452  28.128  0.00  0.00    +0.099 C 
ENDBRANCH  32  35
ENDBRANCH  21  27
ENDBRANCH  13   5
BRANCH  12   4
ATOM      3  O   UNL     1      -1.868  -2.756  24.271  0.00  0.00    -0.270 OA
ATOM      4  N   UNL     1      -2.513  -0.552  23.947  0.00  0.00    -0.304 N 
ATOM     16  C   UNL     1      -1.591  -1.588  24.012  0.00  0.00    +0.244 C 
ATOM     36  H   UNL     1      -2.199   0.406  23.840  0.00  0.00    +0.149 HD
BRANCH  16  18
ATOM     18  C   UNL     1      -0.174  -1.215  23.770  0.00  0.00    +0.037 A 
ATOM     19  C   UNL     1       0.125  -0.382  22.711  0.00  0.00    +0.015 A 
ATOM     20  C   UNL     1       0.799  -1.714  24.611  0.00  0.00    +0.015 A 
ATOM     24  C   UNL     1       1.455  -0.033  22.484  0.00  0.00    +0.024 A 
ATOM     25  C   UNL     1       2.131  -1.364  24.382  0.00  0.00    +0.024 A 
ATOM     26  C   UNL     1       2.458  -0.524  23.319  0.00  0.00    +0.029 A 
BRANCH  26   8
ATOM      8  N   UNL     1       3.805  -0.172  23.088  0.00  0.00    -0.336 N 
ATOM     30  C   UNL     1       4.875  -0.894  23.745  0.00  0.00    +0.129 C 
ATOM     31  C   UNL     1       4.134   0.925  22.200  0.00  0.00    +0.129 C 
ENDBRANCH  26   8
ENDBRANCH  16  18
ENDBRANCH  12   4
TORSDOF 6
ENDMDL
MODEL 2
REMARK VINA RESULT:      11.3      1.612      2.286
REMARK  Name = 11939798
REMARK  8 active torsions:
REMARK  status: ('A' for Active; 'I' for Inactive)
REMARK    1  A    between atoms: N_4  and  C_12
REMARK    2  A    between atoms: N_5  and  C_13
REMARK    3  A    between atoms: N_8  and  C_26
REMARK    4  A    between atoms: N_8  and  C_30
REMARK    5  A    between atoms: N_8  and  C_31
REMARK    6  A    between atoms: C_16  and  C_18
REMARK    7  A    between atoms: C_21  and  C_27
REMARK    8  A    between atoms: C_32  and  C_35
REMARK                            x       y       z     vdW  Elec       q    Type
REMARK                         _______ _______ _______ _____ _____    ______ ____
ROOT
ATOM      1  O   UNL     1      -2.607  -1.197  26.161  0.00  0.00    -0.370 OA
ATOM      2  O   UNL     1      -4.099  -1.128  23.443  0.00  0.00    -0.370 OA
ATOM     10  C   UNL     1      -2.765  -0.756  23.832  0.00  0.00    +0.171 C 
ATOM     11  C   UNL     1      -2.856  -0.142  25.214  0.00  0.00    +0.171 C 
ATOM     12  C   UNL     1      -1.911  -1.990  24.028  0.00  0.00    +0.130 C 
ATOM     13  C   UNL     1      -4.290   0.322  25.316  0.00  0.00    +0.130 C 
ATOM     14  C   UNL     1      -2.276  -2.398  25.447  0.00  0.00    +0.185 C 
ATOM     15  C   UNL     1      -5.025  -0.678  24.443  0.00  0.00    +0.185 C 
ENDROOT
BRANCH  13   5
ATOM      5  N   UNL     1      -4.419   1.656  24.772  0.00  0.00    -0.306 N 
ATOM      6  N   UNL     1      -2.406   2.368  25.744  0.00  0.00    -0.214 NA
ATOM      7  N   UNL     1      -3.736   3.870  24.409  0.00  0.00    -0.223 NA
ATOM     17  C   UNL     1      -3.493   2.662  24.981  0.00  0.00    +0.216 A 
ATOM     21  C   UNL     1      -1.523   3.372  25.928  0.00  0.00    +0.076 A 
ATOM     22  C   UNL     1      -2.812   4.828  24.634  0.00  0.00    +0.116 A 
ATOM     23  C   UNL     1      -1.675   4.634  25.391  0.00  0.00    +0.048 A 
ATOM     37  H   UNL     1      -5.198   1.869  24.159  0.00  0.00    +0.149 HD
BRANCH  21  27
ATOM     27  C   UNL     1      -0.377   3.039  26.739  0.00  0.00    +0.002 A 
ATOM     28  C   UNL     1      -0.490   3.000  28.131  0.00  0.00    +0.029 A 
ATOM     29  C   UNL     1       0.850   2.757  26.135  0.00  0.00    +0.010 A 
ATOM     32  C   UNL     1       0.619   2.677  28.914  0.00  0.00    +0.052 A 
ATOM     33  C   UNL     1       1.959   2.435  26.919  0.00  0.00    +0.002 A 
ATOM     34  C   UNL     1       1.843   2.396  28.308  0.00  0.00    +0.019 A 
BRANCH  32  35
ATOM      9  N   UNL     1       0.406   2.601  31.495  0.00  0.00    -0.191 NA
ATOM     35  C   UNL     1       0.502   2.636  30.338  0.00  0.00    +0.099 C 
ENDBRANCH  32  35
ENDBRANCH  21  27
ENDBRANCH  13   5
BRANCH  12   4
ATOM      3  O   UNL     1      -0.756   0.414  22.934  0.00  0.00    -0.270 OA
ATOM      4  N   UNL     1      -0.492  -1.648  23.964  0.00  0.00    -0.304 N 
ATOM     16  C   UNL     1      -0.036  -0.458  23.414  0.00  0.00    +0.244 C 
ATOM     36  H   UNL     1       0.165  -2.369  24.239  0.00  0.00    +0.149 HD
BRANCH  16  18
ATOM     18  C   UNL     1       1.438  -0.270  23.399  0.00  0.00    +0.037 A 
ATOM     19  C   UNL     1       2.249  -1.340  23.713  0.00  0.00    +0.015 A 
ATOM     20  C   UNL     1       1.948   0.971  23.074  0.00  0.00    +0.015 A 
ATOM     24  C   UNL     1       3.632  -1.163  23.700  0.00  0.00    +0.024 A 
ATOM     25  C   UNL     1       3.332   1.147  23.061  0.00  0.00    +0.024 A 
ATOM     26  C   UNL     1       4.173   0.081  23.374  0.00  0.00    +0.029 A 
BRANCH  26   8
ATOM      8  N   UNL     1       5.573   0.260  23.362  0.00  0.00    -0.336 N 
ATOM     30  C   UNL     1       6.407  -0.533  22.482  0.00  0.00    +0.129 C 
ATOM     31  C   UNL     1       6.196   1.230  24.240  0.00  0.00    +0.129 C 
ENDBRANCH  26   8
ENDBRANCH  16  18
ENDBRANCH  12   4
TORSDOF 6
ENDMDL
