MODEL 1
REMARK VINA RESULT:      -2.7      0.000      0.000
REMARK  Name = 45783697
REMARK  6 active torsions:
REMARK  status: ('A' for Active; 'I' for Inactive)
REMARK    1  A    between atoms: O_2  and  C_24
REMARK    2  A    between atoms: O_2  and  C_25
REMARK    3  A    between atoms: N_3  and  C_8
REMARK    4  A    between atoms: N_4  and  C_18
REMARK    5  A    between atoms: C_9  and  C_17
REMARK    6  A    between atoms: C_19  and  C_20
REMARK                            x       y       z     vdW  Elec       q    Type
REMARK                         _______ _______ _______ _____ _____    ______ ____
ROOT
ATOM      1  O   UNL     1      15.795  -9.868  28.603  0.00  0.00    -0.336 OA
ATOM      5  N   UNL     1      15.253  -7.697  28.507  0.00  0.00    -0.190 NA
ATOM      6  N   UNL     1      16.370  -9.375  27.424  0.00  0.00    -0.056 NA
ATOM     17  C   UNL     1      15.157  -8.817  29.180  0.00  0.00    +0.245 A 
ATOM     19  C   UNL     1      16.005  -8.089  27.438  0.00  0.00    +0.204 A 
ENDROOT
BRANCH  19  20
ATOM      7  N   UNL     1      16.666  -4.884  25.672  0.00  0.00    -0.221 NA
ATOM     20  C   UNL     1      16.376  -7.171  26.400  0.00  0.00    +0.041 A 
ATOM     21  C   UNL     1      16.791  -7.628  25.155  0.00  0.00    +0.018 A 
ATOM     22  C   UNL     1      16.331  -5.802  26.607  0.00  0.00    +0.126 A 
ATOM     23  C   UNL     1      17.142  -6.715  24.167  0.00  0.00    +0.068 A 
ATOM     24  C   UNL     1      17.064  -5.366  24.473  0.00  0.00    +0.214 A 
BRANCH  24   2
ATOM      2  O   UNL     1      17.405  -4.446  23.517  0.00  0.00    -0.480 OA
ATOM     25  C   UNL     1      16.797  -3.164  23.616  0.00  0.00    +0.279 C 
ENDBRANCH  24   2
ENDBRANCH  19  20
BRANCH  17   9
ATOM      3  N   UNL     1      13.467  -8.044  30.834  0.00  0.00    -0.288 NA
ATOM      9  C   UNL     1      14.447  -9.093  30.488  0.00  0.00    +0.146 C 
ATOM     10  C   UNL     1      12.421  -8.700  31.621  0.00  0.00    +0.085 C 
ATOM     13  C   UNL     1      13.630 -10.397  30.457  0.00  0.00    +0.030 C 
ATOM     14  C   UNL     1      12.218  -9.993  30.857  0.00  0.00    +0.017 C 
BRANCH   3   8
ATOM      4  N   UNL     1      16.040  -4.761  31.647  0.00  0.00    -0.305 NA
ATOM      8  C   UNL     1      14.059  -6.913  31.543  0.00  0.00    +0.060 C 
ATOM     11  C   UNL     1      13.922  -5.635  30.711  0.00  0.00    +0.034 C 
ATOM     12  C   UNL     1      15.535  -7.174  31.858  0.00  0.00    +0.034 C 
ATOM     15  C   UNL     1      14.625  -4.458  31.393  0.00  0.00    +0.085 C 
ATOM     16  C   UNL     1      16.185  -5.948  32.502  0.00  0.00    +0.085 C 
ATOM     18  C   UNL     1      16.709  -3.610  32.252  0.00  0.00    +0.104 C 
ENDBRANCH   3   8
ENDBRANCH  17   9
TORSDOF 4
ENDMDL
MODEL 2
REMARK VINA RESULT:      -2.5     18.350     19.704
REMARK  Name = 45783697
REMARK  6 active torsions:
REMARK  status: ('A' for Active; 'I' for Inactive)
REMARK    1  A    between atoms: O_2  and  C_24
REMARK    2  A    between atoms: O_2  and  C_25
REMARK    3  A    between atoms: N_3  and  C_8
REMARK    4  A    between atoms: N_4  and  C_18
REMARK    5  A    between atoms: C_9  and  C_17
REMARK    6  A    between atoms: C_19  and  C_20
REMARK                            x       y       z     vdW  Elec       q    Type
REMARK                         _______ _______ _______ _____ _____    ______ ____
ROOT
ATOM      1  O   UNL     1      -1.780   3.389  24.708  0.00  0.00    -0.336 OA
ATOM      5  N   UNL     1      -1.534   1.424  23.662  0.00  0.00    -0.190 NA
ATOM      6  N   UNL     1      -0.401   3.208  24.538  0.00  0.00    -0.056 NA
ATOM     17  C   UNL     1      -2.374   2.294  24.165  0.00  0.00    +0.245 A 
ATOM     19  C   UNL     1      -0.337   2.028  23.914  0.00  0.00    +0.204 A 
ENDROOT
BRANCH  19  20
ATOM      7  N   UNL     1       3.282   1.656  23.141  0.00  0.00    -0.221 NA
ATOM     20  C   UNL     1       0.906   1.425  23.530  0.00  0.00    +0.041 A 
ATOM     21  C   UNL     1       0.972   0.081  23.182  0.00  0.00    +0.018 A 
ATOM     22  C   UNL     1       2.079   2.162  23.494  0.00  0.00    +0.126 A 
ATOM     23  C   UNL     1       2.192  -0.477  22.813  0.00  0.00    +0.068 A 
ATOM     24  C   UNL     1       3.307   0.345  22.809  0.00  0.00    +0.214 A 
BRANCH  24   2
ATOM      2  O   UNL     1       4.520  -0.180  22.449  0.00  0.00    -0.480 OA
ATOM     25  C   UNL     1       5.564  -0.100  23.413  0.00  0.00    +0.279 C 
ENDBRANCH  24   2
ENDBRANCH  19  20
BRANCH  17   9
ATOM      3  N   UNL     1      -4.388   1.573  25.435  0.00  0.00    -0.288 NA
ATOM      9  C   UNL     1      -3.885   2.248  24.222  0.00  0.00    +0.146 C 
ATOM     10  C   UNL     1      -5.687   2.177  25.737  0.00  0.00    +0.085 C 
ATOM     13  C   UNL     1      -4.522   3.649  24.262  0.00  0.00    +0.030 C 
ATOM     14  C   UNL     1      -5.411   3.648  25.497  0.00  0.00    +0.017 C 
BRANCH   3   8
ATOM      4  N   UNL     1      -3.303  -2.398  24.379  0.00  0.00    -0.305 NA
ATOM      8  C   UNL     1      -4.477   0.122  25.293  0.00  0.00    +0.060 C 
ATOM     11  C   UNL     1      -3.319  -0.556  26.031  0.00  0.00    +0.034 C 
ATOM     12  C   UNL     1      -4.465  -0.287  23.817  0.00  0.00    +0.034 C 
ATOM     15  C   UNL     1      -3.339  -2.071  25.811  0.00  0.00    +0.085 C 
ATOM     16  C   UNL     1      -4.447  -1.809  23.669  0.00  0.00    +0.085 C 
ATOM     18  C   UNL     1      -3.272  -3.847  24.186  0.00  0.00    +0.104 C 
ENDBRANCH   3   8
ENDBRANCH  17   9
TORSDOF 4
ENDMDL
MODEL 3
REMARK VINA RESULT:      -1.3     17.856     18.950
REMARK  Name = 45783697
REMARK  6 active torsions:
REMARK  status: ('A' for Active; 'I' for Inactive)
REMARK    1  A    between atoms: O_2  and  C_24
REMARK    2  A    between atoms: O_2  and  C_25
REMARK    3  A    between atoms: N_3  and  C_8
REMARK    4  A    between atoms: N_4  and  C_18
REMARK    5  A    between atoms: C_9  and  C_17
REMARK    6  A    between atoms: C_19  and  C_20
REMARK                            x       y       z     vdW  Elec       q    Type
REMARK                         _______ _______ _______ _____ _____    ______ ____
ROOT
ATOM      1  O   UNL     1      -1.274   0.884  23.465  0.00  0.00    -0.336 OA
ATOM      5  N   UNL     1       0.085  -0.704  24.271  0.00  0.00    -0.190 NA
ATOM      6  N   UNL     1       0.013   1.207  23.015  0.00  0.00    -0.056 NA
ATOM     17  C   UNL     1      -1.143  -0.253  24.197  0.00  0.00    +0.245 A 
ATOM     19  C   UNL     1       0.757   0.225  23.532  0.00  0.00    +0.204 A 
ENDROOT
BRANCH  19  20
ATOM      7  N   UNL     1       4.210  -1.154  23.467  0.00  0.00    -0.221 NA
ATOM     20  C   UNL     1       2.175   0.143  23.328  0.00  0.00    +0.041 A 
ATOM     21  C   UNL     1       2.888   1.221  22.817  0.00  0.00    +0.018 A 
ATOM     22  C   UNL     1       2.876  -1.012  23.634  0.00  0.00    +0.126 A 
ATOM     23  C   UNL     1       4.262   1.113  22.632  0.00  0.00    +0.068 A 
ATOM     24  C   UNL     1       4.870  -0.084  22.969  0.00  0.00    +0.214 A 
BRANCH  24   2
ATOM      2  O   UNL     1       6.223  -0.216  22.795  0.00  0.00    -0.480 OA
ATOM     25  C   UNL     1       6.975  -0.646  23.924  0.00  0.00    +0.279 C 
ENDBRANCH  24   2
ENDBRANCH  19  20
BRANCH  17   9
ATOM      3  N   UNL     1      -3.628  -0.175  24.269  0.00  0.00    -0.288 NA
ATOM      9  C   UNL     1      -2.410  -0.817  24.802  0.00  0.00    +0.146 C 
ATOM     10  C   UNL     1      -4.689  -1.182  24.335  0.00  0.00    +0.085 C 
ATOM     13  C   UNL     1      -2.596  -2.316  24.504  0.00  0.00    +0.030 C 
ATOM     14  C   UNL     1      -3.969  -2.428  23.859  0.00  0.00    +0.017 C 
BRANCH   3   8
ATOM      4  N   UNL     1      -5.583   3.502  25.116  0.00  0.00    -0.305 NA
ATOM      8  C   UNL     1      -3.990   1.051  24.974  0.00  0.00    +0.060 C 
ATOM     11  C   UNL     1      -5.478   1.039  25.332  0.00  0.00    +0.034 C 
ATOM     12  C   UNL     1      -3.667   2.286  24.129  0.00  0.00    +0.034 C 
ATOM     15  C   UNL     1      -5.897   2.359  25.984  0.00  0.00    +0.085 C 
ATOM     16  C   UNL     1      -4.145   3.565  24.819  0.00  0.00    +0.085 C 
ATOM     18  C   UNL     1      -6.034   4.750  25.729  0.00  0.00    +0.104 C 
ENDBRANCH   3   8
ENDBRANCH  17   9
TORSDOF 4
ENDMDL
MODEL 4
REMARK VINA RESULT:      -0.8     16.990     18.017
REMARK  Name = 45783697
REMARK  6 active torsions:
REMARK  status: ('A' for Active; 'I' for Inactive)
REMARK    1  A    between atoms: O_2  and  C_24
REMARK    2  A    between atoms: O_2  and  C_25
REMARK    3  A    between atoms: N_3  and  C_8
REMARK    4  A    between atoms: N_4  and  C_18
REMARK    5  A    between atoms: C_9  and  C_17
REMARK    6  A    between atoms: C_19  and  C_20
REMARK                            x       y       z     vdW  Elec       q    Type
REMARK                         _______ _______ _______ _____ _____    ______ ____
ROOT
ATOM      1  O   UNL     1      -0.778  -0.438  22.614  0.00  0.00    -0.336 OA
ATOM      5  N   UNL     1       0.540  -0.558  24.421  0.00  0.00    -0.190 NA
ATOM      6  N   UNL     1       0.533  -0.268  22.151  0.00  0.00    -0.056 NA
ATOM     17  C   UNL     1      -0.685  -0.603  23.959  0.00  0.00    +0.245 A 
ATOM     19  C   UNL     1       1.252  -0.350  23.276  0.00  0.00    +0.204 A 
ENDROOT
BRANCH  19  20
ATOM      7  N   UNL     1       4.833  -1.210  23.788  0.00  0.00    -0.221 NA
ATOM     20  C   UNL     1       2.681  -0.229  23.288  0.00  0.00    +0.041 A 
ATOM     21  C   UNL     1       3.305   0.929  22.839  0.00  0.00    +0.018 A 
ATOM     22  C   UNL     1       3.483  -1.261  23.749  0.00  0.00    +0.126 A 
ATOM     23  C   UNL     1       4.692   1.019  22.864  0.00  0.00    +0.068 A 
ATOM     24  C   UNL     1       5.404  -0.068  23.344  0.00  0.00    +0.214 A 
BRANCH  24   2
ATOM      2  O   UNL     1       6.773  -0.005  23.379  0.00  0.00    -0.480 OA
ATOM     25  C   UNL     1       7.478  -0.975  22.614  0.00  0.00    +0.279 C 
ENDBRANCH  24   2
ENDBRANCH  19  20
BRANCH  17   9
ATOM      3  N   UNL     1      -3.076   0.044  24.196  0.00  0.00    -0.288 NA
ATOM      9  C   UNL     1      -1.985  -0.810  24.706  0.00  0.00    +0.146 C 
ATOM     10  C   UNL     1      -4.321  -0.686  24.439  0.00  0.00    +0.085 C 
ATOM     13  C   UNL     1      -2.522  -2.248  24.577  0.00  0.00    +0.030 C 
ATOM     14  C   UNL     1      -3.939  -2.098  24.044  0.00  0.00    +0.017 C 
BRANCH   3   8
ATOM      4  N   UNL     1      -2.141   4.143  24.817  0.00  0.00    -0.305 NA
ATOM      8  C   UNL     1      -3.093   1.376  24.795  0.00  0.00    +0.060 C 
ATOM     11  C   UNL     1      -3.569   2.411  23.773  0.00  0.00    +0.034 C 
ATOM     12  C   UNL     1      -1.707   1.759  25.321  0.00  0.00    +0.034 C 
ATOM     15  C   UNL     1      -3.499   3.827  24.352  0.00  0.00    +0.085 C 
ATOM     16  C   UNL     1      -1.698   3.195  25.849  0.00  0.00    +0.085 C 
ATOM     18  C   UNL     1      -2.080   5.514  25.321  0.00  0.00    +0.104 C 
ENDBRANCH   3   8
ENDBRANCH  17   9
TORSDOF 4
ENDMDL
MODEL 5
REMARK VINA RESULT:       0.4     16.660     18.073
REMARK  Name = 45783697
REMARK  6 active torsions:
REMARK  status: ('A' for Active; 'I' for Inactive)
REMARK    1  A    between atoms: O_2  and  C_24
REMARK    2  A    between atoms: O_2  and  C_25
REMARK    3  A    between atoms: N_3  and  C_8
REMARK    4  A    between atoms: N_4  and  C_18
REMARK    5  A    between atoms: C_9  and  C_17
REMARK    6  A    between atoms: C_19  and  C_20
REMARK                            x       y       z     vdW  Elec       q    Type
REMARK                         _______ _______ _______ _____ _____    ______ ____
ROOT
ATOM      1  O   UNL     1      -0.305   0.490  22.578  0.00  0.00    -0.336 OA
ATOM      5  N   UNL     1       1.157   1.470  23.964  0.00  0.00    -0.190 NA
ATOM      6  N   UNL     1       0.923  -0.153  22.369  0.00  0.00    -0.056 NA
ATOM     17  C   UNL     1      -0.079   1.431  23.532  0.00  0.00    +0.245 A 
ATOM     19  C   UNL     1       1.733   0.481  23.222  0.00  0.00    +0.204 A 
ENDROOT
BRANCH  19  20
ATOM      7  N   UNL     1       4.813  -1.493  23.891  0.00  0.00    -0.221 NA
ATOM     20  C   UNL     1       3.122   0.151  23.357  0.00  0.00    +0.041 A 
ATOM     21  C   UNL     1       4.110   1.095  23.101  0.00  0.00    +0.018 A 
ATOM     22  C   UNL     1       3.522  -1.118  23.745  0.00  0.00    +0.126 A 
ATOM     23  C   UNL     1       5.449   0.747  23.241  0.00  0.00    +0.068 A 
ATOM     24  C   UNL     1       5.746  -0.548  23.634  0.00  0.00    +0.214 A 
BRANCH  24   2
ATOM      2  O   UNL     1       7.058  -0.916  23.779  0.00  0.00    -0.480 OA
ATOM     25  C   UNL     1       7.959  -0.484  22.766  0.00  0.00    +0.279 C 
ENDBRANCH  24   2
ENDBRANCH  19  20
BRANCH  17   9
ATOM      3  N   UNL     1      -1.778   1.921  25.282  0.00  0.00    -0.288 NA
ATOM      9  C   UNL     1      -1.267   2.274  23.943  0.00  0.00    +0.146 C 
ATOM     10  C   UNL     1      -2.362   3.144  25.837  0.00  0.00    +0.085 C 
ATOM     13  C   UNL     1      -0.929   3.774  24.035  0.00  0.00    +0.030 C 
ATOM     14  C   UNL     1      -1.339   4.188  25.441  0.00  0.00    +0.017 C 
BRANCH   3   8
ATOM      4  N   UNL     1      -3.621  -1.727  24.119  0.00  0.00    -0.305 NA
ATOM      8  C   UNL     1      -2.732   0.816  25.262  0.00  0.00    +0.060 C 
ATOM     11  C   UNL     1      -2.019  -0.506  25.557  0.00  0.00    +0.034 C 
ATOM     12  C   UNL     1      -3.448   0.733  23.911  0.00  0.00    +0.034 C 
ATOM     15  C   UNL     1      -2.985  -1.689  25.443  0.00  0.00    +0.085 C 
ATOM     16  C   UNL     1      -4.366  -0.489  23.851  0.00  0.00    +0.085 C 
ATOM     18  C   UNL     1      -4.501  -2.889  24.008  0.00  0.00    +0.104 C 
ENDBRANCH   3   8
ENDBRANCH  17   9
TORSDOF 4
ENDMDL
