MODEL 1
REMARK VINA RESULT:       1.0      0.000      0.000
REMARK  Name = 40777761
REMARK  10 active torsions:
REMARK  status: ('A' for Active; 'I' for Inactive)
REMARK    1  A    between atoms: O_2  and  C_10
REMARK    2  A    between atoms: O_2  and  C_19
REMARK    3  A    between atoms: O_4  and  C_31
REMARK    4  A    between atoms: O_4  and  C_32
REMARK    5  A    between atoms: N_5  and  C_18
REMARK    6  A    between atoms: N_7  and  C_25
REMARK    7  A    between atoms: C_8  and  C_11
REMARK    8  A    between atoms: C_14  and  C_16
REMARK    9  A    between atoms: C_15  and  C_17
REMARK   10  A    between atoms: C_24  and  C_26
REMARK                            x       y       z     vdW  Elec       q    Type
REMARK                         _______ _______ _______ _____ _____    ______ ____
ROOT
ATOM      8  C   UNL     1      -2.707   3.828  24.948  0.00  0.00    +0.049 C 
ATOM      9  C   UNL     1      -3.610   3.210  26.033  0.00  0.00    +0.061 C 
ATOM     10  C   UNL     1      -4.912   4.016  26.004  0.00  0.00    +0.202 C 
ATOM     12  C   UNL     1      -3.695   4.538  24.068  0.00  0.00    -0.019 C 
ATOM     13  C   UNL     1      -4.898   4.633  24.645  0.00  0.00    +0.013 C 
ENDROOT
BRANCH   8  11
ATOM      5  N   UNL     1      -0.270   1.414  23.660  0.00  0.00    -0.236 N 
ATOM      6  N   UNL     1      -1.153   1.312  22.652  0.00  0.00    -0.171 NA
ATOM     11  C   UNL     1      -1.853   2.808  24.231  0.00  0.00    +0.003 A 
ATOM     14  C   UNL     1      -0.643   2.296  24.632  0.00  0.00    +0.046 A 
ATOM     15  C   UNL     1      -2.117   2.166  23.006  0.00  0.00    +0.064 A 
ATOM     16  C   UNL     1       0.171   2.569  25.835  0.00  0.00    +0.066 C 
ATOM     17  C   UNL     1      -3.291   2.337  22.131  0.00  0.00    +0.068 C 
BRANCH   5  18
ATOM      1 CL   UNL     1       4.753   1.228  22.777  0.00  0.00    -0.083 Cl
ATOM     18  C   UNL     1       0.897   0.650  23.638  0.00  0.00    +0.067 A 
ATOM     20  C   UNL     1       2.108   1.236  23.266  0.00  0.00    +0.048 A 
ATOM     21  C   UNL     1       0.852  -0.700  23.988  0.00  0.00    +0.028 A 
ATOM     22  C   UNL     1       3.274   0.471  23.243  0.00  0.00    +0.046 A 
ATOM     23  C   UNL     1       2.019  -1.464  23.963  0.00  0.00    +0.007 A 
ATOM     24  C   UNL     1       3.230  -0.879  23.591  0.00  0.00    -0.032 A 
ATOM     26  C   UNL     1       4.456  -1.733  23.579  0.00  0.00    +0.045 C 
ENDBRANCH   5  18
ENDBRANCH   8  11
BRANCH  10   2
ATOM      2  O   UNL     1      -6.022   3.151  26.163  0.00  0.00    -0.443 OA
BRANCH   2  19
ATOM      3  O   UNL     1      -6.864   1.559  24.755  0.00  0.00    -0.226 OA
ATOM      7  N   UNL     1      -4.779   1.316  25.789  0.00  0.00    -0.251 N 
ATOM     19  C   UNL     1      -5.968   1.952  25.491  0.00  0.00    +0.405 C 
ATOM     33  H   UNL     1      -4.156   1.805  26.428  0.00  0.00    +0.158 HD
BRANCH   7  25
ATOM     25  C   UNL     1      -4.318   0.066  25.318  0.00  0.00    +0.037 A 
ATOM     27  C   UNL     1      -4.671  -0.372  24.041  0.00  0.00    +0.027 A 
ATOM     28  C   UNL     1      -3.510  -0.730  26.129  0.00  0.00    +0.027 A 
ATOM     29  C   UNL     1      -4.213  -1.605  23.576  0.00  0.00    +0.047 A 
ATOM     30  C   UNL     1      -3.053  -1.963  25.665  0.00  0.00    +0.047 A 
ATOM     31  C   UNL     1      -3.405  -2.400  24.387  0.00  0.00    +0.120 A 
BRANCH  31   4
ATOM      4  O   UNL     1      -2.959  -3.603  23.932  0.00  0.00    -0.495 OA
ATOM     32  C   UNL     1      -1.611  -3.661  23.465  0.00  0.00    +0.277 C 
ENDBRANCH  31   4
ENDBRANCH   7  25
ENDBRANCH   2  19
ENDBRANCH  10   2
TORSDOF 6
ENDMDL
MODEL 2
REMARK VINA RESULT:       3.3      1.213      1.936
REMARK  Name = 40777761
REMARK  10 active torsions:
REMARK  status: ('A' for Active; 'I' for Inactive)
REMARK    1  A    between atoms: O_2  and  C_10
REMARK    2  A    between atoms: O_2  and  C_19
REMARK    3  A    between atoms: O_4  and  C_31
REMARK    4  A    between atoms: O_4  and  C_32
REMARK    5  A    between atoms: N_5  and  C_18
REMARK    6  A    between atoms: N_7  and  C_25
REMARK    7  A    between atoms: C_8  and  C_11
REMARK    8  A    between atoms: C_14  and  C_16
REMARK    9  A    between atoms: C_15  and  C_17
REMARK   10  A    between atoms: C_24  and  C_26
REMARK                            x       y       z     vdW  Elec       q    Type
REMARK                         _______ _______ _______ _____ _____    ______ ____
ROOT
ATOM      8  C   UNL     1      -3.076   4.294  25.665  0.00  0.00    +0.049 C 
ATOM      9  C   UNL     1      -4.252   3.631  26.408  0.00  0.00    +0.061 C 
ATOM     10  C   UNL     1      -5.522   4.150  25.727  0.00  0.00    +0.202 C 
ATOM     12  C   UNL     1      -3.698   4.688  24.357  0.00  0.00    -0.019 C 
ATOM     13  C   UNL     1      -5.031   4.601  24.393  0.00  0.00    +0.013 C 
ENDROOT
BRANCH   8  11
ATOM      5  N   UNL     1      -0.287   2.084  24.791  0.00  0.00    -0.236 N 
ATOM      6  N   UNL     1      -0.010   2.190  26.102  0.00  0.00    -0.171 NA
ATOM     11  C   UNL     1      -1.868   3.393  25.537  0.00  0.00    +0.003 A 
ATOM     14  C   UNL     1      -1.389   2.787  24.401  0.00  0.00    +0.046 A 
ATOM     15  C   UNL     1      -0.980   2.990  26.552  0.00  0.00    +0.064 A 
ATOM     16  C   UNL     1      -1.880   2.820  23.009  0.00  0.00    +0.066 C 
ATOM     17  C   UNL     1      -1.017   3.350  27.982  0.00  0.00    +0.068 C 
BRANCH   5  18
ATOM      1 CL   UNL     1       4.363   1.277  22.847  0.00  0.00    -0.083 Cl
ATOM     18  C   UNL     1       0.531   1.306  23.971  0.00  0.00    +0.067 A 
ATOM     20  C   UNL     1       1.881   1.628  23.825  0.00  0.00    +0.048 A 
ATOM     21  C   UNL     1      -0.002   0.206  23.298  0.00  0.00    +0.028 A 
ATOM     22  C   UNL     1       2.698   0.850  23.004  0.00  0.00    +0.046 A 
ATOM     23  C   UNL     1       0.816  -0.570  22.476  0.00  0.00    +0.007 A 
ATOM     24  C   UNL     1       2.166  -0.249  22.330  0.00  0.00    -0.032 A 
ATOM     26  C   UNL     1       3.007  -1.107  21.441  0.00  0.00    +0.045 C 
ENDBRANCH   5  18
ENDBRANCH   8  11
BRANCH  10   2
ATOM      2  O   UNL     1      -6.467   3.102  25.598  0.00  0.00    -0.443 OA
BRANCH   2  19
ATOM      3  O   UNL     1      -6.460   1.133  26.762  0.00  0.00    -0.226 OA
ATOM      7  N   UNL     1      -5.016   1.508  24.959  0.00  0.00    -0.251 N 
ATOM     19  C   UNL     1      -6.013   1.829  25.860  0.00  0.00    +0.405 C 
ATOM     33  H   UNL     1      -4.780   2.224  24.275  0.00  0.00    +0.158 HD
BRANCH   7  25
ATOM     25  C   UNL     1      -4.279   0.306  24.869  0.00  0.00    +0.037 A 
ATOM     27  C   UNL     1      -4.643  -0.668  23.939  0.00  0.00    +0.027 A 
ATOM     28  C   UNL     1      -3.187   0.093  25.710  0.00  0.00    +0.027 A 
ATOM     29  C   UNL     1      -3.914  -1.854  23.850  0.00  0.00    +0.047 A 
ATOM     30  C   UNL     1      -2.457  -1.093  25.622  0.00  0.00    +0.047 A 
ATOM     31  C   UNL     1      -2.822  -2.067  24.691  0.00  0.00    +0.120 A 
BRANCH  31   4
ATOM      4  O   UNL     1      -2.110  -3.224  24.602  0.00  0.00    -0.495 OA
ATOM     32  C   UNL     1      -0.702  -3.138  24.820  0.00  0.00    +0.277 C 
ENDBRANCH  31   4
ENDBRANCH   7  25
ENDBRANCH   2  19
ENDBRANCH  10   2
TORSDOF 6
ENDMDL
MODEL 3
REMARK VINA RESULT:       3.4      2.262      4.347
REMARK  Name = 40777761
REMARK  10 active torsions:
REMARK  status: ('A' for Active; 'I' for Inactive)
REMARK    1  A    between atoms: O_2  and  C_10
REMARK    2  A    between atoms: O_2  and  C_19
REMARK    3  A    between atoms: O_4  and  C_31
REMARK    4  A    between atoms: O_4  and  C_32
REMARK    5  A    between atoms: N_5  and  C_18
REMARK    6  A    between atoms: N_7  and  C_25
REMARK    7  A    between atoms: C_8  and  C_11
REMARK    8  A    between atoms: C_14  and  C_16
REMARK    9  A    between atoms: C_15  and  C_17
REMARK   10  A    between atoms: C_24  and  C_26
REMARK                            x       y       z     vdW  Elec       q    Type
REMARK                         _______ _______ _______ _____ _____    ______ ____
ROOT
ATOM      8  C   UNL     1      -3.965   0.302  23.892  0.00  0.00    +0.049 C 
ATOM      9  C   UNL     1      -4.081   1.795  23.530  0.00  0.00    +0.061 C 
ATOM     10  C   UNL     1      -5.314   2.312  24.277  0.00  0.00    +0.202 C 
ATOM     12  C   UNL     1      -4.764   0.211  25.160  0.00  0.00    -0.019 C 
ATOM     13  C   UNL     1      -5.493   1.311  25.369  0.00  0.00    +0.013 C 
ENDROOT
BRANCH   8  11
ATOM      5  N   UNL     1      -0.361  -0.355  23.918  0.00  0.00    -0.236 N 
ATOM      6  N   UNL     1      -0.737  -1.471  24.567  0.00  0.00    -0.171 NA
ATOM     11  C   UNL     1      -2.535  -0.172  24.018  0.00  0.00    +0.003 A 
ATOM     14  C   UNL     1      -1.400   0.457  23.568  0.00  0.00    +0.046 A 
ATOM     15  C   UNL     1      -2.066  -1.353  24.625  0.00  0.00    +0.064 A 
ATOM     16  C   UNL     1      -1.224   1.736  22.851  0.00  0.00    +0.066 C 
ATOM     17  C   UNL     1      -2.859  -2.409  25.281  0.00  0.00    +0.068 C 
BRANCH   5  18
ATOM      1 CL   UNL     1       4.391  -2.214  23.808  0.00  0.00    -0.083 Cl
ATOM     18  C   UNL     1       0.992  -0.124  23.667  0.00  0.00    +0.067 A 
ATOM     20  C   UNL     1       1.920  -1.152  23.837  0.00  0.00    +0.048 A 
ATOM     21  C   UNL     1       1.416   1.136  23.244  0.00  0.00    +0.028 A 
ATOM     22  C   UNL     1       3.272  -0.920  23.586  0.00  0.00    +0.046 A 
ATOM     23  C   UNL     1       2.769   1.368  22.994  0.00  0.00    +0.007 A 
ATOM     24  C   UNL     1       3.697   0.340  23.165  0.00  0.00    -0.032 A 
ATOM     26  C   UNL     1       5.136   0.631  22.886  0.00  0.00    +0.045 C 
ENDBRANCH   5  18
ENDBRANCH   8  11
BRANCH  10   2
ATOM      2  O   UNL     1      -5.059   3.603  24.801  0.00  0.00    -0.443 OA
BRANCH   2  19
ATOM      3  O   UNL     1      -4.214   4.180  26.846  0.00  0.00    -0.226 OA
ATOM      7  N   UNL     1      -2.886   3.184  25.196  0.00  0.00    -0.251 N 
ATOM     19  C   UNL     1      -4.050   3.701  25.731  0.00  0.00    +0.405 C 
ATOM     33  H   UNL     1      -2.948   2.828  24.244  0.00  0.00    +0.158 HD
BRANCH   7  25
ATOM     25  C   UNL     1      -1.616   3.087  25.806  0.00  0.00    +0.037 A 
ATOM     27  C   UNL     1      -0.612   3.999  25.478  0.00  0.00    +0.027 A 
ATOM     28  C   UNL     1      -1.364   2.080  26.736  0.00  0.00    +0.027 A 
ATOM     29  C   UNL     1       0.642   3.904  26.082  0.00  0.00    +0.047 A 
ATOM     30  C   UNL     1      -0.111   1.983  27.341  0.00  0.00    +0.047 A 
ATOM     31  C   UNL     1       0.892   2.897  27.013  0.00  0.00    +0.120 A 
BRANCH  31   4
ATOM      4  O   UNL     1       2.116   2.804  27.602  0.00  0.00    -0.495 OA
ATOM     32  C   UNL     1       2.146   2.739  29.028  0.00  0.00    +0.277 C 
ENDBRANCH  31   4
ENDBRANCH   7  25
ENDBRANCH   2  19
ENDBRANCH  10   2
TORSDOF 6
ENDMDL
MODEL 4
REMARK VINA RESULT:       4.6      2.037      4.572
REMARK  Name = 40777761
REMARK  10 active torsions:
REMARK  status: ('A' for Active; 'I' for Inactive)
REMARK    1  A    between atoms: O_2  and  C_10
REMARK    2  A    between atoms: O_2  and  C_19
REMARK    3  A    between atoms: O_4  and  C_31
REMARK    4  A    between atoms: O_4  and  C_32
REMARK    5  A    between atoms: N_5  and  C_18
REMARK    6  A    between atoms: N_7  and  C_25
REMARK    7  A    between atoms: C_8  and  C_11
REMARK    8  A    between atoms: C_14  and  C_16
REMARK    9  A    between atoms: C_15  and  C_17
REMARK   10  A    between atoms: C_24  and  C_26
REMARK                            x       y       z     vdW  Elec       q    Type
REMARK                         _______ _______ _______ _____ _____    ______ ____
ROOT
ATOM      8  C   UNL     1      -2.768  -1.201  24.375  0.00  0.00    +0.049 C 
ATOM      9  C   UNL     1      -4.046  -0.375  24.130  0.00  0.00    +0.061 C 
ATOM     10  C   UNL     1      -4.930  -0.598  25.361  0.00  0.00    +0.202 C 
ATOM     12  C   UNL     1      -2.780  -1.385  25.865  0.00  0.00    -0.019 C 
ATOM     13  C   UNL     1      -3.958  -1.049  26.399  0.00  0.00    +0.013 C 
ENDROOT
BRANCH   8  11
ATOM      5  N   UNL     1       0.547  -0.005  23.374  0.00  0.00    -0.236 N 
ATOM      6  N   UNL     1      -0.171   0.898  22.683  0.00  0.00    -0.171 NA
ATOM     11  C   UNL     1      -1.519  -0.541  23.836  0.00  0.00    +0.003 A 
ATOM     14  C   UNL     1      -0.214  -0.890  24.080  0.00  0.00    +0.046 A 
ATOM     15  C   UNL     1      -1.432   0.565  22.969  0.00  0.00    +0.064 A 
ATOM     16  C   UNL     1       0.359  -1.969  24.910  0.00  0.00    +0.066 C 
ATOM     17  C   UNL     1      -2.538   1.344  22.382  0.00  0.00    +0.068 C 
BRANCH   5  18
ATOM      1 CL   UNL     1       4.957  -2.503  23.971  0.00  0.00    -0.083 Cl
ATOM     18  C   UNL     1       1.941   0.030  23.318  0.00  0.00    +0.067 A 
ATOM     20  C   UNL     1       2.681  -1.110  23.631  0.00  0.00    +0.048 A 
ATOM     21  C   UNL     1       2.593   1.207  22.948  0.00  0.00    +0.028 A 
ATOM     22  C   UNL     1       4.074  -1.074  23.576  0.00  0.00    +0.046 A 
ATOM     23  C   UNL     1       3.987   1.242  22.894  0.00  0.00    +0.007 A 
ATOM     24  C   UNL     1       4.727   0.102  23.208  0.00  0.00    -0.032 A 
ATOM     26  C   UNL     1       6.218   0.182  23.137  0.00  0.00    +0.045 C 
ENDBRANCH   5  18
ENDBRANCH   8  11
BRANCH  10   2
ATOM      2  O   UNL     1      -5.555   0.617  25.736  0.00  0.00    -0.443 OA
BRANCH   2  19
ATOM      3  O   UNL     1      -5.617   2.569  24.548  0.00  0.00    -0.226 OA
ATOM      7  N   UNL     1      -3.682   1.858  25.655  0.00  0.00    -0.251 N 
ATOM     19  C   UNL     1      -4.997   1.773  25.242  0.00  0.00    +0.405 C 
ATOM     33  H   UNL     1      -3.342   1.091  26.232  0.00  0.00    +0.158 HD
BRANCH   7  25
ATOM     25  C   UNL     1      -2.746   2.878  25.376  0.00  0.00    +0.037 A 
ATOM     27  C   UNL     1      -1.385   2.653  25.584  0.00  0.00    +0.027 A 
ATOM     28  C   UNL     1      -3.182   4.111  24.891  0.00  0.00    +0.027 A 
ATOM     29  C   UNL     1      -0.461   3.661  25.306  0.00  0.00    +0.047 A 
ATOM     30  C   UNL     1      -2.259   5.119  24.614  0.00  0.00    +0.047 A 
ATOM     31  C   UNL     1      -0.898   4.893  24.822  0.00  0.00    +0.120 A 
BRANCH  31   4
ATOM      4  O   UNL     1       0.005   5.876  24.550  0.00  0.00    -0.495 OA
ATOM     32  C   UNL     1       0.599   5.871  23.252  0.00  0.00    +0.277 C 
ENDBRANCH  31   4
ENDBRANCH   7  25
ENDBRANCH   2  19
ENDBRANCH  10   2
TORSDOF 6
ENDMDL
MODEL 5
REMARK VINA RESULT:       4.7      1.576      2.286
REMARK  Name = 40777761
REMARK  10 active torsions:
REMARK  status: ('A' for Active; 'I' for Inactive)
REMARK    1  A    between atoms: O_2  and  C_10
REMARK    2  A    between atoms: O_2  and  C_19
REMARK    3  A    between atoms: O_4  and  C_31
REMARK    4  A    between atoms: O_4  and  C_32
REMARK    5  A    between atoms: N_5  and  C_18
REMARK    6  A    between atoms: N_7  and  C_25
REMARK    7  A    between atoms: C_8  and  C_11
REMARK    8  A    between atoms: C_14  and  C_16
REMARK    9  A    between atoms: C_15  and  C_17
REMARK   10  A    between atoms: C_24  and  C_26
REMARK                            x       y       z     vdW  Elec       q    Type
REMARK                         _______ _______ _______ _____ _____    ______ ____
ROOT
ATOM      8  C   UNL     1      -3.001   4.291  25.546  0.00  0.00    +0.049 C 
ATOM      9  C   UNL     1      -4.156   3.575  26.273  0.00  0.00    +0.061 C 
ATOM     10  C   UNL     1      -5.437   4.016  25.559  0.00  0.00    +0.202 C 
ATOM     12  C   UNL     1      -3.615   4.636  24.220  0.00  0.00    -0.019 C 
ATOM     13  C   UNL     1      -4.942   4.478  24.229  0.00  0.00    +0.013 C 
ENDROOT
BRANCH   8  11
ATOM      5  N   UNL     1      -0.036   2.292  24.751  0.00  0.00    -0.236 N 
ATOM      6  N   UNL     1       0.106   2.273  26.088  0.00  0.00    -0.171 NA
ATOM     11  C   UNL     1      -1.744   3.456  25.455  0.00  0.00    +0.003 A 
ATOM     14  C   UNL     1      -1.127   2.988  24.321  0.00  0.00    +0.046 A 
ATOM     15  C   UNL     1      -0.941   2.986  26.512  0.00  0.00    +0.064 A 
ATOM     16  C   UNL     1      -1.480   3.144  22.895  0.00  0.00    +0.066 C 
ATOM     17  C   UNL     1      -1.136   3.195  27.958  0.00  0.00    +0.068 C 
BRANCH   5  18
ATOM      1 CL   UNL     1       0.872  -1.313  21.253  0.00  0.00    -0.083 Cl
ATOM     18  C   UNL     1       0.897   1.634  23.947  0.00  0.00    +0.067 A 
ATOM     20  C   UNL     1       0.484   0.609  23.096  0.00  0.00    +0.048 A 
ATOM     21  C   UNL     1       2.241   2.003  23.996  0.00  0.00    +0.028 A 
ATOM     22  C   UNL     1       1.417  -0.049  22.294  0.00  0.00    +0.046 A 
ATOM     23  C   UNL     1       3.174   1.344  23.194  0.00  0.00    +0.007 A 
ATOM     24  C   UNL     1       2.762   0.319  22.343  0.00  0.00    -0.032 A 
ATOM     26  C   UNL     1       3.793  -0.361  21.501  0.00  0.00    +0.045 C 
ENDBRANCH   5  18
ENDBRANCH   8  11
BRANCH  10   2
ATOM      2  O   UNL     1      -6.321   2.917  25.424  0.00  0.00    -0.443 OA
BRANCH   2  19
ATOM      3  O   UNL     1      -6.232   0.995  26.660  0.00  0.00    -0.226 OA
ATOM      7  N   UNL     1      -4.796   1.368  24.850  0.00  0.00    -0.251 N 
ATOM     19  C   UNL     1      -5.811   1.677  25.734  0.00  0.00    +0.405 C 
ATOM     33  H   UNL     1      -4.589   2.068  24.140  0.00  0.00    +0.158 HD
BRANCH   7  25
ATOM     25  C   UNL     1      -4.006   0.198  24.807  0.00  0.00    +0.037 A 
ATOM     27  C   UNL     1      -4.454  -0.923  24.107  0.00  0.00    +0.027 A 
ATOM     28  C   UNL     1      -2.777   0.162  25.465  0.00  0.00    +0.027 A 
ATOM     29  C   UNL     1      -3.672  -2.077  24.063  0.00  0.00    +0.047 A 
ATOM     30  C   UNL     1      -1.994  -0.992  25.422  0.00  0.00    +0.047 A 
ATOM     31  C   UNL     1      -2.443  -2.112  24.721  0.00  0.00    +0.120 A 
BRANCH  31   4
ATOM      4  O   UNL     1      -1.680  -3.238  24.678  0.00  0.00    -0.495 OA
ATOM     32  C   UNL     1      -0.309  -3.109  25.054  0.00  0.00    +0.277 C 
ENDBRANCH  31   4
ENDBRANCH   7  25
ENDBRANCH   2  19
ENDBRANCH  10   2
TORSDOF 6
ENDMDL
