MODEL 1
REMARK VINA RESULT:      -4.6      0.000      0.000
REMARK  Name = 26745534
REMARK  5 active torsions:
REMARK  status: ('A' for Active; 'I' for Inactive)
REMARK    1  A    between atoms: O_1  and  C_12
REMARK    2  A    between atoms: O_1  and  C_19
REMARK    3  A    between atoms: N_5  and  C_15
REMARK    4  A    between atoms: C_7  and  C_12
REMARK    5  A    between atoms: C_13  and  C_16
REMARK                            x       y       z     vdW  Elec       q    Type
REMARK                         _______ _______ _______ _____ _____    ______ ____
ROOT
ATOM      3  O   UNL     1       0.936   2.285  25.884  0.00  0.00    -0.270 OA
ATOM      4  N   UNL     1      -0.718   0.909  24.947  0.00  0.00    -0.278 N 
ATOM      5  N   UNL     1      -3.772  -1.164  24.312  0.00  0.00    -0.336 N 
ATOM      6  N   UNL     1      -2.446  -2.893  24.805  0.00  0.00    -0.240 NA
ATOM      7  C   UNL     1       0.231  -0.213  24.725  0.00  0.00    +0.191 C 
ATOM      8  C   UNL     1      -0.302  -1.595  25.158  0.00  0.00    +0.091 C 
ATOM      9  C   UNL     1      -2.122   0.770  24.463  0.00  0.00    +0.164 C 
ATOM     10  C   UNL     1      -2.531  -0.645  24.539  0.00  0.00    +0.059 A 
ATOM     11  C   UNL     1      -1.738  -1.724  24.835  0.00  0.00    +0.066 A 
ATOM     13  C   UNL     1      -0.210   2.110  25.471  0.00  0.00    +0.248 C 
ATOM     14  C   UNL     1      -3.670  -2.521  24.486  0.00  0.00    +0.199 A 
ATOM     15  C   UNL     1      -4.968  -0.443  23.953  0.00  0.00    +0.150 C 
ENDROOT
BRANCH  13  16
ATOM     16  C   UNL     1      -1.107   3.273  25.537  0.00  0.00    +0.037 A 
ATOM     17  C   UNL     1      -2.328   3.174  26.204  0.00  0.00    +0.013 A 
ATOM     18  C   UNL     1      -0.737   4.474  24.932  0.00  0.00    +0.013 A 
ATOM     20  C   UNL     1      -3.180   4.277  26.265  0.00  0.00    +0.001 A 
ATOM     21  C   UNL     1      -1.590   5.577  24.993  0.00  0.00    +0.001 A 
ATOM     22  C   UNL     1      -2.810   5.478  25.661  0.00  0.00    +0.000 A 
ENDBRANCH  13  16
BRANCH   7  12
ATOM      2  O   UNL     1       0.029  -0.847  22.408  0.00  0.00    -0.249 OA
ATOM     12  C   UNL     1       0.585  -0.174  23.267  0.00  0.00    +0.328 C 
BRANCH  12   1
ATOM      1  O   UNL     1       1.601   0.713  23.067  0.00  0.00    -0.467 OA
ATOM     19  C   UNL     1       2.788   0.168  22.481  0.00  0.00    +0.280 C 
ENDBRANCH  12   1
ENDBRANCH   7  12
TORSDOF 3
ENDMDL
MODEL 2
REMARK VINA RESULT:      -3.1      1.553      2.089
REMARK  Name = 26745534
REMARK  5 active torsions:
REMARK  status: ('A' for Active; 'I' for Inactive)
REMARK    1  A    between atoms: O_1  and  C_12
REMARK    2  A    between atoms: O_1  and  C_19
REMARK    3  A    between atoms: N_5  and  C_15
REMARK    4  A    between atoms: C_7  and  C_12
REMARK    5  A    between atoms: C_13  and  C_16
REMARK                            x       y       z     vdW  Elec       q    Type
REMARK                         _______ _______ _______ _____ _____    ______ ____
ROOT
ATOM      3  O   UNL     1      -1.095   2.863  26.106  0.00  0.00    -0.270 OA
ATOM      4  N   UNL     1      -1.841   0.920  25.022  0.00  0.00    -0.278 N 
ATOM      5  N   UNL     1      -3.548  -2.284  24.100  0.00  0.00    -0.336 N 
ATOM      6  N   UNL     1      -1.647  -3.247  24.772  0.00  0.00    -0.240 NA
ATOM      7  C   UNL     1      -0.471   0.351  24.930  0.00  0.00    +0.191 C 
ATOM      8  C   UNL     1      -0.369  -1.136  25.330  0.00  0.00    +0.091 C 
ATOM      9  C   UNL     1      -2.971   0.179  24.390  0.00  0.00    +0.164 C 
ATOM     10  C   UNL     1      -2.706  -1.270  24.451  0.00  0.00    +0.059 A 
ATOM     11  C   UNL     1      -1.549  -1.886  24.855  0.00  0.00    +0.066 A 
ATOM     13  C   UNL     1      -1.988   2.204  25.574  0.00  0.00    +0.248 C 
ATOM     14  C   UNL     1      -2.865  -3.455  24.312  0.00  0.00    +0.199 A 
ATOM     15  C   UNL     1      -4.894  -2.167  23.596  0.00  0.00    +0.150 C 
ENDROOT
BRANCH  13  16
ATOM     16  C   UNL     1      -3.313   2.837  25.516  0.00  0.00    +0.037 A 
ATOM     17  C   UNL     1      -3.420   4.224  25.428  0.00  0.00    +0.013 A 
ATOM     18  C   UNL     1      -4.464   2.049  25.551  0.00  0.00    +0.013 A 
ATOM     20  C   UNL     1      -4.678   4.825  25.375  0.00  0.00    +0.001 A 
ATOM     21  C   UNL     1      -5.722   2.651  25.498  0.00  0.00    +0.001 A 
ATOM     22  C   UNL     1      -5.828   4.039  25.409  0.00  0.00    +0.000 A 
ENDBRANCH  13  16
BRANCH   7  12
ATOM      2  O   UNL     1      -0.430   1.500  22.811  0.00  0.00    -0.249 OA
ATOM     12  C   UNL     1      -0.018   0.590  23.518  0.00  0.00    +0.328 C 
BRANCH  12   1
ATOM      1  O   UNL     1       0.903  -0.353  23.169  0.00  0.00    -0.467 OA
ATOM     19  C   UNL     1       2.100   0.149  22.567  0.00  0.00    +0.280 C 
ENDBRANCH  12   1
ENDBRANCH   7  12
TORSDOF 3
ENDMDL
MODEL 3
REMARK VINA RESULT:      -3.0      2.874      6.376
REMARK  Name = 26745534
REMARK  5 active torsions:
REMARK  status: ('A' for Active; 'I' for Inactive)
REMARK    1  A    between atoms: O_1  and  C_12
REMARK    2  A    between atoms: O_1  and  C_19
REMARK    3  A    between atoms: N_5  and  C_15
REMARK    4  A    between atoms: C_7  and  C_12
REMARK    5  A    between atoms: C_13  and  C_16
REMARK                            x       y       z     vdW  Elec       q    Type
REMARK                         _______ _______ _______ _____ _____    ______ ____
ROOT
ATOM      3  O   UNL     1      -5.466   0.812  26.055  0.00  0.00    -0.270 OA
ATOM      4  N   UNL     1      -3.459   1.614  25.142  0.00  0.00    -0.278 N 
ATOM      5  N   UNL     1       0.133   2.361  24.389  0.00  0.00    -0.336 N 
ATOM      6  N   UNL     1      -0.235   4.243  25.536  0.00  0.00    -0.240 NA
ATOM      7  C   UNL     1      -3.822   3.033  25.391  0.00  0.00    +0.191 C 
ATOM      8  C   UNL     1      -2.693   3.882  26.013  0.00  0.00    +0.091 C 
ATOM      9  C   UNL     1      -2.187   1.312  24.424  0.00  0.00    +0.164 C 
ATOM     10  C   UNL     1      -1.184   2.346  24.741  0.00  0.00    +0.059 A 
ATOM     11  C   UNL     1      -1.384   3.510  25.439  0.00  0.00    +0.066 A 
ATOM     13  C   UNL     1      -4.402   0.624  25.466  0.00  0.00    +0.248 C 
ATOM     14  C   UNL     1       0.662   3.523  24.892  0.00  0.00    +0.199 A 
ATOM     15  C   UNL     1       0.846   1.363  23.631  0.00  0.00    +0.150 C 
ENDROOT
BRANCH  13  16
ATOM     16  C   UNL     1      -4.116  -0.763  25.071  0.00  0.00    +0.037 A 
ATOM     17  C   UNL     1      -3.398  -1.597  25.927  0.00  0.00    +0.013 A 
ATOM     18  C   UNL     1      -4.563  -1.244  23.840  0.00  0.00    +0.013 A 
ATOM     20  C   UNL     1      -3.125  -2.913  25.551  0.00  0.00    +0.001 A 
ATOM     21  C   UNL     1      -4.290  -2.559  23.465  0.00  0.00    +0.001 A 
ATOM     22  C   UNL     1      -3.572  -3.394  24.321  0.00  0.00    +0.000 A 
ENDBRANCH  13  16
BRANCH   7  12
ATOM      2  O   UNL     1      -3.946   3.121  22.985  0.00  0.00    -0.249 OA
ATOM     12  C   UNL     1      -4.279   3.581  24.069  0.00  0.00    +0.328 C 
BRANCH  12   1
ATOM      1  O   UNL     1      -5.103   4.647  24.277  0.00  0.00    -0.467 OA
ATOM     19  C   UNL     1      -5.970   4.543  25.411  0.00  0.00    +0.280 C 
ENDBRANCH  12   1
ENDBRANCH   7  12
TORSDOF 3
ENDMDL
MODEL 4
REMARK VINA RESULT:      -2.4      2.457      4.644
REMARK  Name = 26745534
REMARK  5 active torsions:
REMARK  status: ('A' for Active; 'I' for Inactive)
REMARK    1  A    between atoms: O_1  and  C_12
REMARK    2  A    between atoms: O_1  and  C_19
REMARK    3  A    between atoms: N_5  and  C_15
REMARK    4  A    between atoms: C_7  and  C_12
REMARK    5  A    between atoms: C_13  and  C_16
REMARK                            x       y       z     vdW  Elec       q    Type
REMARK                         _______ _______ _______ _____ _____    ______ ____
ROOT
ATOM      3  O   UNL     1      -4.745  -0.758  23.796  0.00  0.00    -0.270 OA
ATOM      4  N   UNL     1      -2.589   0.030  24.284  0.00  0.00    -0.278 N 
ATOM      5  N   UNL     1       0.640   1.925  24.371  0.00  0.00    -0.336 N 
ATOM      6  N   UNL     1       1.409   0.263  23.091  0.00  0.00    -0.240 NA
ATOM      7  C   UNL     1      -1.952  -1.267  23.937  0.00  0.00    +0.191 C 
ATOM      8  C   UNL     1      -0.694  -1.145  23.053  0.00  0.00    +0.091 C 
ATOM      9  C   UNL     1      -1.736   1.129  24.821  0.00  0.00    +0.164 C 
ATOM     10  C   UNL     1      -0.386   1.037  24.235  0.00  0.00    +0.059 A 
ATOM     11  C   UNL     1       0.112   0.028  23.451  0.00  0.00    +0.066 A 
ATOM     13  C   UNL     1      -3.991   0.114  24.227  0.00  0.00    +0.248 C 
ATOM     14  C   UNL     1       1.699   1.415  23.662  0.00  0.00    +0.199 A 
ATOM     15  C   UNL     1       0.634   3.161  25.114  0.00  0.00    +0.150 C 
ENDROOT
BRANCH  13  16
ATOM     16  C   UNL     1      -4.634   1.338  24.726  0.00  0.00    +0.037 A 
ATOM     17  C   UNL     1      -4.218   2.584  24.257  0.00  0.00    +0.013 A 
ATOM     18  C   UNL     1      -5.659   1.253  25.668  0.00  0.00    +0.013 A 
ATOM     20  C   UNL     1      -4.827   3.746  24.732  0.00  0.00    +0.001 A 
ATOM     21  C   UNL     1      -6.267   2.416  26.143  0.00  0.00    +0.001 A 
ATOM     22  C   UNL     1      -5.852   3.662  25.673  0.00  0.00    +0.000 A 
ENDBRANCH  13  16
BRANCH   7  12
ATOM      2  O   UNL     1      -0.589  -1.875  25.831  0.00  0.00    -0.249 OA
ATOM     12  C   UNL     1      -1.661  -1.947  25.244  0.00  0.00    +0.328 C 
BRANCH  12   1
ATOM      1  O   UNL     1      -2.763  -2.639  25.654  0.00  0.00    -0.467 OA
ATOM     19  C   UNL     1      -3.426  -3.399  24.639  0.00  0.00    +0.280 C 
ENDBRANCH  12   1
ENDBRANCH   7  12
TORSDOF 3
ENDMDL
MODEL 5
REMARK VINA RESULT:      -2.2      3.056      6.444
REMARK  Name = 26745534
REMARK  5 active torsions:
REMARK  status: ('A' for Active; 'I' for Inactive)
REMARK    1  A    between atoms: O_1  and  C_12
REMARK    2  A    between atoms: O_1  and  C_19
REMARK    3  A    between atoms: N_5  and  C_15
REMARK    4  A    between atoms: C_7  and  C_12
REMARK    5  A    between atoms: C_13  and  C_16
REMARK                            x       y       z     vdW  Elec       q    Type
REMARK                         _______ _______ _______ _____ _____    ______ ____
ROOT
ATOM      3  O   UNL     1      -4.486  -0.223  26.300  0.00  0.00    -0.270 OA
ATOM      4  N   UNL     1      -3.184   1.431  25.263  0.00  0.00    -0.278 N 
ATOM      5  N   UNL     1      -0.473   3.827  24.294  0.00  0.00    -0.336 N 
ATOM      6  N   UNL     1      -1.673   5.323  25.441  0.00  0.00    -0.240 NA
ATOM      7  C   UNL     1      -4.191   2.493  25.517  0.00  0.00    +0.191 C 
ATOM      8  C   UNL     1      -3.605   3.812  26.064  0.00  0.00    +0.091 C 
ATOM      9  C   UNL     1      -1.963   1.770  24.476  0.00  0.00    +0.164 C 
ATOM     10  C   UNL     1      -1.592   3.176  24.723  0.00  0.00    +0.059 A 
ATOM     11  C   UNL     1      -2.311   4.115  25.419  0.00  0.00    +0.066 A 
ATOM     13  C   UNL     1      -3.497   0.117  25.652  0.00  0.00    +0.248 C 
ATOM     14  C   UNL     1      -0.567   5.117  24.754  0.00  0.00    +0.199 A 
ATOM     15  C   UNL     1       0.606   3.284  23.508  0.00  0.00    +0.150 C 
ENDROOT
BRANCH  13  16
ATOM     16  C   UNL     1      -2.579  -0.961  25.256  0.00  0.00    +0.037 A 
ATOM     17  C   UNL     1      -3.045  -2.025  24.485  0.00  0.00    +0.013 A 
ATOM     18  C   UNL     1      -1.242  -0.920  25.653  0.00  0.00    +0.013 A 
ATOM     20  C   UNL     1      -2.175  -3.049  24.111  0.00  0.00    +0.001 A 
ATOM     21  C   UNL     1      -0.372  -1.944  25.278  0.00  0.00    +0.001 A 
ATOM     22  C   UNL     1      -0.838  -3.008  24.506  0.00  0.00    +0.000 A 
ENDBRANCH  13  16
BRANCH   7  12
ATOM      2  O   UNL     1      -4.455   3.295  23.259  0.00  0.00    -0.249 OA
ATOM     12  C   UNL     1      -4.918   2.693  24.219  0.00  0.00    +0.328 C 
BRANCH  12   1
ATOM      1  O   UNL     1      -6.147   2.105  24.288  0.00  0.00    -0.467 OA
ATOM     19  C   UNL     1      -6.699   1.987  25.603  0.00  0.00    +0.280 C 
ENDBRANCH  12   1
ENDBRANCH   7  12
TORSDOF 3
ENDMDL
MODEL 6
REMARK VINA RESULT:      -1.8      2.463      4.969
REMARK  Name = 26745534
REMARK  5 active torsions:
REMARK  status: ('A' for Active; 'I' for Inactive)
REMARK    1  A    between atoms: O_1  and  C_12
REMARK    2  A    between atoms: O_1  and  C_19
REMARK    3  A    between atoms: N_5  and  C_15
REMARK    4  A    between atoms: C_7  and  C_12
REMARK    5  A    between atoms: C_13  and  C_16
REMARK                            x       y       z     vdW  Elec       q    Type
REMARK                         _______ _______ _______ _____ _____    ______ ____
ROOT
ATOM      3  O   UNL     1      -0.723  -1.796  25.171  0.00  0.00    -0.270 OA
ATOM      4  N   UNL     1      -2.254  -0.103  24.628  0.00  0.00    -0.278 N 
ATOM      5  N   UNL     1      -4.184   3.100  24.407  0.00  0.00    -0.336 N 
ATOM      6  N   UNL     1      -5.612   2.092  25.801  0.00  0.00    -0.240 NA
ATOM      7  C   UNL     1      -3.422  -0.911  25.065  0.00  0.00    +0.191 C 
ATOM      8  C   UNL     1      -4.438  -0.146  25.938  0.00  0.00    +0.091 C 
ATOM      9  C   UNL     1      -2.495   1.236  24.015  0.00  0.00    +0.164 C 
ATOM     10  C   UNL     1      -3.704   1.839  24.605  0.00  0.00    +0.059 A 
ATOM     11  C   UNL     1      -4.597   1.242  25.458  0.00  0.00    +0.066 A 
ATOM     13  C   UNL     1      -0.982  -0.697  24.680  0.00  0.00    +0.248 C 
ATOM     14  C   UNL     1      -5.334   3.205  25.149  0.00  0.00    +0.199 A 
ATOM     15  C   UNL     1      -3.612   4.133  23.579  0.00  0.00    +0.150 C 
ENDROOT
BRANCH  13  16
ATOM     16  C   UNL     1       0.151   0.035  24.096  0.00  0.00    +0.037 A 
ATOM     17  C   UNL     1       0.999  -0.600  23.190  0.00  0.00    +0.013 A 
ATOM     18  C   UNL     1       0.378   1.365  24.451  0.00  0.00    +0.013 A 
ATOM     20  C   UNL     1       2.076   0.095  22.638  0.00  0.00    +0.001 A 
ATOM     21  C   UNL     1       1.455   2.060  23.899  0.00  0.00    +0.001 A 
ATOM     22  C   UNL     1       2.303   1.425  22.991  0.00  0.00    +0.000 A 
ENDBRANCH  13  16
BRANCH   7  12
ATOM      2  O   UNL     1      -4.194  -0.795  22.784  0.00  0.00    -0.249 OA
ATOM     12  C   UNL     1      -4.046  -1.447  23.809  0.00  0.00    +0.328 C 
BRANCH  12   1
ATOM      1  O   UNL     1      -4.410  -2.748  24.000  0.00  0.00    -0.467 OA
ATOM     19  C   UNL     1      -3.442  -3.567  24.665  0.00  0.00    +0.280 C 
ENDBRANCH  12   1
ENDBRANCH   7  12
TORSDOF 3
ENDMDL
MODEL 7
REMARK VINA RESULT:      -1.6      2.169      5.582
REMARK  Name = 26745534
REMARK  5 active torsions:
REMARK  status: ('A' for Active; 'I' for Inactive)
REMARK    1  A    between atoms: O_1  and  C_12
REMARK    2  A    between atoms: O_1  and  C_19
REMARK    3  A    between atoms: N_5  and  C_15
REMARK    4  A    between atoms: C_7  and  C_12
REMARK    5  A    between atoms: C_13  and  C_16
REMARK                            x       y       z     vdW  Elec       q    Type
REMARK                         _______ _______ _______ _____ _____    ______ ____
ROOT
ATOM      3  O   UNL     1      -3.057   0.722  26.244  0.00  0.00    -0.270 OA
ATOM      4  N   UNL     1      -1.422   0.746  24.561  0.00  0.00    -0.278 N 
ATOM      5  N   UNL     1       1.487  -0.013  22.327  0.00  0.00    -0.336 N 
ATOM      6  N   UNL     1       2.561   1.512  23.557  0.00  0.00    -0.240 NA
ATOM      7  C   UNL     1      -0.908   2.078  24.972  0.00  0.00    +0.191 C 
ATOM      8  C   UNL     1       0.631   2.171  25.054  0.00  0.00    +0.091 C 
ATOM      9  C   UNL     1      -0.841   0.091  23.353  0.00  0.00    +0.164 C 
ATOM     10  C   UNL     1       0.577   0.472  23.220  0.00  0.00    +0.059 A 
ATOM     11  C   UNL     1       1.259   1.406  23.958  0.00  0.00    +0.066 A 
ATOM     13  C   UNL     1      -2.535   0.227  25.245  0.00  0.00    +0.248 C 
ATOM     14  C   UNL     1       2.667   0.644  22.571  0.00  0.00    +0.199 A 
ATOM     15  C   UNL     1       1.268  -1.016  21.314  0.00  0.00    +0.150 C 
ENDROOT
BRANCH  13  16
ATOM     16  C   UNL     1      -3.148  -1.009  24.738  0.00  0.00    +0.037 A 
ATOM     17  C   UNL     1      -4.267  -0.942  23.909  0.00  0.00    +0.013 A 
ATOM     18  C   UNL     1      -2.610  -2.248  25.087  0.00  0.00    +0.013 A 
ATOM     20  C   UNL     1      -4.850  -2.115  23.429  0.00  0.00    +0.001 A 
ATOM     21  C   UNL     1      -3.194  -3.421  24.606  0.00  0.00    +0.001 A 
ATOM     22  C   UNL     1      -4.313  -3.354  23.776  0.00  0.00    +0.000 A 
ENDBRANCH  13  16
BRANCH   7  12
ATOM      2  O   UNL     1      -2.360   2.792  23.185  0.00  0.00    -0.249 OA
ATOM     12  C   UNL     1      -1.482   3.062  23.994  0.00  0.00    +0.328 C 
BRANCH  12   1
ATOM      1  O   UNL     1      -0.878   4.274  24.158  0.00  0.00    -0.467 OA
ATOM     19  C   UNL     1      -1.423   5.100  25.191  0.00  0.00    +0.280 C 
ENDBRANCH  12   1
ENDBRANCH   7  12
TORSDOF 3
ENDMDL
MODEL 8
REMARK VINA RESULT:      -1.2     17.040     19.092
REMARK  Name = 26745534
REMARK  5 active torsions:
REMARK  status: ('A' for Active; 'I' for Inactive)
REMARK    1  A    between atoms: O_1  and  C_12
REMARK    2  A    between atoms: O_1  and  C_19
REMARK    3  A    between atoms: N_5  and  C_15
REMARK    4  A    between atoms: C_7  and  C_12
REMARK    5  A    between atoms: C_13  and  C_16
REMARK                            x       y       z     vdW  Elec       q    Type
REMARK                         _______ _______ _______ _____ _____    ______ ____
ROOT
ATOM      3  O   UNL     1      12.435  -4.926  31.009  0.00  0.00    -0.270 OA
ATOM      4  N   UNL     1      13.682  -6.913  30.953  0.00  0.00    -0.278 N 
ATOM      5  N   UNL     1      16.018  -9.698  30.049  0.00  0.00    -0.336 N 
ATOM      6  N   UNL     1      14.190 -10.683  29.223  0.00  0.00    -0.240 NA
ATOM      7  C   UNL     1      12.467  -7.767  30.921  0.00  0.00    +0.191 C 
ATOM      8  C   UNL     1      12.513  -8.906  29.880  0.00  0.00    +0.091 C 
ATOM      9  C   UNL     1      15.020  -7.569  31.025  0.00  0.00    +0.164 C 
ATOM     10  C   UNL     1      14.975  -8.862  30.318  0.00  0.00    +0.059 A 
ATOM     11  C   UNL     1      13.868  -9.489  29.805  0.00  0.00    +0.066 A 
ATOM     13  C   UNL     1      13.511  -5.523  31.061  0.00  0.00    +0.248 C 
ATOM     14  C   UNL     1      15.495 -10.781  29.387  0.00  0.00    +0.199 A 
ATOM     15  C   UNL     1      17.405  -9.503  30.390  0.00  0.00    +0.150 C 
ENDROOT
BRANCH  13  16
ATOM     16  C   UNL     1      14.705  -4.689  31.259  0.00  0.00    +0.037 A 
ATOM     17  C   UNL     1      15.624  -4.530  30.223  0.00  0.00    +0.013 A 
ATOM     18  C   UNL     1      14.919  -4.057  32.485  0.00  0.00    +0.013 A 
ATOM     20  C   UNL     1      16.759  -3.741  30.412  0.00  0.00    +0.001 A 
ATOM     21  C   UNL     1      16.053  -3.267  32.673  0.00  0.00    +0.001 A 
ATOM     22  C   UNL     1      16.972  -3.108  31.636  0.00  0.00    +0.000 A 
ENDBRANCH  13  16
BRANCH   7  12
ATOM      2  O   UNL     1      13.073  -9.044  32.873  0.00  0.00    -0.249 OA
ATOM     12  C   UNL     1      12.289  -8.286  32.318  0.00  0.00    +0.328 C 
BRANCH  12   1
ATOM      1  O   UNL     1      11.137  -7.783  32.849  0.00  0.00    -0.467 OA
ATOM     19  C   UNL     1       9.931  -8.425  32.423  0.00  0.00    +0.280 C 
ENDBRANCH  12   1
ENDBRANCH   7  12
TORSDOF 3
ENDMDL
MODEL 9
REMARK VINA RESULT:      -1.0      2.076      5.630
REMARK  Name = 26745534
REMARK  5 active torsions:
REMARK  status: ('A' for Active; 'I' for Inactive)
REMARK    1  A    between atoms: O_1  and  C_12
REMARK    2  A    between atoms: O_1  and  C_19
REMARK    3  A    between atoms: N_5  and  C_15
REMARK    4  A    between atoms: C_7  and  C_12
REMARK    5  A    between atoms: C_13  and  C_16
REMARK                            x       y       z     vdW  Elec       q    Type
REMARK                         _______ _______ _______ _____ _____    ______ ____
ROOT
ATOM      3  O   UNL     1      -0.451  -1.400  24.160  0.00  0.00    -0.270 OA
ATOM      4  N   UNL     1      -1.100   0.854  24.198  0.00  0.00    -0.278 N 
ATOM      5  N   UNL     1      -1.394   4.527  24.870  0.00  0.00    -0.336 N 
ATOM      6  N   UNL     1      -2.980   3.923  26.323  0.00  0.00    -0.240 NA
ATOM      7  C   UNL     1      -2.459   0.535  24.708  0.00  0.00    +0.191 C 
ATOM      8  C   UNL     1      -2.933   1.434  25.870  0.00  0.00    +0.091 C 
ATOM      9  C   UNL     1      -0.770   2.271  23.868  0.00  0.00    +0.164 C 
ATOM     10  C   UNL     1      -1.516   3.173  24.766  0.00  0.00    +0.059 A 
ATOM     11  C   UNL     1      -2.495   2.829  25.662  0.00  0.00    +0.066 A 
ATOM     13  C   UNL     1      -0.234  -0.214  23.912  0.00  0.00    +0.248 C 
ATOM     14  C   UNL     1      -2.296   4.932  25.822  0.00  0.00    +0.199 A 
ATOM     15  C   UNL     1      -0.500   5.384  24.130  0.00  0.00    +0.150 C 
ENDROOT
BRANCH  13  16
ATOM     16  C   UNL     1       1.046   0.087  23.254  0.00  0.00    +0.037 A 
ATOM     17  C   UNL     1       1.380  -0.545  22.057  0.00  0.00    +0.013 A 
ATOM     18  C   UNL     1       1.927   1.003  23.829  0.00  0.00    +0.013 A 
ATOM     20  C   UNL     1       2.595  -0.261  21.434  0.00  0.00    +0.001 A 
ATOM     21  C   UNL     1       3.142   1.287  23.206  0.00  0.00    +0.001 A 
ATOM     22  C   UNL     1       3.476   0.655  22.008  0.00  0.00    +0.000 A 
ENDBRANCH  13  16
BRANCH   7  12
ATOM      2  O   UNL     1      -3.215   1.384  22.582  0.00  0.00    -0.249 OA
ATOM     12  C   UNL     1      -3.375   0.616  23.521  0.00  0.00    +0.328 C 
BRANCH  12   1
ATOM      1  O   UNL     1      -4.387  -0.287  23.664  0.00  0.00    -0.467 OA
ATOM     19  C   UNL     1      -3.986  -1.607  24.047  0.00  0.00    +0.280 C 
ENDBRANCH  12   1
ENDBRANCH   7  12
TORSDOF 3
ENDMDL
