MODEL 1
REMARK VINA RESULT:      -5.4      0.000      0.000
REMARK  Name = 75536561
REMARK  9 active torsions:
REMARK  status: ('A' for Active; 'I' for Inactive)
REMARK    1  A    between atoms: O_2  and  C_8
REMARK    2  A    between atoms: O_4  and  C_24
REMARK    3  A    between atoms: O_4  and  C_25
REMARK    4  A    between atoms: N_5  and  C_16
REMARK    5  A    between atoms: N_6  and  C_10
REMARK    6  A    between atoms: N_6  and  C_18
REMARK    7  A    between atoms: C_7  and  C_16
REMARK    8  A    between atoms: C_9  and  C_17
REMARK    9  A    between atoms: C_18  and  C_19
REMARK                            x       y       z     vdW  Elec       q    Type
REMARK                         _______ _______ _______ _____ _____    ______ ____
ROOT
ATOM      1  O   UNL     1      -5.255   3.118  26.434  0.00  0.00    -0.371 OA
ATOM      7  C   UNL     1      -5.489   2.899  25.033  0.00  0.00    +0.165 C 
ATOM      8  C   UNL     1      -4.173   3.209  24.332  0.00  0.00    +0.164 C 
ATOM     10  C   UNL     1      -3.647   4.345  25.189  0.00  0.00    +0.111 C 
ATOM     15  C   UNL     1      -4.046   3.882  26.581  0.00  0.00    +0.181 C 
ENDROOT
BRANCH   8   2
ATOM      2  O   UNL     1      -4.370   3.587  22.983  0.00  0.00    -0.388 OA
ATOM     28  H   UNL     1      -4.239   4.548  22.914  0.00  0.00    +0.210 HD
ENDBRANCH   8   2
BRANCH  10   6
ATOM      6  N   UNL     1      -2.216   4.564  25.053  0.00  0.00    -0.305 NA
ATOM     27  H   UNL     1      -1.986   5.493  25.407  0.00  0.00    +0.123 HD
BRANCH   6  18
ATOM     18  C   UNL     1      -1.459   3.572  25.807  0.00  0.00    +0.116 C 
BRANCH  18  19
ATOM     19  C   UNL     1      -0.787   2.574  24.903  0.00  0.00    -0.033 A 
ATOM     20  C   UNL     1       0.536   2.201  25.135  0.00  0.00    +0.008 A 
ATOM     21  C   UNL     1      -1.489   2.021  23.832  0.00  0.00    +0.008 A 
ATOM     22  C   UNL     1       1.159   1.276  24.296  0.00  0.00    +0.046 A 
ATOM     23  C   UNL     1      -0.868   1.096  22.993  0.00  0.00    +0.046 A 
ATOM     24  C   UNL     1       0.456   0.723  23.226  0.00  0.00    +0.120 A 
BRANCH  24   4
ATOM      4  O   UNL     1       1.062  -0.180  22.407  0.00  0.00    -0.495 OA
ATOM     25  C   UNL     1       2.484  -0.106  22.301  0.00  0.00    +0.277 C 
ENDBRANCH  24   4
ENDBRANCH  18  19
ENDBRANCH   6  18
ENDBRANCH  10   6
BRANCH   7  16
ATOM     16  C   UNL     1      -5.969   1.476  24.808  0.00  0.00    +0.138 C 
BRANCH  16   5
ATOM      3  O   UNL     1      -4.085  -0.326  23.531  0.00  0.00    -0.276 OA
ATOM      5  N   UNL     1      -5.104   0.526  25.445  0.00  0.00    -0.313 N 
ATOM     17  C   UNL     1      -4.229  -0.301  24.751  0.00  0.00    +0.216 C 
ATOM     26  H   UNL     1      -5.140   0.466  26.458  0.00  0.00    +0.149 HD
BRANCH  17   9
ATOM      9  C   UNL     1      -3.424  -1.180  25.659  0.00  0.00    +0.075 C 
ATOM     11  C   UNL     1      -3.188  -2.548  25.016  0.00  0.00    +0.013 C 
ATOM     12  C   UNL     1      -2.037  -0.572  25.896  0.00  0.00    +0.013 C 
ATOM     13  C   UNL     1      -1.781  -2.464  24.440  0.00  0.00    +0.001 C 
ATOM     14  C   UNL     1      -1.036  -1.643  25.478  0.00  0.00    +0.001 C 
ENDBRANCH  17   9
ENDBRANCH  16   5
ENDBRANCH   7  16
TORSDOF 8
ENDMDL
MODEL 2
REMARK VINA RESULT:      -4.6      1.817      5.054
REMARK  Name = 75536561
REMARK  9 active torsions:
REMARK  status: ('A' for Active; 'I' for Inactive)
REMARK    1  A    between atoms: O_2  and  C_8
REMARK    2  A    between atoms: O_4  and  C_24
REMARK    3  A    between atoms: O_4  and  C_25
REMARK    4  A    between atoms: N_5  and  C_16
REMARK    5  A    between atoms: N_6  and  C_10
REMARK    6  A    between atoms: N_6  and  C_18
REMARK    7  A    between atoms: C_7  and  C_16
REMARK    8  A    between atoms: C_9  and  C_17
REMARK    9  A    between atoms: C_18  and  C_19
REMARK                            x       y       z     vdW  Elec       q    Type
REMARK                         _______ _______ _______ _____ _____    ______ ____
ROOT
ATOM      1  O   UNL     1      -1.279   0.914  23.162  0.00  0.00    -0.371 OA
ATOM      7  C   UNL     1       0.110   0.548  23.214  0.00  0.00    +0.165 C 
ATOM      8  C   UNL     1       0.780   1.564  24.128  0.00  0.00    +0.164 C 
ATOM     10  C   UNL     1      -0.010   2.818  23.800  0.00  0.00    +0.111 C 
ATOM     15  C   UNL     1      -1.416   2.259  23.654  0.00  0.00    +0.181 C 
ENDROOT
BRANCH   8   2
ATOM      2  O   UNL     1       2.160   1.697  23.847  0.00  0.00    -0.388 OA
ATOM     28  H   UNL     1       2.255   2.161  22.997  0.00  0.00    +0.210 HD
ENDBRANCH   8   2
BRANCH  10   6
ATOM      6  N   UNL     1       0.087   3.852  24.818  0.00  0.00    -0.305 NA
ATOM     27  H   UNL     1       1.005   4.292  24.759  0.00  0.00    +0.123 HD
BRANCH   6  18
ATOM     18  C   UNL     1      -0.938   4.871  24.630  0.00  0.00    +0.116 C 
BRANCH  18  19
ATOM     19  C   UNL     1      -2.304   4.371  25.017  0.00  0.00    -0.033 A 
ATOM     20  C   UNL     1      -3.290   4.209  24.044  0.00  0.00    +0.008 A 
ATOM     21  C   UNL     1      -2.584   4.067  26.350  0.00  0.00    +0.008 A 
ATOM     22  C   UNL     1      -4.556   3.745  24.403  0.00  0.00    +0.046 A 
ATOM     23  C   UNL     1      -3.849   3.603  26.709  0.00  0.00    +0.046 A 
ATOM     24  C   UNL     1      -4.834   3.441  25.736  0.00  0.00    +0.120 A 
BRANCH  24   4
ATOM      4  O   UNL     1      -6.069   2.989  26.087  0.00  0.00    -0.495 OA
ATOM     25  C   UNL     1      -6.576   1.864  25.369  0.00  0.00    +0.277 C 
ENDBRANCH  24   4
ENDBRANCH  18  19
ENDBRANCH   6  18
ENDBRANCH  10   6
BRANCH   7  16
ATOM     16  C   UNL     1       0.246  -0.883  23.703  0.00  0.00    +0.138 C 
BRANCH  16   5
ATOM      3  O   UNL     1      -0.974  -0.563  26.317  0.00  0.00    -0.276 OA
ATOM      5  N   UNL     1      -1.014  -1.405  24.146  0.00  0.00    -0.313 N 
ATOM     17  C   UNL     1      -1.523  -1.203  25.423  0.00  0.00    +0.216 C 
ATOM     26  H   UNL     1      -1.555  -1.950  23.481  0.00  0.00    +0.149 HD
BRANCH  17   9
ATOM      9  C   UNL     1      -2.868  -1.836  25.616  0.00  0.00    +0.075 C 
ATOM     11  C   UNL     1      -3.977  -0.788  25.508  0.00  0.00    +0.013 C 
ATOM     12  C   UNL     1      -3.136  -2.861  24.508  0.00  0.00    +0.013 C 
ATOM     13  C   UNL     1      -4.509  -0.937  24.090  0.00  0.00    +0.001 C 
ATOM     14  C   UNL     1      -4.447  -2.436  23.857  0.00  0.00    +0.001 C 
ENDBRANCH  17   9
ENDBRANCH  16   5
ENDBRANCH   7  16
TORSDOF 8
ENDMDL
MODEL 3
REMARK VINA RESULT:      -4.4      2.021      6.176
REMARK  Name = 75536561
REMARK  9 active torsions:
REMARK  status: ('A' for Active; 'I' for Inactive)
REMARK    1  A    between atoms: O_2  and  C_8
REMARK    2  A    between atoms: O_4  and  C_24
REMARK    3  A    between atoms: O_4  and  C_25
REMARK    4  A    between atoms: N_5  and  C_16
REMARK    5  A    between atoms: N_6  and  C_10
REMARK    6  A    between atoms: N_6  and  C_18
REMARK    7  A    between atoms: C_7  and  C_16
REMARK    8  A    between atoms: C_9  and  C_17
REMARK    9  A    between atoms: C_18  and  C_19
REMARK                            x       y       z     vdW  Elec       q    Type
REMARK                         _______ _______ _______ _____ _____    ______ ____
ROOT
ATOM      1  O   UNL     1      -1.160  -0.713  26.318  0.00  0.00    -0.371 OA
ATOM      7  C   UNL     1      -0.541  -1.295  25.158  0.00  0.00    +0.165 C 
ATOM      8  C   UNL     1      -1.676  -1.865  24.317  0.00  0.00    +0.164 C 
ATOM     10  C   UNL     1      -2.634  -2.332  25.396  0.00  0.00    +0.111 C 
ATOM     15  C   UNL     1      -2.505  -1.214  26.418  0.00  0.00    +0.181 C 
ENDROOT
BRANCH   8   2
ATOM      2  O   UNL     1      -1.236  -2.919  23.482  0.00  0.00    -0.388 OA
ATOM     28  H   UNL     1      -0.460  -3.332  23.897  0.00  0.00    +0.210 HD
ENDBRANCH   8   2
BRANCH  10   6
ATOM      6  N   UNL     1      -3.998  -2.514  24.926  0.00  0.00    -0.305 NA
ATOM     27  H   UNL     1      -4.645  -2.212  25.656  0.00  0.00    +0.123 HD
BRANCH   6  18
ATOM     18  C   UNL     1      -4.247  -1.733  23.721  0.00  0.00    +0.116 C 
BRANCH  18  19
ATOM     19  C   UNL     1      -4.399  -0.267  24.025  0.00  0.00    -0.033 A 
ATOM     20  C   UNL     1      -5.361   0.161  24.940  0.00  0.00    +0.008 A 
ATOM     21  C   UNL     1      -3.578   0.665  23.391  0.00  0.00    +0.008 A 
ATOM     22  C   UNL     1      -5.501   1.520  25.222  0.00  0.00    +0.046 A 
ATOM     23  C   UNL     1      -3.717   2.024  23.672  0.00  0.00    +0.046 A 
ATOM     24  C   UNL     1      -4.678   2.451  24.588  0.00  0.00    +0.120 A 
BRANCH  24   4
ATOM      4  O   UNL     1      -4.815   3.777  24.862  0.00  0.00    -0.495 OA
ATOM     25  C   UNL     1      -5.910   4.158  25.696  0.00  0.00    +0.277 C 
ENDBRANCH  24   4
ENDBRANCH  18  19
ENDBRANCH   6  18
ENDBRANCH  10   6
BRANCH   7  16
ATOM     16  C   UNL     1       0.278  -0.244  24.431  0.00  0.00    +0.138 C 
BRANCH  16   5
ATOM      3  O   UNL     1      -0.476   2.300  23.254  0.00  0.00    -0.276 OA
ATOM      5  N   UNL     1       0.196   1.028  25.086  0.00  0.00    -0.313 N 
ATOM     17  C   UNL     1      -0.175   2.202  24.441  0.00  0.00    +0.216 C 
ATOM     26  H   UNL     1       0.422   1.060  26.077  0.00  0.00    +0.149 HD
BRANCH  17   9
ATOM      9  C   UNL     1      -0.204   3.383  25.363  0.00  0.00    +0.075 C 
ATOM     11  C   UNL     1      -0.320   4.685  24.569  0.00  0.00    +0.013 C 
ATOM     12  C   UNL     1      -1.439   3.320  26.269  0.00  0.00    +0.013 C 
ATOM     13  C   UNL     1      -1.796   5.048  24.640  0.00  0.00    +0.001 C 
ATOM     14  C   UNL     1      -2.182   4.634  26.049  0.00  0.00    +0.001 C 
ENDBRANCH  17   9
ENDBRANCH  16   5
ENDBRANCH   7  16
TORSDOF 8
ENDMDL
MODEL 4
REMARK VINA RESULT:      -4.3      1.892      5.281
REMARK  Name = 75536561
REMARK  9 active torsions:
REMARK  status: ('A' for Active; 'I' for Inactive)
REMARK    1  A    between atoms: O_2  and  C_8
REMARK    2  A    between atoms: O_4  and  C_24
REMARK    3  A    between atoms: O_4  and  C_25
REMARK    4  A    between atoms: N_5  and  C_16
REMARK    5  A    between atoms: N_6  and  C_10
REMARK    6  A    between atoms: N_6  and  C_18
REMARK    7  A    between atoms: C_7  and  C_16
REMARK    8  A    between atoms: C_9  and  C_17
REMARK    9  A    between atoms: C_18  and  C_19
REMARK                            x       y       z     vdW  Elec       q    Type
REMARK                         _______ _______ _______ _____ _____    ______ ____
ROOT
ATOM      1  O   UNL     1       1.454   0.457  23.103  0.00  0.00    -0.371 OA
ATOM      7  C   UNL     1       0.561  -0.286  23.950  0.00  0.00    +0.165 C 
ATOM      8  C   UNL     1      -0.281   0.749  24.685  0.00  0.00    +0.164 C 
ATOM     10  C   UNL     1       0.728   1.867  24.871  0.00  0.00    +0.111 C 
ATOM     15  C   UNL     1       1.473   1.825  23.547  0.00  0.00    +0.181 C 
ENDROOT
BRANCH   8   2
ATOM      2  O   UNL     1      -0.777   0.249  25.911  0.00  0.00    -0.388 OA
ATOM     28  H   UNL     1      -1.356   0.925  26.304  0.00  0.00    +0.210 HD
ENDBRANCH   8   2
BRANCH  10   6
ATOM      6  N   UNL     1       0.121   3.161  25.139  0.00  0.00    -0.305 NA
ATOM     27  H   UNL     1       0.854   3.869  25.184  0.00  0.00    +0.123 HD
BRANCH   6  18
ATOM     18  C   UNL     1      -0.825   3.525  24.091  0.00  0.00    +0.116 C 
BRANCH  18  19
ATOM     19  C   UNL     1      -2.247   3.479  24.579  0.00  0.00    -0.033 A 
ATOM     20  C   UNL     1      -3.260   3.015  23.739  0.00  0.00    +0.008 A 
ATOM     21  C   UNL     1      -2.554   3.900  25.873  0.00  0.00    +0.008 A 
ATOM     22  C   UNL     1      -4.578   2.973  24.192  0.00  0.00    +0.046 A 
ATOM     23  C   UNL     1      -3.873   3.858  26.327  0.00  0.00    +0.046 A 
ATOM     24  C   UNL     1      -4.884   3.394  25.487  0.00  0.00    +0.120 A 
BRANCH  24   4
ATOM      4  O   UNL     1      -6.171   3.352  25.929  0.00  0.00    -0.495 OA
ATOM     25  C   UNL     1      -6.657   2.094  26.394  0.00  0.00    +0.277 C 
ENDBRANCH  24   4
ENDBRANCH  18  19
ENDBRANCH   6  18
ENDBRANCH  10   6
BRANCH   7  16
ATOM     16  C   UNL     1      -0.263  -1.246  23.111  0.00  0.00    +0.138 C 
BRANCH  16   5
ATOM      3  O   UNL     1      -1.115  -3.239  25.041  0.00  0.00    -0.276 OA
ATOM      5  N   UNL     1      -1.576  -1.422  23.658  0.00  0.00    -0.313 N 
ATOM     17  C   UNL     1      -1.897  -2.409  24.583  0.00  0.00    +0.216 C 
ATOM     26  H   UNL     1      -2.303  -0.784  23.347  0.00  0.00    +0.149 HD
BRANCH  17   9
ATOM      9  C   UNL     1      -3.333  -2.356  25.009  0.00  0.00    +0.075 C 
ATOM     11  C   UNL     1      -3.522  -1.344  26.141  0.00  0.00    +0.013 C 
ATOM     12  C   UNL     1      -4.214  -1.875  23.851  0.00  0.00    +0.013 C 
ATOM     13  C   UNL     1      -4.053  -0.094  25.453  0.00  0.00    +0.001 C 
ATOM     14  C   UNL     1      -4.966  -0.658  24.378  0.00  0.00    +0.001 C 
ENDBRANCH  17   9
ENDBRANCH  16   5
ENDBRANCH   7  16
TORSDOF 8
ENDMDL
MODEL 5
REMARK VINA RESULT:      -4.0      2.484      6.439
REMARK  Name = 75536561
REMARK  9 active torsions:
REMARK  status: ('A' for Active; 'I' for Inactive)
REMARK    1  A    between atoms: O_2  and  C_8
REMARK    2  A    between atoms: O_4  and  C_24
REMARK    3  A    between atoms: O_4  and  C_25
REMARK    4  A    between atoms: N_5  and  C_16
REMARK    5  A    between atoms: N_6  and  C_10
REMARK    6  A    between atoms: N_6  and  C_18
REMARK    7  A    between atoms: C_7  and  C_16
REMARK    8  A    between atoms: C_9  and  C_17
REMARK    9  A    between atoms: C_18  and  C_19
REMARK                            x       y       z     vdW  Elec       q    Type
REMARK                         _______ _______ _______ _____ _____    ______ ____
ROOT
ATOM      1  O   UNL     1      -0.662  -0.100  25.613  0.00  0.00    -0.371 OA
ATOM      7  C   UNL     1      -0.318  -0.937  24.497  0.00  0.00    +0.165 C 
ATOM      8  C   UNL     1      -1.599  -1.659  24.101  0.00  0.00    +0.164 C 
ATOM     10  C   UNL     1      -2.254  -1.856  25.455  0.00  0.00    +0.111 C 
ATOM     15  C   UNL     1      -1.925  -0.541  26.143  0.00  0.00    +0.181 C 
ENDROOT
BRANCH   8   2
ATOM      2  O   UNL     1      -1.333  -2.880  23.439  0.00  0.00    -0.388 OA
ATOM     28  H   UNL     1      -0.693  -3.383  23.972  0.00  0.00    +0.210 HD
ENDBRANCH   8   2
BRANCH  10   6
ATOM      6  N   UNL     1      -3.683  -2.114  25.381  0.00  0.00    -0.305 NA
ATOM     27  H   UNL     1      -4.132  -1.743  26.218  0.00  0.00    +0.123 HD
BRANCH   6  18
ATOM     18  C   UNL     1      -4.271  -1.478  24.208  0.00  0.00    +0.116 C 
BRANCH  18  19
ATOM     19  C   UNL     1      -4.200   0.023  24.290  0.00  0.00    -0.033 A 
ATOM     20  C   UNL     1      -4.946   0.706  25.251  0.00  0.00    +0.008 A 
ATOM     21  C   UNL     1      -3.388   0.733  23.405  0.00  0.00    +0.008 A 
ATOM     22  C   UNL     1      -4.880   2.097  25.327  0.00  0.00    +0.046 A 
ATOM     23  C   UNL     1      -3.322   2.124  23.481  0.00  0.00    +0.046 A 
ATOM     24  C   UNL     1      -4.067   2.806  24.442  0.00  0.00    +0.120 A 
BRANCH  24   4
ATOM      4  O   UNL     1      -4.003   4.163  24.516  0.00  0.00    -0.495 OA
ATOM     25  C   UNL     1      -2.841   4.726  25.125  0.00  0.00    +0.277 C 
ENDBRANCH  24   4
ENDBRANCH  18  19
ENDBRANCH   6  18
ENDBRANCH  10   6
BRANCH   7  16
ATOM     16  C   UNL     1       0.264  -0.089  23.379  0.00  0.00    +0.138 C 
BRANCH  16   5
ATOM      3  O   UNL     1       2.580   1.655  23.234  0.00  0.00    -0.276 OA
ATOM      5  N   UNL     1       1.619  -0.462  23.093  0.00  0.00    -0.313 N 
ATOM     17  C   UNL     1       2.671   0.445  23.043  0.00  0.00    +0.216 C 
ATOM     26  H   UNL     1       1.808  -1.446  22.922  0.00  0.00    +0.149 HD
BRANCH  17   9
ATOM      9  C   UNL     1       3.985  -0.212  22.748  0.00  0.00    +0.075 C 
ATOM     11  C   UNL     1       5.139   0.766  22.973  0.00  0.00    +0.013 C 
ATOM     12  C   UNL     1       4.221  -1.383  23.709  0.00  0.00    +0.013 C 
ATOM     13  C   UNL     1       5.679   0.413  24.351  0.00  0.00    +0.001 C 
ATOM     14  C   UNL     1       5.557  -1.100  24.389  0.00  0.00    +0.001 C 
ENDBRANCH  17   9
ENDBRANCH  16   5
ENDBRANCH   7  16
TORSDOF 8
ENDMDL
MODEL 6
REMARK VINA RESULT:      -3.4      2.031      5.158
REMARK  Name = 75536561
REMARK  9 active torsions:
REMARK  status: ('A' for Active; 'I' for Inactive)
REMARK    1  A    between atoms: O_2  and  C_8
REMARK    2  A    between atoms: O_4  and  C_24
REMARK    3  A    between atoms: O_4  and  C_25
REMARK    4  A    between atoms: N_5  and  C_16
REMARK    5  A    between atoms: N_6  and  C_10
REMARK    6  A    between atoms: N_6  and  C_18
REMARK    7  A    between atoms: C_7  and  C_16
REMARK    8  A    between atoms: C_9  and  C_17
REMARK    9  A    between atoms: C_18  and  C_19
REMARK                            x       y       z     vdW  Elec       q    Type
REMARK                         _______ _______ _______ _____ _____    ______ ____
ROOT
ATOM      1  O   UNL     1      -1.247   1.927  22.877  0.00  0.00    -0.371 OA
ATOM      7  C   UNL     1      -0.825   2.795  23.942  0.00  0.00    +0.165 C 
ATOM      8  C   UNL     1      -2.079   3.122  24.742  0.00  0.00    +0.164 C 
ATOM     10  C   UNL     1      -3.123   3.167  23.641  0.00  0.00    +0.111 C 
ATOM     15  C   UNL     1      -2.678   2.016  22.755  0.00  0.00    +0.181 C 
ENDROOT
BRANCH   8   2
ATOM      2  O   UNL     1      -1.959   4.350  25.433  0.00  0.00    -0.388 OA
ATOM     28  H   UNL     1      -1.582   5.007  24.824  0.00  0.00    +0.210 HD
ENDBRANCH   8   2
BRANCH  10   6
ATOM      6  N   UNL     1      -4.486   3.017  24.124  0.00  0.00    -0.305 NA
ATOM     27  H   UNL     1      -5.042   2.543  23.411  0.00  0.00    +0.123 HD
BRANCH   6  18
ATOM     18  C   UNL     1      -4.525   2.231  25.352  0.00  0.00    +0.116 C 
BRANCH  18  19
ATOM     19  C   UNL     1      -4.106   0.805  25.118  0.00  0.00    -0.033 A 
ATOM     20  C   UNL     1      -2.979   0.293  25.761  0.00  0.00    +0.008 A 
ATOM     21  C   UNL     1      -4.845  -0.007  24.257  0.00  0.00    +0.008 A 
ATOM     22  C   UNL     1      -2.591  -1.029  25.544  0.00  0.00    +0.046 A 
ATOM     23  C   UNL     1      -4.458  -1.329  24.039  0.00  0.00    +0.046 A 
ATOM     24  C   UNL     1      -3.331  -1.840  24.683  0.00  0.00    +0.120 A 
BRANCH  24   4
ATOM      4  O   UNL     1      -2.952  -3.130  24.471  0.00  0.00    -0.495 OA
ATOM     25  C   UNL     1      -1.662  -3.342  23.898  0.00  0.00    +0.277 C 
ENDBRANCH  24   4
ENDBRANCH  18  19
ENDBRANCH   6  18
ENDBRANCH  10   6
BRANCH   7  16
ATOM     16  C   UNL     1       0.252   2.111  24.766  0.00  0.00    +0.138 C 
BRANCH  16   5
ATOM      3  O   UNL     1       0.625  -0.613  23.836  0.00  0.00    -0.276 OA
ATOM      5  N   UNL     1       1.307   1.612  23.934  0.00  0.00    -0.313 N 
ATOM     17  C   UNL     1       1.409   0.284  23.535  0.00  0.00    +0.216 C 
ATOM     26  H   UNL     1       2.013   2.275  23.623  0.00  0.00    +0.149 HD
BRANCH  17   9
ATOM      9  C   UNL     1       2.592   0.036  22.650  0.00  0.00    +0.075 C 
ATOM     11  C   UNL     1       3.523   1.249  22.641  0.00  0.00    +0.013 C 
ATOM     12  C   UNL     1       3.419  -1.138  23.184  0.00  0.00    +0.013 C 
ATOM     13  C   UNL     1       4.633   0.888  23.619  0.00  0.00    +0.001 C 
ATOM     14  C   UNL     1       4.832  -0.597  23.374  0.00  0.00    +0.001 C 
ENDBRANCH  17   9
ENDBRANCH  16   5
ENDBRANCH   7  16
TORSDOF 8
ENDMDL
MODEL 7
REMARK VINA RESULT:      -3.3      1.891      4.667
REMARK  Name = 75536561
REMARK  9 active torsions:
REMARK  status: ('A' for Active; 'I' for Inactive)
REMARK    1  A    between atoms: O_2  and  C_8
REMARK    2  A    between atoms: O_4  and  C_24
REMARK    3  A    between atoms: O_4  and  C_25
REMARK    4  A    between atoms: N_5  and  C_16
REMARK    5  A    between atoms: N_6  and  C_10
REMARK    6  A    between atoms: N_6  and  C_18
REMARK    7  A    between atoms: C_7  and  C_16
REMARK    8  A    between atoms: C_9  and  C_17
REMARK    9  A    between atoms: C_18  and  C_19
REMARK                            x       y       z     vdW  Elec       q    Type
REMARK                         _______ _______ _______ _____ _____    ______ ____
ROOT
ATOM      1  O   UNL     1      -4.487  -1.855  24.560  0.00  0.00    -0.371 OA
ATOM      7  C   UNL     1      -4.030  -0.817  25.442  0.00  0.00    +0.165 C 
ATOM      8  C   UNL     1      -2.583  -0.542  25.055  0.00  0.00    +0.164 C 
ATOM     10  C   UNL     1      -2.116  -1.932  24.666  0.00  0.00    +0.111 C 
ATOM     15  C   UNL     1      -3.341  -2.472  23.947  0.00  0.00    +0.181 C 
ENDROOT
BRANCH   8   2
ATOM      2  O   UNL     1      -1.844   0.003  26.131  0.00  0.00    -0.388 OA
ATOM     28  H   UNL     1      -0.914   0.075  25.857  0.00  0.00    +0.210 HD
ENDBRANCH   8   2
BRANCH  10   6
ATOM      6  N   UNL     1      -0.923  -1.934  23.833  0.00  0.00    -0.305 NA
ATOM     27  H   UNL     1      -0.954  -2.742  23.211  0.00  0.00    +0.123 HD
BRANCH   6  18
ATOM     18  C   UNL     1      -0.842  -0.721  23.029  0.00  0.00    +0.116 C 
BRANCH  18  19
ATOM     19  C   UNL     1       0.567  -0.199  22.943  0.00  0.00    -0.033 A 
ATOM     20  C   UNL     1       1.437  -0.695  21.972  0.00  0.00    +0.008 A 
ATOM     21  C   UNL     1       1.004   0.781  23.834  0.00  0.00    +0.008 A 
ATOM     22  C   UNL     1       2.743  -0.212  21.892  0.00  0.00    +0.046 A 
ATOM     23  C   UNL     1       2.310   1.265  23.755  0.00  0.00    +0.046 A 
ATOM     24  C   UNL     1       3.179   0.769  22.783  0.00  0.00    +0.120 A 
BRANCH  24   4
ATOM      4  O   UNL     1       4.453   1.241  22.706  0.00  0.00    -0.495 OA
ATOM     25  C   UNL     1       5.447   0.555  23.467  0.00  0.00    +0.277 C 
ENDBRANCH  24   4
ENDBRANCH  18  19
ENDBRANCH   6  18
ENDBRANCH  10   6
BRANCH   7  16
ATOM     16  C   UNL     1      -4.929   0.400  25.313  0.00  0.00    +0.138 C 
BRANCH  16   5
ATOM      3  O   UNL     1      -5.439   3.148  26.096  0.00  0.00    -0.276 OA
ATOM      5  N   UNL     1      -4.181   1.564  24.940  0.00  0.00    -0.313 N 
ATOM     17  C   UNL     1      -4.499   2.850  25.363  0.00  0.00    +0.216 C 
ATOM     26  H   UNL     1      -3.376   1.430  24.335  0.00  0.00    +0.149 HD
BRANCH  17   9
ATOM      9  C   UNL     1      -3.540   3.880  24.848  0.00  0.00    +0.075 C 
ATOM     11  C   UNL     1      -2.658   4.410  25.980  0.00  0.00    +0.013 C 
ATOM     12  C   UNL     1      -2.591   3.257  23.819  0.00  0.00    +0.013 C 
ATOM     13  C   UNL     1      -1.351   3.644  25.838  0.00  0.00    +0.001 C 
ATOM     14  C   UNL     1      -1.182   3.532  24.333  0.00  0.00    +0.001 C 
ENDBRANCH  17   9
ENDBRANCH  16   5
ENDBRANCH   7  16
TORSDOF 8
ENDMDL
MODEL 8
REMARK VINA RESULT:      -3.2      1.585      4.410
REMARK  Name = 75536561
REMARK  9 active torsions:
REMARK  status: ('A' for Active; 'I' for Inactive)
REMARK    1  A    between atoms: O_2  and  C_8
REMARK    2  A    between atoms: O_4  and  C_24
REMARK    3  A    between atoms: O_4  and  C_25
REMARK    4  A    between atoms: N_5  and  C_16
REMARK    5  A    between atoms: N_6  and  C_10
REMARK    6  A    between atoms: N_6  and  C_18
REMARK    7  A    between atoms: C_7  and  C_16
REMARK    8  A    between atoms: C_9  and  C_17
REMARK    9  A    between atoms: C_18  and  C_19
REMARK                            x       y       z     vdW  Elec       q    Type
REMARK                         _______ _______ _______ _____ _____    ______ ____
ROOT
ATOM      1  O   UNL     1      -3.350   4.272  23.864  0.00  0.00    -0.371 OA
ATOM      7  C   UNL     1      -3.030   4.763  25.177  0.00  0.00    +0.165 C 
ATOM      8  C   UNL     1      -3.636   3.768  26.158  0.00  0.00    +0.164 C 
ATOM     10  C   UNL     1      -4.897   3.361  25.419  0.00  0.00    +0.111 C 
ATOM     15  C   UNL     1      -4.398   3.295  23.985  0.00  0.00    +0.181 C 
ENDROOT
BRANCH   8   2
ATOM      2  O   UNL     1      -3.905   4.362  27.413  0.00  0.00    -0.388 OA
ATOM     28  H   UNL     1      -4.630   5.001  27.299  0.00  0.00    +0.210 HD
ENDBRANCH   8   2
BRANCH  10   6
ATOM      6  N   UNL     1      -5.463   2.103  25.880  0.00  0.00    -0.305 NA
ATOM     27  H   UNL     1      -6.364   2.286  26.323  0.00  0.00    +0.123 HD
BRANCH   6  18
ATOM     18  C   UNL     1      -5.662   1.178  24.771  0.00  0.00    +0.116 C 
BRANCH  18  19
ATOM     19  C   UNL     1      -4.682   0.037  24.810  0.00  0.00    -0.033 A 
ATOM     20  C   UNL     1      -3.918  -0.189  25.956  0.00  0.00    +0.008 A 
ATOM     21  C   UNL     1      -4.536  -0.796  23.701  0.00  0.00    +0.008 A 
ATOM     22  C   UNL     1      -3.010  -1.246  25.992  0.00  0.00    +0.046 A 
ATOM     23  C   UNL     1      -3.628  -1.854  23.737  0.00  0.00    +0.046 A 
ATOM     24  C   UNL     1      -2.866  -2.079  24.882  0.00  0.00    +0.120 A 
BRANCH  24   4
ATOM      4  O   UNL     1      -1.979  -3.112  24.918  0.00  0.00    -0.495 OA
ATOM     25  C   UNL     1      -0.620  -2.790  25.214  0.00  0.00    +0.277 C 
ENDBRANCH  24   4
ENDBRANCH  18  19
ENDBRANCH   6  18
ENDBRANCH  10   6
BRANCH   7  16
ATOM     16  C   UNL     1      -1.526   4.907  25.319  0.00  0.00    +0.138 C 
BRANCH  16   5
ATOM      3  O   UNL     1       0.187   3.719  23.299  0.00  0.00    -0.276 OA
ATOM      5  N   UNL     1      -0.881   3.628  25.367  0.00  0.00    -0.313 N 
ATOM     17  C   UNL     1      -0.074   3.136  24.348  0.00  0.00    +0.216 C 
ATOM     26  H   UNL     1      -1.027   3.061  26.198  0.00  0.00    +0.149 HD
BRANCH  17   9
ATOM      9  C   UNL     1       0.496   1.786  24.664  0.00  0.00    +0.075 C 
ATOM     11  C   UNL     1      -0.604   0.724  24.669  0.00  0.00    +0.013 C 
ATOM     12  C   UNL     1       1.496   1.365  23.582  0.00  0.00    +0.013 C 
ATOM     13  C   UNL     1      -0.496   0.053  23.307  0.00  0.00    +0.001 C 
ATOM     14  C   UNL     1       1.002   0.020  23.061  0.00  0.00    +0.001 C 
ENDBRANCH  17   9
ENDBRANCH  16   5
ENDBRANCH   7  16
TORSDOF 8
ENDMDL
MODEL 9
REMARK VINA RESULT:      -3.0      2.112      4.931
REMARK  Name = 75536561
REMARK  9 active torsions:
REMARK  status: ('A' for Active; 'I' for Inactive)
REMARK    1  A    between atoms: O_2  and  C_8
REMARK    2  A    between atoms: O_4  and  C_24
REMARK    3  A    between atoms: O_4  and  C_25
REMARK    4  A    between atoms: N_5  and  C_16
REMARK    5  A    between atoms: N_6  and  C_10
REMARK    6  A    between atoms: N_6  and  C_18
REMARK    7  A    between atoms: C_7  and  C_16
REMARK    8  A    between atoms: C_9  and  C_17
REMARK    9  A    between atoms: C_18  and  C_19
REMARK                            x       y       z     vdW  Elec       q    Type
REMARK                         _______ _______ _______ _____ _____    ______ ____
ROOT
ATOM      1  O   UNL     1      -3.107  -2.553  23.714  0.00  0.00    -0.371 OA
ATOM      7  C   UNL     1      -3.679  -1.931  24.877  0.00  0.00    +0.165 C 
ATOM      8  C   UNL     1      -2.542  -1.180  25.557  0.00  0.00    +0.164 C 
ATOM     10  C   UNL     1      -1.372  -2.105  25.274  0.00  0.00    +0.111 C 
ATOM     15  C   UNL     1      -1.675  -2.548  23.852  0.00  0.00    +0.181 C 
ENDROOT
BRANCH   8   2
ATOM      2  O   UNL     1      -2.778  -1.004  26.940  0.00  0.00    -0.388 OA
ATOM     28  H   UNL     1      -2.130  -0.366  27.282  0.00  0.00    +0.210 HD
ENDBRANCH   8   2
BRANCH  10   6
ATOM      6  N   UNL     1      -0.075  -1.460  25.403  0.00  0.00    -0.305 NA
ATOM     27  H   UNL     1       0.647  -2.177  25.473  0.00  0.00    +0.123 HD
BRANCH   6  18
ATOM     18  C   UNL     1       0.209  -0.616  24.248  0.00  0.00    +0.116 C 
BRANCH  18  19
ATOM     19  C   UNL     1       0.016   0.844  24.560  0.00  0.00    -0.033 A 
ATOM     20  C   UNL     1      -0.021   1.780  23.527  0.00  0.00    +0.008 A 
ATOM     21  C   UNL     1      -0.128   1.261  25.884  0.00  0.00    +0.008 A 
ATOM     22  C   UNL     1      -0.200   3.133  23.817  0.00  0.00    +0.046 A 
ATOM     23  C   UNL     1      -0.308   2.613  26.174  0.00  0.00    +0.046 A 
ATOM     24  C   UNL     1      -0.345   3.548  25.141  0.00  0.00    +0.120 A 
BRANCH  24   4
ATOM      4  O   UNL     1      -0.520   4.868  25.423  0.00  0.00    -0.495 OA
ATOM     25  C   UNL     1      -1.715   5.482  24.942  0.00  0.00    +0.277 C 
ENDBRANCH  24   4
ENDBRANCH  18  19
ENDBRANCH   6  18
ENDBRANCH  10   6
BRANCH   7  16
ATOM     16  C   UNL     1      -4.831  -1.031  24.464  0.00  0.00    +0.138 C 
BRANCH  16   5
ATOM      3  O   UNL     1      -3.259   0.763  22.811  0.00  0.00    -0.276 OA
ATOM      5  N   UNL     1      -4.533   0.348  24.716  0.00  0.00    -0.313 N 
ATOM     17  C   UNL     1      -3.767   1.136  23.865  0.00  0.00    +0.216 C 
ATOM     26  H   UNL     1      -4.909   0.761  25.565  0.00  0.00    +0.149 HD
BRANCH  17   9
ATOM      9  C   UNL     1      -3.630   2.547  24.353  0.00  0.00    +0.075 C 
ATOM     11  C   UNL     1      -4.843   3.381  23.937  0.00  0.00    +0.013 C 
ATOM     12  C   UNL     1      -3.591   2.579  25.884  0.00  0.00    +0.013 C 
ATOM     13  C   UNL     1      -5.726   3.419  25.176  0.00  0.00    +0.001 C 
ATOM     14  C   UNL     1      -4.720   3.512  26.309  0.00  0.00    +0.001 C 
ENDBRANCH  17   9
ENDBRANCH  16   5
ENDBRANCH   7  16
TORSDOF 8
ENDMDL
MODEL 10
REMARK VINA RESULT:      -2.8      2.602      5.220
REMARK  Name = 75536561
REMARK  9 active torsions:
REMARK  status: ('A' for Active; 'I' for Inactive)
REMARK    1  A    between atoms: O_2  and  C_8
REMARK    2  A    between atoms: O_4  and  C_24
REMARK    3  A    between atoms: O_4  and  C_25
REMARK    4  A    between atoms: N_5  and  C_16
REMARK    5  A    between atoms: N_6  and  C_10
REMARK    6  A    between atoms: N_6  and  C_18
REMARK    7  A    between atoms: C_7  and  C_16
REMARK    8  A    between atoms: C_9  and  C_17
REMARK    9  A    between atoms: C_18  and  C_19
REMARK                            x       y       z     vdW  Elec       q    Type
REMARK                         _______ _______ _______ _____ _____    ______ ____
ROOT
ATOM      1  O   UNL     1      -2.236  -2.024  24.307  0.00  0.00    -0.371 OA
ATOM      7  C   UNL     1      -2.394  -1.115  25.409  0.00  0.00    +0.165 C 
ATOM      8  C   UNL     1      -1.483   0.069  25.113  0.00  0.00    +0.164 C 
ATOM     10  C   UNL     1      -0.323  -0.621  24.422  0.00  0.00    +0.111 C 
ATOM     15  C   UNL     1      -1.047  -1.662  23.583  0.00  0.00    +0.181 C 
ENDROOT
BRANCH   8   2
ATOM      2  O   UNL     1      -1.095   0.743  26.294  0.00  0.00    -0.388 OA
ATOM     28  H   UNL     1      -0.166   1.016  26.198  0.00  0.00    +0.210 HD
ENDBRANCH   8   2
BRANCH  10   6
ATOM      6  N   UNL     1       0.499   0.276  23.625  0.00  0.00    -0.305 NA
ATOM     27  H   UNL     1       1.107   0.810  24.246  0.00  0.00    +0.123 HD
BRANCH   6  18
ATOM     18  C   UNL     1       1.324  -0.467  22.680  0.00  0.00    +0.116 C 
BRANCH  18  19
ATOM     19  C   UNL     1       2.791  -0.314  22.976  0.00  0.00    -0.033 A 
ATOM     20  C   UNL     1       3.444   0.881  22.674  0.00  0.00    +0.008 A 
ATOM     21  C   UNL     1       3.500  -1.368  23.553  0.00  0.00    +0.008 A 
ATOM     22  C   UNL     1       4.804   1.023  22.949  0.00  0.00    +0.046 A 
ATOM     23  C   UNL     1       4.860  -1.227  23.828  0.00  0.00    +0.046 A 
ATOM     24  C   UNL     1       5.511  -0.032  23.527  0.00  0.00    +0.120 A 
BRANCH  24   4
ATOM      4  O   UNL     1       6.839   0.106  23.795  0.00  0.00    -0.495 OA
ATOM     25  C   UNL     1       7.749  -0.585  22.939  0.00  0.00    +0.277 C 
ENDBRANCH  24   4
ENDBRANCH  18  19
ENDBRANCH   6  18
ENDBRANCH  10   6
BRANCH   7  16
ATOM     16  C   UNL     1      -3.855  -0.729  25.552  0.00  0.00    +0.138 C 
BRANCH  16   5
ATOM      3  O   UNL     1      -6.038   1.050  26.257  0.00  0.00    -0.276 OA
ATOM      5  N   UNL     1      -4.098   0.592  25.051  0.00  0.00    -0.313 N 
ATOM     17  C   UNL     1      -5.174   1.378  25.446  0.00  0.00    +0.216 C 
ATOM     26  H   UNL     1      -3.439   0.964  24.373  0.00  0.00    +0.149 HD
BRANCH  17   9
ATOM      9  C   UNL     1      -5.178   2.724  24.788  0.00  0.00    +0.075 C 
ATOM     11  C   UNL     1      -4.967   3.830  25.824  0.00  0.00    +0.013 C 
ATOM     12  C   UNL     1      -4.013   2.835  23.798  0.00  0.00    +0.013 C 
ATOM     13  C   UNL     1      -3.489   4.180  25.717  0.00  0.00    +0.001 C 
ATOM     14  C   UNL     1      -3.218   4.064  24.228  0.00  0.00    +0.001 C 
ENDBRANCH  17   9
ENDBRANCH  16   5
ENDBRANCH   7  16
TORSDOF 8
ENDMDL
