MODEL 1
REMARK VINA RESULT:      -2.8      0.000      0.000
REMARK  Name = 11913105
REMARK  6 active torsions:
REMARK  status: ('A' for Active; 'I' for Inactive)
REMARK    1  A    between atoms: O_3  and  C_14
REMARK    2  A    between atoms: O_3  and  C_18
REMARK    3  A    between atoms: N_7  and  C_13
REMARK    4  A    between atoms: N_10  and  C_21
REMARK    5  A    between atoms: C_19  and  C_23
REMARK    6  A    between atoms: C_21  and  C_24
REMARK                            x       y       z     vdW  Elec       q    Type
REMARK                         _______ _______ _______ _____ _____    ______ ____
ROOT
ATOM      1  O   UNL     1      -2.014   2.494  26.072  0.00  0.00    -0.368 OA
ATOM      2  O   UNL     1      -0.856   4.943  24.632  0.00  0.00    -0.368 OA
ATOM     11  C   UNL     1      -2.182   4.372  24.633  0.00  0.00    +0.173 C 
ATOM     12  C   UNL     1      -2.010   2.866  24.683  0.00  0.00    +0.192 C 
ATOM     13  C   UNL     1      -2.886   4.703  25.928  0.00  0.00    +0.130 C 
ATOM     14  C   UNL     1      -0.651   2.670  24.056  0.00  0.00    +0.235 C 
ATOM     15  C   UNL     1      -2.351   3.639  26.870  0.00  0.00    +0.185 C 
ATOM     16  C   UNL     1       0.106   3.882  24.551  0.00  0.00    +0.207 C 
ENDROOT
BRANCH  13   7
ATOM      7  N   UNL     1      -4.318   4.560  25.772  0.00  0.00    -0.306 N 
ATOM      8  N   UNL     1      -4.138   2.286  25.333  0.00  0.00    -0.214 NA
ATOM      9  N   UNL     1      -6.281   3.389  25.366  0.00  0.00    -0.223 NA
ATOM     17  C   UNL     1      -4.940   3.359  25.478  0.00  0.00    +0.216 A 
ATOM     19  C   UNL     1      -4.777   1.133  25.046  0.00  0.00    +0.076 A 
ATOM     20  C   UNL     1      -6.855   2.201  25.078  0.00  0.00    +0.116 A 
ATOM     22  C   UNL     1      -6.146   1.029  24.906  0.00  0.00    +0.048 A 
ATOM     36  H   UNL     1      -4.919   5.360  25.934  0.00  0.00    +0.149 HD
BRANCH  19  23
ATOM      5  O   UNL     1      -0.633  -1.349  25.828  0.00  0.00    -0.453 OA
ATOM      6  O   UNL     1      -1.393  -3.231  24.529  0.00  0.00    -0.453 OA
ATOM     23  C   UNL     1      -3.922  -0.018  24.892  0.00  0.00    +0.004 A 
ATOM     25  C   UNL     1      -2.662  -0.033  25.496  0.00  0.00    +0.059 A 
ATOM     26  C   UNL     1      -4.365  -1.118  24.134  0.00  0.00    +0.014 A 
ATOM     27  C   UNL     1      -1.880  -1.157  25.320  0.00  0.00    +0.167 A 
ATOM     28  C   UNL     1      -2.314  -2.232  24.579  0.00  0.00    +0.166 A 
ATOM     29  C   UNL     1      -3.553  -2.243  23.972  0.00  0.00    +0.050 A 
ATOM     32  C   UNL     1      -0.329  -2.666  25.324  0.00  0.00    +0.466 C 
ENDBRANCH  19  23
ENDBRANCH  13   7
BRANCH  14   3
ATOM      3  O   UNL     1      -0.026   1.464  24.432  0.00  0.00    -0.442 OA
BRANCH   3  18
ATOM      4  O   UNL     1       0.435  -0.138  22.851  0.00  0.00    -0.226 OA
ATOM     10  N   UNL     1       1.966   1.530  23.357  0.00  0.00    -0.277 N 
ATOM     18  C   UNL     1       0.768   0.859  23.484  0.00  0.00    +0.401 C 
ATOM     37  H   UNL     1       2.126   2.337  23.952  0.00  0.00    +0.152 HD
BRANCH  10  21
ATOM     21  C   UNL     1       3.012   1.139  22.441  0.00  0.00    +0.142 C 
BRANCH  21  24
ATOM     24  C   UNL     1       4.040   0.266  23.101  0.00  0.00    -0.030 A 
ATOM     30  C   UNL     1       5.283   0.794  23.449  0.00  0.00    +0.005 A 
ATOM     31  C   UNL     1       3.752  -1.072  23.369  0.00  0.00    +0.005 A 
ATOM     33  C   UNL     1       6.239  -0.017  24.063  0.00  0.00    +0.000 A 
ATOM     34  C   UNL     1       4.706  -1.882  23.983  0.00  0.00    +0.000 A 
ATOM     35  C   UNL     1       5.951  -1.355  24.330  0.00  0.00    +0.000 A 
ENDBRANCH  21  24
ENDBRANCH  10  21
ENDBRANCH   3  18
ENDBRANCH  14   3
TORSDOF 6
ENDMDL
MODEL 2
REMARK VINA RESULT:      -2.0      1.215      1.718
REMARK  Name = 11913105
REMARK  6 active torsions:
REMARK  status: ('A' for Active; 'I' for Inactive)
REMARK    1  A    between atoms: O_3  and  C_14
REMARK    2  A    between atoms: O_3  and  C_18
REMARK    3  A    between atoms: N_7  and  C_13
REMARK    4  A    between atoms: N_10  and  C_21
REMARK    5  A    between atoms: C_19  and  C_23
REMARK    6  A    between atoms: C_21  and  C_24
REMARK                            x       y       z     vdW  Elec       q    Type
REMARK                         _______ _______ _______ _____ _____    ______ ____
ROOT
ATOM      1  O   UNL     1      -1.748   2.349  26.161  0.00  0.00    -0.368 OA
ATOM      2  O   UNL     1      -0.348   3.862  23.888  0.00  0.00    -0.368 OA
ATOM     11  C   UNL     1      -1.743   3.736  24.237  0.00  0.00    +0.173 C 
ATOM     12  C   UNL     1      -1.944   2.319  24.737  0.00  0.00    +0.192 C 
ATOM     13  C   UNL     1      -2.055   4.596  25.440  0.00  0.00    +0.130 C 
ATOM     14  C   UNL     1      -0.840   1.565  24.036  0.00  0.00    +0.235 C 
ATOM     15  C   UNL     1      -1.614   3.712  26.593  0.00  0.00    +0.185 C 
ATOM     16  C   UNL     1       0.281   2.580  24.024  0.00  0.00    +0.207 C 
ENDROOT
BRANCH  13   7
ATOM      7  N   UNL     1      -3.477   4.853  25.519  0.00  0.00    -0.306 N 
ATOM      8  N   UNL     1      -3.988   2.591  25.377  0.00  0.00    -0.214 NA
ATOM      9  N   UNL     1      -5.720   4.256  25.575  0.00  0.00    -0.223 NA
ATOM     17  C   UNL     1      -4.437   3.856  25.489  0.00  0.00    +0.216 A 
ATOM     19  C   UNL     1      -4.951   1.646  25.351  0.00  0.00    +0.076 A 
ATOM     20  C   UNL     1      -6.630   3.259  25.542  0.00  0.00    +0.116 A 
ATOM     22  C   UNL     1      -6.300   1.924  25.430  0.00  0.00    +0.048 A 
ATOM     36  H   UNL     1      -3.805   5.802  25.656  0.00  0.00    +0.149 HD
BRANCH  19  23
ATOM      5  O   UNL     1      -4.445  -2.599  22.969  0.00  0.00    -0.453 OA
ATOM      6  O   UNL     1      -3.176  -3.577  24.769  0.00  0.00    -0.453 OA
ATOM     23  C   UNL     1      -4.474   0.290  25.232  0.00  0.00    +0.004 A 
ATOM     25  C   UNL     1      -4.751  -0.445  24.076  0.00  0.00    +0.059 A 
ATOM     26  C   UNL     1      -3.733  -0.282  26.282  0.00  0.00    +0.014 A 
ATOM     27  C   UNL     1      -4.273  -1.737  24.009  0.00  0.00    +0.167 A 
ATOM     28  C   UNL     1      -3.548  -2.296  25.036  0.00  0.00    +0.166 A 
ATOM     29  C   UNL     1      -3.261  -1.593  26.188  0.00  0.00    +0.050 A 
ATOM     32  C   UNL     1      -3.747  -3.763  23.457  0.00  0.00    +0.466 C 
ENDBRANCH  19  23
ENDBRANCH  13   7
BRANCH  14   3
ATOM      3  O   UNL     1      -0.468   0.373  24.691  0.00  0.00    -0.442 OA
BRANCH   3  18
ATOM      4  O   UNL     1       0.524  -1.649  24.240  0.00  0.00    -0.226 OA
ATOM     10  N   UNL     1       1.146   0.277  23.107  0.00  0.00    -0.277 N 
ATOM     18  C   UNL     1       0.417  -0.446  24.027  0.00  0.00    +0.401 C 
ATOM     37  H   UNL     1       0.971   1.275  23.036  0.00  0.00    +0.152 HD
BRANCH  10  21
ATOM     21  C   UNL     1       2.157  -0.300  22.252  0.00  0.00    +0.142 C 
BRANCH  21  24
ATOM     24  C   UNL     1       3.510  -0.306  22.905  0.00  0.00    -0.030 A 
ATOM     30  C   UNL     1       4.299   0.844  22.885  0.00  0.00    +0.005 A 
ATOM     31  C   UNL     1       3.976  -1.461  23.534  0.00  0.00    +0.005 A 
ATOM     33  C   UNL     1       5.555   0.839  23.492  0.00  0.00    +0.000 A 
ATOM     34  C   UNL     1       5.232  -1.465  24.141  0.00  0.00    +0.000 A 
ATOM     35  C   UNL     1       6.021  -0.315  24.120  0.00  0.00    +0.000 A 
ENDBRANCH  21  24
ENDBRANCH  10  21
ENDBRANCH   3  18
ENDBRANCH  14   3
TORSDOF 6
ENDMDL
MODEL 3
REMARK VINA RESULT:       0.4      1.459      4.711
REMARK  Name = 11913105
REMARK  6 active torsions:
REMARK  status: ('A' for Active; 'I' for Inactive)
REMARK    1  A    between atoms: O_3  and  C_14
REMARK    2  A    between atoms: O_3  and  C_18
REMARK    3  A    between atoms: N_7  and  C_13
REMARK    4  A    between atoms: N_10  and  C_21
REMARK    5  A    between atoms: C_19  and  C_23
REMARK    6  A    between atoms: C_21  and  C_24
REMARK                            x       y       z     vdW  Elec       q    Type
REMARK                         _______ _______ _______ _____ _____    ______ ____
ROOT
ATOM      1  O   UNL     1      -2.528  -0.183  24.791  0.00  0.00    -0.368 OA
ATOM      2  O   UNL     1      -3.068  -2.971  23.629  0.00  0.00    -0.368 OA
ATOM     11  C   UNL     1      -3.845  -2.136  24.513  0.00  0.00    +0.173 C 
ATOM     12  C   UNL     1      -2.863  -1.429  25.426  0.00  0.00    +0.192 C 
ATOM     13  C   UNL     1      -4.489  -1.014  23.730  0.00  0.00    +0.130 C 
ATOM     14  C   UNL     1      -1.691  -2.380  25.445  0.00  0.00    +0.235 C 
ATOM     15  C   UNL     1      -3.366   0.004  23.640  0.00  0.00    +0.185 C 
ATOM     16  C   UNL     1      -1.691  -2.913  24.030  0.00  0.00    +0.207 C 
ENDROOT
BRANCH  13   7
ATOM      7  N   UNL     1      -5.607  -0.465  24.466  0.00  0.00    -0.306 N 
ATOM      8  N   UNL     1      -4.506   1.549  24.822  0.00  0.00    -0.214 NA
ATOM      9  N   UNL     1      -6.733   1.175  25.664  0.00  0.00    -0.223 NA
ATOM     17  C   UNL     1      -5.616   0.809  25.008  0.00  0.00    +0.216 A 
ATOM     19  C   UNL     1      -4.549   2.784  25.363  0.00  0.00    +0.076 A 
ATOM     20  C   UNL     1      -6.707   2.422  26.180  0.00  0.00    +0.116 A 
ATOM     22  C   UNL     1      -5.632   3.279  26.059  0.00  0.00    +0.048 A 
ATOM     36  H   UNL     1      -6.459  -1.008  24.557  0.00  0.00    +0.149 HD
BRANCH  19  23
ATOM      5  O   UNL     1      -0.076   3.552  23.533  0.00  0.00    -0.453 OA
ATOM      6  O   UNL     1       0.069   5.742  24.528  0.00  0.00    -0.453 OA
ATOM     23  C   UNL     1      -3.362   3.580  25.165  0.00  0.00    +0.004 A 
ATOM     25  C   UNL     1      -2.307   3.076  24.400  0.00  0.00    +0.059 A 
ATOM     26  C   UNL     1      -3.276   4.858  25.746  0.00  0.00    +0.014 A 
ATOM     27  C   UNL     1      -1.193   3.874  24.239  0.00  0.00    +0.167 A 
ATOM     28  C   UNL     1      -1.111   5.124  24.807  0.00  0.00    +0.166 A 
ATOM     29  C   UNL     1      -2.136   5.646  25.567  0.00  0.00    +0.050 A 
ATOM     32  C   UNL     1       0.721   4.740  23.719  0.00  0.00    +0.466 C 
ENDBRANCH  19  23
ENDBRANCH  13   7
BRANCH  14   3
ATOM      3  O   UNL     1      -0.468  -1.761  25.777  0.00  0.00    -0.442 OA
BRANCH   3  18
ATOM      4  O   UNL     1      -0.351   0.456  25.187  0.00  0.00    -0.226 OA
ATOM     10  N   UNL     1       0.691  -1.184  23.920  0.00  0.00    -0.277 N 
ATOM     18  C   UNL     1      -0.066  -0.718  24.974  0.00  0.00    +0.401 C 
ATOM     37  H   UNL     1       0.845  -2.185  23.849  0.00  0.00    +0.152 HD
BRANCH  10  21
ATOM     21  C   UNL     1       1.260  -0.332  22.903  0.00  0.00    +0.142 C 
BRANCH  21  24
ATOM     24  C   UNL     1       2.744  -0.170  23.069  0.00  0.00    -0.030 A 
ATOM     30  C   UNL     1       3.365   1.014  22.672  0.00  0.00    +0.005 A 
ATOM     31  C   UNL     1       3.501  -1.203  23.623  0.00  0.00    +0.005 A 
ATOM     33  C   UNL     1       4.744   1.164  22.828  0.00  0.00    +0.000 A 
ATOM     34  C   UNL     1       4.878  -1.052  23.779  0.00  0.00    +0.000 A 
ATOM     35  C   UNL     1       5.500   0.132  23.381  0.00  0.00    +0.000 A 
ENDBRANCH  21  24
ENDBRANCH  10  21
ENDBRANCH   3  18
ENDBRANCH  14   3
TORSDOF 6
ENDMDL
