MODEL 1
REMARK VINA RESULT:      -3.0      0.000      0.000
REMARK  Name = 45783709
REMARK  7 active torsions:
REMARK  status: ('A' for Active; 'I' for Inactive)
REMARK    1  A    between atoms: O_2  and  C_20
REMARK    2  A    between atoms: O_2  and  C_21
REMARK    3  A    between atoms: N_3  and  C_11
REMARK    4  A    between atoms: C_7  and  C_12
REMARK    5  A    between atoms: C_11  and  C_13
REMARK    6  A    between atoms: C_11  and  C_14
REMARK    7  A    between atoms: C_15  and  C_16
REMARK                            x       y       z     vdW  Elec       q    Type
REMARK                         _______ _______ _______ _____ _____    ______ ____
ROOT
ATOM      1  O   UNL     1      -1.987   2.364  24.752  0.00  0.00    -0.336 OA
ATOM      4  N   UNL     1      -1.396   0.810  23.251  0.00  0.00    -0.190 NA
ATOM      5  N   UNL     1      -0.587   2.360  24.727  0.00  0.00    -0.056 NA
ATOM     12  C   UNL     1      -2.382   1.422  23.854  0.00  0.00    +0.245 A 
ATOM     15  C   UNL     1      -0.314   1.417  23.818  0.00  0.00    +0.204 A 
ENDROOT
BRANCH  15  16
ATOM      6  N   UNL     1       3.338   1.716  23.186  0.00  0.00    -0.221 NA
ATOM     16  C   UNL     1       1.027   1.060  23.456  0.00  0.00    +0.041 A 
ATOM     17  C   UNL     1       1.335  -0.228  23.035  0.00  0.00    +0.018 A 
ATOM     18  C   UNL     1       2.055   1.988  23.513  0.00  0.00    +0.126 A 
ATOM     19  C   UNL     1       2.644  -0.547  22.689  0.00  0.00    +0.068 A 
ATOM     20  C   UNL     1       3.601   0.453  22.781  0.00  0.00    +0.214 A 
BRANCH  20   2
ATOM      2  O   UNL     1       4.898   0.165  22.446  0.00  0.00    -0.480 OA
ATOM     21  C   UNL     1       5.785  -0.129  23.520  0.00  0.00    +0.279 C 
ENDBRANCH  20   2
ENDBRANCH  15  16
BRANCH  12   7
ATOM      3  N   UNL     1      -4.490   0.109  24.431  0.00  0.00    -0.289 NA
ATOM      7  C   UNL     1      -3.884   1.229  23.691  0.00  0.00    +0.146 C 
ATOM      8  C   UNL     1      -4.734   2.410  24.178  0.00  0.00    +0.030 C 
ATOM      9  C   UNL     1      -4.791   0.579  25.777  0.00  0.00    +0.085 C 
ATOM     10  C   UNL     1      -5.251   2.013  25.560  0.00  0.00    +0.017 C 
BRANCH   3  11
ATOM     11  C   UNL     1      -3.778  -1.155  24.399  0.00  0.00    +0.051 C 
ATOM     13  C   UNL     1      -4.625  -2.222  23.711  0.00  0.00    +0.024 C 
ATOM     14  C   UNL     1      -3.420  -1.573  25.821  0.00  0.00    +0.024 C 
ENDBRANCH   3  11
ENDBRANCH  12   7
TORSDOF 4
ENDMDL
MODEL 2
REMARK VINA RESULT:      -2.4     17.147     18.736
REMARK  Name = 45783709
REMARK  7 active torsions:
REMARK  status: ('A' for Active; 'I' for Inactive)
REMARK    1  A    between atoms: O_2  and  C_20
REMARK    2  A    between atoms: O_2  and  C_21
REMARK    3  A    between atoms: N_3  and  C_11
REMARK    4  A    between atoms: C_7  and  C_12
REMARK    5  A    between atoms: C_11  and  C_13
REMARK    6  A    between atoms: C_11  and  C_14
REMARK    7  A    between atoms: C_15  and  C_16
REMARK                            x       y       z     vdW  Elec       q    Type
REMARK                         _______ _______ _______ _____ _____    ______ ____
ROOT
ATOM      1  O   UNL     1      14.937  -5.885  31.570  0.00  0.00    -0.336 OA
ATOM      4  N   UNL     1      14.991  -7.641  30.180  0.00  0.00    -0.190 NA
ATOM      5  N   UNL     1      15.484  -5.414  30.369  0.00  0.00    -0.056 NA
ATOM     12  C   UNL     1      14.676  -7.204  31.373  0.00  0.00    +0.245 A 
ATOM     15  C   UNL     1      15.484  -6.508  29.601  0.00  0.00    +0.204 A 
ENDROOT
BRANCH  15  16
ATOM      6  N   UNL     1      15.975  -7.510  26.053  0.00  0.00    -0.221 NA
ATOM     16  C   UNL     1      15.969  -6.502  28.250  0.00  0.00    +0.041 A 
ATOM     17  C   UNL     1      16.869  -5.536  27.818  0.00  0.00    +0.018 A 
ATOM     18  C   UNL     1      15.557  -7.460  27.338  0.00  0.00    +0.126 A 
ATOM     19  C   UNL     1      17.324  -5.555  26.503  0.00  0.00    +0.068 A 
ATOM     20  C   UNL     1      16.851  -6.555  25.668  0.00  0.00    +0.214 A 
BRANCH  20   2
ATOM      2  O   UNL     1      17.282  -6.595  24.368  0.00  0.00    -0.480 OA
ATOM     21  C   UNL     1      17.177  -5.388  23.622  0.00  0.00    +0.279 C 
ENDBRANCH  20   2
ENDBRANCH  15  16
BRANCH  12   7
ATOM      3  N   UNL     1      12.663  -8.380  32.404  0.00  0.00    -0.289 NA
ATOM      7  C   UNL     1      14.066  -7.958  32.547  0.00  0.00    +0.146 C 
ATOM      8  C   UNL     1      14.753  -9.291  32.873  0.00  0.00    +0.030 C 
ATOM      9  C   UNL     1      12.654  -9.656  31.701  0.00  0.00    +0.085 C 
ATOM     10  C   UNL     1      13.874 -10.377  32.254  0.00  0.00    +0.017 C 
BRANCH   3  11
ATOM     11  C   UNL     1      11.741  -7.403  31.853  0.00  0.00    +0.051 C 
ATOM     13  C   UNL     1      11.720  -6.148  32.722  0.00  0.00    +0.024 C 
ATOM     14  C   UNL     1      10.350  -8.020  31.749  0.00  0.00    +0.024 C 
ENDBRANCH   3  11
ENDBRANCH  12   7
TORSDOF 4
ENDMDL
MODEL 3
REMARK VINA RESULT:      -2.1      1.728      2.975
REMARK  Name = 45783709
REMARK  7 active torsions:
REMARK  status: ('A' for Active; 'I' for Inactive)
REMARK    1  A    between atoms: O_2  and  C_20
REMARK    2  A    between atoms: O_2  and  C_21
REMARK    3  A    between atoms: N_3  and  C_11
REMARK    4  A    between atoms: C_7  and  C_12
REMARK    5  A    between atoms: C_11  and  C_13
REMARK    6  A    between atoms: C_11  and  C_14
REMARK    7  A    between atoms: C_15  and  C_16
REMARK                            x       y       z     vdW  Elec       q    Type
REMARK                         _______ _______ _______ _____ _____    ______ ____
ROOT
ATOM      1  O   UNL     1      -3.076  -0.464  24.519  0.00  0.00    -0.336 OA
ATOM      4  N   UNL     1      -1.703   1.278  24.829  0.00  0.00    -0.190 NA
ATOM      5  N   UNL     1      -1.873  -0.799  23.885  0.00  0.00    -0.056 NA
ATOM     12  C   UNL     1      -2.891   0.774  25.048  0.00  0.00    +0.245 A 
ATOM     15  C   UNL     1      -1.114   0.278  24.112  0.00  0.00    +0.204 A 
ENDROOT
BRANCH  15  16
ATOM      6  N   UNL     1       2.327   1.595  23.613  0.00  0.00    -0.221 NA
ATOM     16  C   UNL     1       0.235   0.386  23.635  0.00  0.00    +0.041 A 
ATOM     17  C   UNL     1       0.763  -0.561  22.765  0.00  0.00    +0.018 A 
ATOM     18  C   UNL     1       1.049   1.436  24.025  0.00  0.00    +0.126 A 
ATOM     19  C   UNL     1       2.074  -0.431  22.318  0.00  0.00    +0.068 A 
ATOM     20  C   UNL     1       2.808   0.656  22.767  0.00  0.00    +0.214 A 
BRANCH  20   2
ATOM      2  O   UNL     1       4.101   0.806  22.342  0.00  0.00    -0.480 OA
ATOM     21  C   UNL     1       5.116   0.255  23.174  0.00  0.00    +0.279 C 
ENDBRANCH  20   2
ENDBRANCH  15  16
BRANCH  12   7
ATOM      3  N   UNL     1      -4.350   2.800  25.565  0.00  0.00    -0.289 NA
ATOM      7  C   UNL     1      -4.070   1.374  25.802  0.00  0.00    +0.146 C 
ATOM      8  C   UNL     1      -5.427   0.738  25.469  0.00  0.00    +0.030 C 
ATOM      9  C   UNL     1      -5.183   2.895  24.372  0.00  0.00    +0.085 C 
ATOM     10  C   UNL     1      -6.104   1.690  24.484  0.00  0.00    +0.017 C 
BRANCH   3  11
ATOM     11  C   UNL     1      -3.207   3.695  25.552  0.00  0.00    +0.051 C 
ATOM     13  C   UNL     1      -3.261   4.637  26.752  0.00  0.00    +0.024 C 
ATOM     14  C   UNL     1      -3.188   4.476  24.243  0.00  0.00    +0.024 C 
ENDBRANCH   3  11
ENDBRANCH  12   7
TORSDOF 4
ENDMDL
MODEL 4
REMARK VINA RESULT:      -1.5     14.161     16.254
REMARK  Name = 45783709
REMARK  7 active torsions:
REMARK  status: ('A' for Active; 'I' for Inactive)
REMARK    1  A    between atoms: O_2  and  C_20
REMARK    2  A    between atoms: O_2  and  C_21
REMARK    3  A    between atoms: N_3  and  C_11
REMARK    4  A    between atoms: C_7  and  C_12
REMARK    5  A    between atoms: C_11  and  C_13
REMARK    6  A    between atoms: C_11  and  C_14
REMARK    7  A    between atoms: C_15  and  C_16
REMARK                            x       y       z     vdW  Elec       q    Type
REMARK                         _______ _______ _______ _____ _____    ______ ____
ROOT
ATOM      1  O   UNL     1       9.284  -7.212  32.844  0.00  0.00    -0.336 OA
ATOM      4  N   UNL     1      10.961  -8.169  31.709  0.00  0.00    -0.190 NA
ATOM      5  N   UNL     1      10.250  -6.214  32.663  0.00  0.00    -0.056 NA
ATOM     12  C   UNL     1       9.782  -8.330  32.253  0.00  0.00    +0.245 A 
ATOM     15  C   UNL     1      11.208  -6.856  31.986  0.00  0.00    +0.204 A 
ENDROOT
BRANCH  15  16
ATOM      6  N   UNL     1      14.212  -6.022  29.958  0.00  0.00    -0.221 NA
ATOM     16  C   UNL     1      12.423  -6.214  31.572  0.00  0.00    +0.041 A 
ATOM     17  C   UNL     1      12.991  -5.200  32.334  0.00  0.00    +0.018 A 
ATOM     18  C   UNL     1      13.066  -6.586  30.403  0.00  0.00    +0.126 A 
ATOM     19  C   UNL     1      14.169  -4.595  31.910  0.00  0.00    +0.068 A 
ATOM     20  C   UNL     1      14.736  -5.039  30.725  0.00  0.00    +0.214 A 
BRANCH  20   2
ATOM      2  O   UNL     1      15.896  -4.460  30.284  0.00  0.00    -0.480 OA
ATOM     21  C   UNL     1      16.104  -3.096  30.635  0.00  0.00    +0.279 C 
ENDBRANCH  20   2
ENDBRANCH  15  16
BRANCH  12   7
ATOM      3  N   UNL     1       7.543  -9.450  31.775  0.00  0.00    -0.289 NA
ATOM      7  C   UNL     1       8.908  -9.575  32.313  0.00  0.00    +0.146 C 
ATOM      8  C   UNL     1       9.443 -10.768  31.508  0.00  0.00    +0.030 C 
ATOM      9  C   UNL     1       7.611  -9.680  30.337  0.00  0.00    +0.085 C 
ATOM     10  C   UNL     1       8.654 -10.779  30.200  0.00  0.00    +0.017 C 
BRANCH   3  11
ATOM     11  C   UNL     1       6.804  -8.255  32.141  0.00  0.00    +0.051 C 
ATOM     13  C   UNL     1       5.519  -8.633  32.873  0.00  0.00    +0.024 C 
ATOM     14  C   UNL     1       6.503  -7.440  30.889  0.00  0.00    +0.024 C 
ENDBRANCH   3  11
ENDBRANCH  12   7
TORSDOF 4
ENDMDL
MODEL 5
REMARK VINA RESULT:      -1.4      0.910      2.331
REMARK  Name = 45783709
REMARK  7 active torsions:
REMARK  status: ('A' for Active; 'I' for Inactive)
REMARK    1  A    between atoms: O_2  and  C_20
REMARK    2  A    between atoms: O_2  and  C_21
REMARK    3  A    between atoms: N_3  and  C_11
REMARK    4  A    between atoms: C_7  and  C_12
REMARK    5  A    between atoms: C_11  and  C_13
REMARK    6  A    between atoms: C_11  and  C_14
REMARK    7  A    between atoms: C_15  and  C_16
REMARK                            x       y       z     vdW  Elec       q    Type
REMARK                         _______ _______ _______ _____ _____    ______ ____
ROOT
ATOM      1  O   UNL     1      -1.863   1.497  25.533  0.00  0.00    -0.336 OA
ATOM      4  N   UNL     1      -1.014  -0.347  24.585  0.00  0.00    -0.190 NA
ATOM      5  N   UNL     1      -0.604   1.859  25.036  0.00  0.00    -0.056 NA
ATOM     12  C   UNL     1      -2.025   0.183  25.225  0.00  0.00    +0.245 A 
ATOM     15  C   UNL     1      -0.166   0.718  24.493  0.00  0.00    +0.204 A 
ENDROOT
BRANCH  15  16
ATOM      6  N   UNL     1       3.195   1.655  23.208  0.00  0.00    -0.221 NA
ATOM     16  C   UNL     1       1.112   0.611  23.851  0.00  0.00    +0.041 A 
ATOM     17  C   UNL     1       1.518  -0.581  23.262  0.00  0.00    +0.018 A 
ATOM     18  C   UNL     1       1.979   1.690  23.797  0.00  0.00    +0.126 A 
ATOM     19  C   UNL     1       2.763  -0.656  22.645  0.00  0.00    +0.068 A 
ATOM     20  C   UNL     1       3.557   0.480  22.645  0.00  0.00    +0.214 A 
BRANCH  20   2
ATOM      2  O   UNL     1       4.787   0.431  22.045  0.00  0.00    -0.480 OA
ATOM     21  C   UNL     1       5.875  -0.009  22.850  0.00  0.00    +0.279 C 
ENDBRANCH  20   2
ENDBRANCH  15  16
BRANCH  12   7
ATOM      3  N   UNL     1      -4.569   0.097  25.082  0.00  0.00    -0.289 NA
ATOM      7  C   UNL     1      -3.335  -0.459  25.663  0.00  0.00    +0.146 C 
ATOM      8  C   UNL     1      -3.469  -1.944  25.297  0.00  0.00    +0.030 C 
ATOM      9  C   UNL     1      -4.786  -0.556  23.797  0.00  0.00    +0.085 C 
ATOM     10  C   UNL     1      -4.343  -1.990  24.045  0.00  0.00    +0.017 C 
BRANCH   3  11
ATOM     11  C   UNL     1      -4.670   1.543  25.027  0.00  0.00    +0.051 C 
ATOM     13  C   UNL     1      -6.093   1.986  25.360  0.00  0.00    +0.024 C 
ATOM     14  C   UNL     1      -4.255   2.030  23.644  0.00  0.00    +0.024 C 
ENDBRANCH   3  11
ENDBRANCH  12   7
TORSDOF 4
ENDMDL
MODEL 6
REMARK VINA RESULT:      -1.2      1.655      2.103
REMARK  Name = 45783709
REMARK  7 active torsions:
REMARK  status: ('A' for Active; 'I' for Inactive)
REMARK    1  A    between atoms: O_2  and  C_20
REMARK    2  A    between atoms: O_2  and  C_21
REMARK    3  A    between atoms: N_3  and  C_11
REMARK    4  A    between atoms: C_7  and  C_12
REMARK    5  A    between atoms: C_11  and  C_13
REMARK    6  A    between atoms: C_11  and  C_14
REMARK    7  A    between atoms: C_15  and  C_16
REMARK                            x       y       z     vdW  Elec       q    Type
REMARK                         _______ _______ _______ _____ _____    ______ ____
ROOT
ATOM      1  O   UNL     1      -3.121   0.640  24.300  0.00  0.00    -0.336 OA
ATOM      4  N   UNL     1      -1.742   2.141  23.371  0.00  0.00    -0.190 NA
ATOM      5  N   UNL     1      -1.870   0.017  24.212  0.00  0.00    -0.056 NA
ATOM     12  C   UNL     1      -2.958   1.887  23.783  0.00  0.00    +0.245 A 
ATOM     15  C   UNL     1      -1.111   0.965  23.654  0.00  0.00    +0.204 A 
ENDROOT
BRANCH  15  16
ATOM      6  N   UNL     1       2.559   1.559  23.543  0.00  0.00    -0.221 NA
ATOM     16  C   UNL     1       0.281   0.769  23.366  0.00  0.00    +0.041 A 
ATOM     17  C   UNL     1       0.715  -0.346  22.658  0.00  0.00    +0.018 A 
ATOM     18  C   UNL     1       1.234   1.685  23.782  0.00  0.00    +0.126 A 
ATOM     19  C   UNL     1       2.070  -0.511  22.392  0.00  0.00    +0.068 A 
ATOM     20  C   UNL     1       2.944   0.463  22.852  0.00  0.00    +0.214 A 
BRANCH  20   2
ATOM      2  O   UNL     1       4.284   0.323  22.604  0.00  0.00    -0.480 OA
ATOM     21  C   UNL     1       5.083  -0.182  23.668  0.00  0.00    +0.279 C 
ENDBRANCH  20   2
ENDBRANCH  15  16
BRANCH  12   7
ATOM      3  N   UNL     1      -5.057   2.736  24.955  0.00  0.00    -0.289 NA
ATOM      7  C   UNL     1      -4.191   2.780  23.765  0.00  0.00    +0.146 C 
ATOM      8  C   UNL     1      -3.887   4.282  23.665  0.00  0.00    +0.030 C 
ATOM      9  C   UNL     1      -4.511   3.667  25.934  0.00  0.00    +0.085 C 
ATOM     10  C   UNL     1      -4.020   4.830  25.086  0.00  0.00    +0.017 C 
BRANCH   3  11
ATOM     11  C   UNL     1      -5.351   1.423  25.499  0.00  0.00    +0.051 C 
ATOM     13  C   UNL     1      -6.104   0.582  24.471  0.00  0.00    +0.024 C 
ATOM     14  C   UNL     1      -6.161   1.573  26.781  0.00  0.00    +0.024 C 
ENDBRANCH   3  11
ENDBRANCH  12   7
TORSDOF 4
ENDMDL
MODEL 7
REMARK VINA RESULT:      -1.0     18.505     19.689
REMARK  Name = 45783709
REMARK  7 active torsions:
REMARK  status: ('A' for Active; 'I' for Inactive)
REMARK    1  A    between atoms: O_2  and  C_20
REMARK    2  A    between atoms: O_2  and  C_21
REMARK    3  A    between atoms: N_3  and  C_11
REMARK    4  A    between atoms: C_7  and  C_12
REMARK    5  A    between atoms: C_11  and  C_13
REMARK    6  A    between atoms: C_11  and  C_14
REMARK    7  A    between atoms: C_15  and  C_16
REMARK                            x       y       z     vdW  Elec       q    Type
REMARK                         _______ _______ _______ _____ _____    ______ ____
ROOT
ATOM      1  O   UNL     1      14.887  -6.654  30.590  0.00  0.00    -0.336 OA
ATOM      4  N   UNL     1      16.112  -8.243  29.594  0.00  0.00    -0.190 NA
ATOM      5  N   UNL     1      15.047  -6.246  29.260  0.00  0.00    -0.056 NA
ATOM     12  C   UNL     1      15.545  -7.839  30.702  0.00  0.00    +0.245 A 
ATOM     15  C   UNL     1      15.781  -7.234  28.738  0.00  0.00    +0.204 A 
ENDROOT
BRANCH  15  16
ATOM      6  N   UNL     1      16.968  -6.011  25.433  0.00  0.00    -0.221 NA
ATOM     16  C   UNL     1      16.198  -7.243  27.365  0.00  0.00    +0.041 A 
ATOM     17  C   UNL     1      16.242  -8.426  26.639  0.00  0.00    +0.018 A 
ATOM     18  C   UNL     1      16.567  -6.072  26.723  0.00  0.00    +0.126 A 
ATOM     19  C   UNL     1      16.649  -8.405  25.309  0.00  0.00    +0.068 A 
ATOM     20  C   UNL     1      16.999  -7.182  24.757  0.00  0.00    +0.214 A 
BRANCH  20   2
ATOM      2  O   UNL     1      17.404  -7.135  23.450  0.00  0.00    -0.480 OA
ATOM     21  C   UNL     1      17.093  -5.950  22.726  0.00  0.00    +0.279 C 
ENDBRANCH  20   2
ENDBRANCH  15  16
BRANCH  12   7
ATOM      3  N   UNL     1      14.460  -9.496  32.307  0.00  0.00    -0.289 NA
ATOM      7  C   UNL     1      15.521  -8.501  32.073  0.00  0.00    +0.146 C 
ATOM      8  C   UNL     1      16.779  -9.314  32.409  0.00  0.00    +0.030 C 
ATOM      9  C   UNL     1      14.935 -10.777  31.799  0.00  0.00    +0.085 C 
ATOM     10  C   UNL     1      16.414 -10.775  32.153  0.00  0.00    +0.017 C 
BRANCH   3  11
ATOM     11  C   UNL     1      13.126  -9.146  31.854  0.00  0.00    +0.051 C 
ATOM     13  C   UNL     1      12.091 -10.060  32.504  0.00  0.00    +0.024 C 
ATOM     14  C   UNL     1      13.064  -9.242  30.334  0.00  0.00    +0.024 C 
ENDBRANCH   3  11
ENDBRANCH  12   7
TORSDOF 4
ENDMDL
