MODEL 1
REMARK VINA RESULT:       0.9      0.000      0.000
REMARK  Name = 11911833
REMARK  9 active torsions:
REMARK  status: ('A' for Active; 'I' for Inactive)
REMARK    1  A    between atoms: S_1  and  C_19
REMARK    2  A    between atoms: S_1  and  C_21
REMARK    3  A    between atoms: O_4  and  C_16
REMARK    4  A    between atoms: O_4  and  C_20
REMARK    5  A    between atoms: N_8  and  C_15
REMARK    6  A    between atoms: N_12  and  C_22
REMARK    7  A    between atoms: C_21  and  C_23
REMARK    8  A    between atoms: C_29  and  C_32
REMARK    9  A    between atoms: C_32  and  C_33
REMARK                            x       y       z     vdW  Elec       q    Type
REMARK                         _______ _______ _______ _____ _____    ______ ____
ROOT
ATOM      2  O   UNL     1      -2.614  -0.085  25.208  0.00  0.00    -0.368 OA
ATOM      3  O   UNL     1      -4.955  -1.202  23.526  0.00  0.00    -0.368 OA
ATOM     13  C   UNL     1      -4.916  -0.309  24.661  0.00  0.00    +0.177 C 
ATOM     14  C   UNL     1      -3.805  -0.802  25.568  0.00  0.00    +0.192 C 
ATOM     15  C   UNL     1      -4.457   1.065  24.211  0.00  0.00    +0.168 C 
ATOM     16  C   UNL     1      -3.707  -2.265  25.207  0.00  0.00    +0.235 C 
ATOM     17  C   UNL     1      -2.937   0.945  24.263  0.00  0.00    +0.190 C 
ATOM     18  C   UNL     1      -3.991  -2.246  23.723  0.00  0.00    +0.207 C 
ENDROOT
BRANCH  15   8
ATOM      8  N   UNL     1      -5.029   2.141  25.022  0.00  0.00    -0.212 N 
ATOM      9  N   UNL     1      -5.941   1.868  25.965  0.00  0.00    -0.043 NA
ATOM     10  N   UNL     1      -5.534   4.058  25.902  0.00  0.00    -0.101 NA
ATOM     11  N   UNL     1      -6.246   3.043  26.501  0.00  0.00    -0.022 NA
ATOM     19  C   UNL     1      -4.788   3.478  24.990  0.00  0.00    +0.210 A 
BRANCH  19   1
ATOM      1  S   UNL     1      -3.675   4.226  23.914  0.00  0.00    -0.077 S 
BRANCH   1  21
ATOM     21  C   UNL     1      -2.436   4.884  25.070  0.00  0.00    +0.151 C 
BRANCH  21  23
ATOM      6  O   UNL     1      -1.400   3.215  26.500  0.00  0.00    -0.467 OA
ATOM     23  C   UNL     1      -1.342   3.888  25.322  0.00  0.00    +0.115 A 
ATOM     26  C   UNL     1      -0.248   3.488  24.590  0.00  0.00    +0.045 A 
ATOM     30  C   UNL     1       0.409   2.507  25.371  0.00  0.00    +0.041 A 
ATOM     31  C   UNL     1      -0.331   2.377  26.523  0.00  0.00    +0.195 A 
ENDBRANCH  21  23
ENDBRANCH   1  21
ENDBRANCH  19   1
ENDBRANCH  15   8
BRANCH  16   4
ATOM      4  O   UNL     1      -2.450  -2.834  25.500  0.00  0.00    -0.442 OA
BRANCH   4  20
ATOM      5  O   UNL     1      -1.386  -3.309  23.532  0.00  0.00    -0.226 OA
ATOM     12  N   UNL     1      -0.593  -1.660  24.992  0.00  0.00    -0.251 N 
ATOM     20  C   UNL     1      -1.451  -2.655  24.566  0.00  0.00    +0.405 C 
ATOM     34  H   UNL     1      -0.814  -1.228  25.885  0.00  0.00    +0.158 HD
BRANCH  12  22
ATOM     22  C   UNL     1       0.557  -1.164  24.338  0.00  0.00    +0.036 A 
ATOM     24  C   UNL     1       1.794  -1.777  24.541  0.00  0.00    +0.024 A 
ATOM     25  C   UNL     1       0.456  -0.061  23.489  0.00  0.00    +0.024 A 
ATOM     27  C   UNL     1       2.930  -1.286  23.896  0.00  0.00    +0.013 A 
ATOM     28  C   UNL     1       1.592   0.429  22.844  0.00  0.00    +0.013 A 
ATOM     29  C   UNL     1       2.828  -0.183  23.047  0.00  0.00    +0.017 A 
BRANCH  29  32
ATOM      7  O   UNL     1       3.954   0.795  21.220  0.00  0.00    -0.292 OA
ATOM     32  C   UNL     1       4.012   0.327  22.375  0.00  0.00    +0.160 C 
ATOM     33  C   UNL     1       5.366   0.299  23.076  0.00  0.00    +0.091 C 
ENDBRANCH  29  32
ENDBRANCH  12  22
ENDBRANCH   4  20
ENDBRANCH  16   4
TORSDOF 8
ENDMDL
MODEL 2
REMARK VINA RESULT:       1.6      1.320      1.663
REMARK  Name = 11911833
REMARK  9 active torsions:
REMARK  status: ('A' for Active; 'I' for Inactive)
REMARK    1  A    between atoms: S_1  and  C_19
REMARK    2  A    between atoms: S_1  and  C_21
REMARK    3  A    between atoms: O_4  and  C_16
REMARK    4  A    between atoms: O_4  and  C_20
REMARK    5  A    between atoms: N_8  and  C_15
REMARK    6  A    between atoms: N_12  and  C_22
REMARK    7  A    between atoms: C_21  and  C_23
REMARK    8  A    between atoms: C_29  and  C_32
REMARK    9  A    between atoms: C_32  and  C_33
REMARK                            x       y       z     vdW  Elec       q    Type
REMARK                         _______ _______ _______ _____ _____    ______ ____
ROOT
ATOM      2  O   UNL     1      -2.826   0.788  23.467  0.00  0.00    -0.368 OA
ATOM      3  O   UNL     1      -4.826  -1.319  24.523  0.00  0.00    -0.368 OA
ATOM     13  C   UNL     1      -4.327  -0.086  25.088  0.00  0.00    +0.177 C 
ATOM     14  C   UNL     1      -2.870   0.023  24.682  0.00  0.00    +0.192 C 
ATOM     15  C   UNL     1      -5.000   1.091  24.410  0.00  0.00    +0.168 C 
ATOM     16  C   UNL     1      -2.481  -1.417  24.450  0.00  0.00    +0.235 C 
ATOM     17  C   UNL     1      -4.129   1.313  23.178  0.00  0.00    +0.190 C 
ATOM     18  C   UNL     1      -3.747  -1.999  23.866  0.00  0.00    +0.207 C 
ENDROOT
BRANCH  15   8
ATOM      8  N   UNL     1      -5.136   2.247  25.299  0.00  0.00    -0.212 N 
ATOM      9  N   UNL     1      -5.857   2.156  26.424  0.00  0.00    -0.043 NA
ATOM     10  N   UNL     1      -5.009   4.207  26.219  0.00  0.00    -0.101 NA
ATOM     11  N   UNL     1      -5.776   3.357  26.984  0.00  0.00    -0.022 NA
ATOM     19  C   UNL     1      -4.623   3.500  25.182  0.00  0.00    +0.210 A 
BRANCH  19   1
ATOM      1  S   UNL     1      -3.636   4.014  23.871  0.00  0.00    -0.077 S 
BRANCH   1  21
ATOM     21  C   UNL     1      -2.199   4.703  24.745  0.00  0.00    +0.151 C 
BRANCH  21  23
ATOM      6  O   UNL     1      -1.214   3.149  26.334  0.00  0.00    -0.467 OA
ATOM     23  C   UNL     1      -1.193   3.635  25.065  0.00  0.00    +0.115 A 
ATOM     26  C   UNL     1      -0.213   3.013  24.325  0.00  0.00    +0.045 A 
ATOM     30  C   UNL     1       0.407   2.087  25.196  0.00  0.00    +0.041 A 
ATOM     31  C   UNL     1      -0.236   2.208  26.405  0.00  0.00    +0.195 A 
ENDBRANCH  21  23
ENDBRANCH   1  21
ENDBRANCH  19   1
ENDBRANCH  15   8
BRANCH  16   4
ATOM      4  O   UNL     1      -1.378  -1.571  23.585  0.00  0.00    -0.442 OA
BRANCH   4  20
ATOM      5  O   UNL     1       0.113  -1.448  25.315  0.00  0.00    -0.226 OA
ATOM     12  N   UNL     1       0.742  -0.964  23.113  0.00  0.00    -0.251 N 
ATOM     20  C   UNL     1      -0.129  -1.333  24.120  0.00  0.00    +0.405 C 
ATOM     34  H   UNL     1       0.354  -0.924  22.175  0.00  0.00    +0.158 HD
BRANCH  12  22
ATOM     22  C   UNL     1       2.112  -0.633  23.225  0.00  0.00    +0.036 A 
ATOM     24  C   UNL     1       3.008  -1.551  23.774  0.00  0.00    +0.024 A 
ATOM     25  C   UNL     1       2.568   0.610  22.786  0.00  0.00    +0.024 A 
ATOM     27  C   UNL     1       4.360  -1.224  23.884  0.00  0.00    +0.013 A 
ATOM     28  C   UNL     1       3.920   0.936  22.897  0.00  0.00    +0.013 A 
ATOM     29  C   UNL     1       4.815   0.019  23.445  0.00  0.00    +0.017 A 
BRANCH  29  32
ATOM      7  O   UNL     1       6.604   1.353  24.211  0.00  0.00    -0.292 OA
ATOM     32  C   UNL     1       6.224   0.358  23.560  0.00  0.00    +0.160 C 
ATOM     33  C   UNL     1       7.282  -0.505  22.880  0.00  0.00    +0.091 C 
ENDBRANCH  29  32
ENDBRANCH  12  22
ENDBRANCH   4  20
ENDBRANCH  16   4
TORSDOF 8
ENDMDL
MODEL 3
REMARK VINA RESULT:       3.0      2.465      3.358
REMARK  Name = 11911833
REMARK  9 active torsions:
REMARK  status: ('A' for Active; 'I' for Inactive)
REMARK    1  A    between atoms: S_1  and  C_19
REMARK    2  A    between atoms: S_1  and  C_21
REMARK    3  A    between atoms: O_4  and  C_16
REMARK    4  A    between atoms: O_4  and  C_20
REMARK    5  A    between atoms: N_8  and  C_15
REMARK    6  A    between atoms: N_12  and  C_22
REMARK    7  A    between atoms: C_21  and  C_23
REMARK    8  A    between atoms: C_29  and  C_32
REMARK    9  A    between atoms: C_32  and  C_33
REMARK                            x       y       z     vdW  Elec       q    Type
REMARK                         _______ _______ _______ _____ _____    ______ ____
ROOT
ATOM      2  O   UNL     1      -3.552   1.545  23.540  0.00  0.00    -0.368 OA
ATOM      3  O   UNL     1      -5.599   2.422  25.685  0.00  0.00    -0.368 OA
ATOM     13  C   UNL     1      -4.184   2.674  25.533  0.00  0.00    +0.177 C 
ATOM     14  C   UNL     1      -3.571   1.407  24.970  0.00  0.00    +0.192 C 
ATOM     15  C   UNL     1      -3.967   3.715  24.452  0.00  0.00    +0.168 C 
ATOM     16  C   UNL     1      -4.544   0.341  25.416  0.00  0.00    +0.235 C 
ATOM     17  C   UNL     1      -3.946   2.875  23.178  0.00  0.00    +0.190 C 
ATOM     18  C   UNL     1      -5.869   1.061  25.322  0.00  0.00    +0.207 C 
ENDROOT
BRANCH  15   8
ATOM      8  N   UNL     1      -2.773   4.528  24.687  0.00  0.00    -0.212 N 
ATOM      9  N   UNL     1      -2.689   5.770  24.192  0.00  0.00    -0.043 NA
ATOM     10  N   UNL     1      -0.833   5.266  25.318  0.00  0.00    -0.101 NA
ATOM     11  N   UNL     1      -1.502   6.217  24.581  0.00  0.00    -0.022 NA
ATOM     19  C   UNL     1      -1.637   4.229  25.371  0.00  0.00    +0.210 A 
BRANCH  19   1
ATOM      1  S   UNL     1      -1.359   2.726  26.158  0.00  0.00    -0.077 S 
BRANCH   1  21
ATOM     21  C   UNL     1       0.457   2.685  26.235  0.00  0.00    +0.151 C 
BRANCH  21  23
ATOM      6  O   UNL     1       2.261   2.875  27.853  0.00  0.00    -0.467 OA
ATOM     23  C   UNL     1       0.940   2.624  27.655  0.00  0.00    +0.115 A 
ATOM     26  C   UNL     1       0.314   2.358  28.851  0.00  0.00    +0.045 A 
ATOM     30  C   UNL     1       1.315   2.452  29.847  0.00  0.00    +0.041 A 
ATOM     31  C   UNL     1       2.480   2.768  29.190  0.00  0.00    +0.195 A 
ENDBRANCH  21  23
ENDBRANCH   1  21
ENDBRANCH  19   1
ENDBRANCH  15   8
BRANCH  16   4
ATOM      4  O   UNL     1      -4.512  -0.820  24.617  0.00  0.00    -0.442 OA
BRANCH   4  20
ATOM      5  O   UNL     1      -3.082  -2.489  23.984  0.00  0.00    -0.226 OA
ATOM     12  N   UNL     1      -2.333  -0.303  24.356  0.00  0.00    -0.251 N 
ATOM     20  C   UNL     1      -3.268  -1.316  24.286  0.00  0.00    +0.405 C 
ATOM     34  H   UNL     1      -2.682   0.613  24.626  0.00  0.00    +0.158 HD
BRANCH  12  22
ATOM     22  C   UNL     1      -0.946  -0.379  24.096  0.00  0.00    +0.036 A 
ATOM     24  C   UNL     1      -0.349   0.529  23.220  0.00  0.00    +0.024 A 
ATOM     25  C   UNL     1      -0.173  -1.361  24.715  0.00  0.00    +0.024 A 
ATOM     27  C   UNL     1       1.020   0.453  22.963  0.00  0.00    +0.013 A 
ATOM     28  C   UNL     1       1.196  -1.436  24.458  0.00  0.00    +0.013 A 
ATOM     29  C   UNL     1       1.792  -0.530  23.584  0.00  0.00    +0.017 A 
BRANCH  29  32
ATOM      7  O   UNL     1       3.894  -1.598  23.661  0.00  0.00    -0.292 OA
ATOM     32  C   UNL     1       3.219  -0.607  23.316  0.00  0.00    +0.160 C 
ATOM     33  C   UNL     1       3.931   0.535  22.598  0.00  0.00    +0.091 C 
ENDBRANCH  29  32
ENDBRANCH  12  22
ENDBRANCH   4  20
ENDBRANCH  16   4
TORSDOF 8
ENDMDL
MODEL 4
REMARK VINA RESULT:       3.8      2.103      2.598
REMARK  Name = 11911833
REMARK  9 active torsions:
REMARK  status: ('A' for Active; 'I' for Inactive)
REMARK    1  A    between atoms: S_1  and  C_19
REMARK    2  A    between atoms: S_1  and  C_21
REMARK    3  A    between atoms: O_4  and  C_16
REMARK    4  A    between atoms: O_4  and  C_20
REMARK    5  A    between atoms: N_8  and  C_15
REMARK    6  A    between atoms: N_12  and  C_22
REMARK    7  A    between atoms: C_21  and  C_23
REMARK    8  A    between atoms: C_29  and  C_32
REMARK    9  A    between atoms: C_32  and  C_33
REMARK                            x       y       z     vdW  Elec       q    Type
REMARK                         _______ _______ _______ _____ _____    ______ ____
ROOT
ATOM      2  O   UNL     1      -1.809   0.482  23.532  0.00  0.00    -0.368 OA
ATOM      3  O   UNL     1      -4.749  -0.082  24.303  0.00  0.00    -0.368 OA
ATOM     13  C   UNL     1      -3.745   0.786  24.876  0.00  0.00    +0.177 C 
ATOM     14  C   UNL     1      -2.420   0.058  24.761  0.00  0.00    +0.192 C 
ATOM     15  C   UNL     1      -3.581   2.015  24.003  0.00  0.00    +0.168 C 
ATOM     16  C   UNL     1      -2.841  -1.391  24.705  0.00  0.00    +0.235 C 
ATOM     17  C   UNL     1      -2.572   1.552  22.957  0.00  0.00    +0.190 C 
ATOM     18  C   UNL     1      -4.130  -1.318  23.919  0.00  0.00    +0.207 C 
ENDROOT
BRANCH  15   8
ATOM      8  N   UNL     1      -3.190   3.199  24.771  0.00  0.00    -0.212 N 
ATOM      9  N   UNL     1      -3.863   4.349  24.633  0.00  0.00    -0.043 NA
ATOM     10  N   UNL     1      -2.210   4.598  26.108  0.00  0.00    -0.101 NA
ATOM     11  N   UNL     1      -3.261   5.202  25.454  0.00  0.00    -0.022 NA
ATOM     19  C   UNL     1      -2.185   3.360  25.672  0.00  0.00    +0.210 A 
BRANCH  19   1
ATOM      1  S   UNL     1      -1.094   2.111  26.124  0.00  0.00    -0.077 S 
BRANCH   1  21
ATOM     21  C   UNL     1       0.444   3.045  26.381  0.00  0.00    +0.151 C 
BRANCH  21  23
ATOM      6  O   UNL     1       2.326   3.093  27.918  0.00  0.00    -0.467 OA
ATOM     23  C   UNL     1       1.013   2.792  27.748  0.00  0.00    +0.115 A 
ATOM     26  C   UNL     1       0.473   2.303  28.915  0.00  0.00    +0.045 A 
ATOM     30  C   UNL     1       1.524   2.304  29.863  0.00  0.00    +0.041 A 
ATOM     31  C   UNL     1       2.630   2.792  29.208  0.00  0.00    +0.195 A 
ENDBRANCH  21  23
ENDBRANCH   1  21
ENDBRANCH  19   1
ENDBRANCH  15   8
BRANCH  16   4
ATOM      4  O   UNL     1      -1.891  -2.230  24.088  0.00  0.00    -0.442 OA
BRANCH   4  20
ATOM      5  O   UNL     1      -0.095  -2.511  25.476  0.00  0.00    -0.226 OA
ATOM     12  N   UNL     1       0.069  -1.291  23.486  0.00  0.00    -0.251 N 
ATOM     20  C   UNL     1      -0.571  -2.048  24.447  0.00  0.00    +0.405 C 
ATOM     34  H   UNL     1      -0.498  -0.995  22.695  0.00  0.00    +0.158 HD
BRANCH  12  22
ATOM     22  C   UNL     1       1.419  -0.874  23.462  0.00  0.00    +0.036 A 
ATOM     24  C   UNL     1       2.427  -1.749  23.868  0.00  0.00    +0.024 A 
ATOM     25  C   UNL     1       1.745   0.413  23.032  0.00  0.00    +0.024 A 
ATOM     27  C   UNL     1       3.760  -1.338  23.846  0.00  0.00    +0.013 A 
ATOM     28  C   UNL     1       3.078   0.824  23.010  0.00  0.00    +0.013 A 
ATOM     29  C   UNL     1       4.084  -0.051  23.416  0.00  0.00    +0.017 A 
BRANCH  29  32
ATOM      7  O   UNL     1       5.821   1.488  23.842  0.00  0.00    -0.292 OA
ATOM     32  C   UNL     1       5.474   0.377  23.392  0.00  0.00    +0.160 C 
ATOM     33  C   UNL     1       6.550  -0.533  22.809  0.00  0.00    +0.091 C 
ENDBRANCH  29  32
ENDBRANCH  12  22
ENDBRANCH   4  20
ENDBRANCH  16   4
TORSDOF 8
ENDMDL
MODEL 5
REMARK VINA RESULT:       4.5      2.470      3.561
REMARK  Name = 11911833
REMARK  9 active torsions:
REMARK  status: ('A' for Active; 'I' for Inactive)
REMARK    1  A    between atoms: S_1  and  C_19
REMARK    2  A    between atoms: S_1  and  C_21
REMARK    3  A    between atoms: O_4  and  C_16
REMARK    4  A    between atoms: O_4  and  C_20
REMARK    5  A    between atoms: N_8  and  C_15
REMARK    6  A    between atoms: N_12  and  C_22
REMARK    7  A    between atoms: C_21  and  C_23
REMARK    8  A    between atoms: C_29  and  C_32
REMARK    9  A    between atoms: C_32  and  C_33
REMARK                            x       y       z     vdW  Elec       q    Type
REMARK                         _______ _______ _______ _____ _____    ______ ____
ROOT
ATOM      2  O   UNL     1      -1.018   0.679  23.459  0.00  0.00    -0.368 OA
ATOM      3  O   UNL     1      -3.726   0.703  24.949  0.00  0.00    -0.368 OA
ATOM     13  C   UNL     1      -2.530   1.501  25.097  0.00  0.00    +0.177 C 
ATOM     14  C   UNL     1      -1.354   0.576  24.852  0.00  0.00    +0.192 C 
ATOM     15  C   UNL     1      -2.457   2.517  23.973  0.00  0.00    +0.168 C 
ATOM     16  C   UNL     1      -1.922  -0.781  25.191  0.00  0.00    +0.235 C 
ATOM     17  C   UNL     1      -1.783   1.730  22.853  0.00  0.00    +0.190 C 
ATOM     18  C   UNL     1      -3.348  -0.659  24.706  0.00  0.00    +0.207 C 
ENDROOT
BRANCH  15   8
ATOM      8  N   UNL     1      -1.773   3.747  24.374  0.00  0.00    -0.212 N 
ATOM      9  N   UNL     1      -0.706   4.184  23.691  0.00  0.00    -0.043 NA
ATOM     10  N   UNL     1      -1.160   5.572  25.375  0.00  0.00    -0.101 NA
ATOM     11  N   UNL     1      -0.335   5.300  24.307  0.00  0.00    -0.022 NA
ATOM     19  C   UNL     1      -2.042   4.599  25.399  0.00  0.00    +0.210 A 
BRANCH  19   1
ATOM      1  S   UNL     1      -3.339   4.386  26.507  0.00  0.00    -0.077 S 
BRANCH   1  21
ATOM     21  C   UNL     1      -4.779   4.444  25.398  0.00  0.00    +0.151 C 
BRANCH  21  23
ATOM      6  O   UNL     1      -5.829   2.704  26.730  0.00  0.00    -0.467 OA
ATOM     23  C   UNL     1      -5.581   3.178  25.482  0.00  0.00    +0.115 A 
ATOM     26  C   UNL     1      -6.145   2.357  24.532  0.00  0.00    +0.045 A 
ATOM     30  C   UNL     1      -6.779   1.312  25.243  0.00  0.00    +0.041 A 
ATOM     31  C   UNL     1      -6.559   1.567  26.577  0.00  0.00    +0.195 A 
ENDBRANCH  21  23
ENDBRANCH   1  21
ENDBRANCH  19   1
ENDBRANCH  15   8
BRANCH  16   4
ATOM      4  O   UNL     1      -1.240  -1.848  24.571  0.00  0.00    -0.442 OA
BRANCH   4  20
ATOM      5  O   UNL     1       0.678  -2.601  25.563  0.00  0.00    -0.226 OA
ATOM     12  N   UNL     1       0.726  -1.028  23.830  0.00  0.00    -0.251 N 
ATOM     20  C   UNL     1       0.130  -1.889  24.731  0.00  0.00    +0.405 C 
ATOM     34  H   UNL     1       0.099  -0.518  23.213  0.00  0.00    +0.158 HD
BRANCH  12  22
ATOM     22  C   UNL     1       2.104  -0.768  23.656  0.00  0.00    +0.036 A 
ATOM     24  C   UNL     1       3.046  -1.743  23.986  0.00  0.00    +0.024 A 
ATOM     25  C   UNL     1       2.524   0.465  23.154  0.00  0.00    +0.024 A 
ATOM     27  C   UNL     1       4.406  -1.485  23.815  0.00  0.00    +0.013 A 
ATOM     28  C   UNL     1       3.884   0.722  22.984  0.00  0.00    +0.013 A 
ATOM     29  C   UNL     1       4.824  -0.252  23.313  0.00  0.00    +0.017 A 
BRANCH  29  32
ATOM      7  O   UNL     1       6.924  -0.616  22.302  0.00  0.00    -0.292 OA
ATOM     32  C   UNL     1       6.242   0.015  23.135  0.00  0.00    +0.160 C 
ATOM     33  C   UNL     1       6.935   1.085  23.972  0.00  0.00    +0.091 C 
ENDBRANCH  29  32
ENDBRANCH  12  22
ENDBRANCH   4  20
ENDBRANCH  16   4
TORSDOF 8
ENDMDL
MODEL 6
REMARK VINA RESULT:       4.5      2.234      4.069
REMARK  Name = 11911833
REMARK  9 active torsions:
REMARK  status: ('A' for Active; 'I' for Inactive)
REMARK    1  A    between atoms: S_1  and  C_19
REMARK    2  A    between atoms: S_1  and  C_21
REMARK    3  A    between atoms: O_4  and  C_16
REMARK    4  A    between atoms: O_4  and  C_20
REMARK    5  A    between atoms: N_8  and  C_15
REMARK    6  A    between atoms: N_12  and  C_22
REMARK    7  A    between atoms: C_21  and  C_23
REMARK    8  A    between atoms: C_29  and  C_32
REMARK    9  A    between atoms: C_32  and  C_33
REMARK                            x       y       z     vdW  Elec       q    Type
REMARK                         _______ _______ _______ _____ _____    ______ ____
ROOT
ATOM      2  O   UNL     1      -1.728   3.021  24.917  0.00  0.00    -0.368 OA
ATOM      3  O   UNL     1      -2.839   2.050  22.201  0.00  0.00    -0.368 OA
ATOM     13  C   UNL     1      -3.249   1.797  23.563  0.00  0.00    +0.177 C 
ATOM     14  C   UNL     1      -1.983   1.709  24.393  0.00  0.00    +0.192 C 
ATOM     15  C   UNL     1      -3.976   3.012  24.107  0.00  0.00    +0.168 C 
ATOM     16  C   UNL     1      -0.946   1.303  23.373  0.00  0.00    +0.235 C 
ATOM     17  C   UNL     1      -2.835   3.884  24.621  0.00  0.00    +0.190 C 
ATOM     18  C   UNL     1      -1.405   2.045  22.140  0.00  0.00    +0.207 C 
ENDROOT
BRANCH  15   8
ATOM      8  N   UNL     1      -4.993   2.659  25.100  0.00  0.00    -0.212 N 
ATOM      9  N   UNL     1      -5.572   3.610  25.845  0.00  0.00    -0.043 NA
ATOM     10  N   UNL     1      -6.391   1.608  26.382  0.00  0.00    -0.101 NA
ATOM     11  N   UNL     1      -6.427   2.962  26.627  0.00  0.00    -0.022 NA
ATOM     19  C   UNL     1      -5.498   1.442  25.434  0.00  0.00    +0.210 A 
BRANCH  19   1
ATOM      1  S   UNL     1      -5.010  -0.033  24.699  0.00  0.00    -0.077 S 
BRANCH   1  21
ATOM     21  C   UNL     1      -4.003  -0.780  26.014  0.00  0.00    +0.151 C 
BRANCH  21  23
ATOM      6  O   UNL     1      -1.584  -1.021  26.015  0.00  0.00    -0.467 OA
ATOM     23  C   UNL     1      -2.759  -1.411  25.457  0.00  0.00    +0.115 A 
ATOM     26  C   UNL     1      -2.539  -2.336  24.463  0.00  0.00    +0.045 A 
ATOM     30  C   UNL     1      -1.137  -2.526  24.408  0.00  0.00    +0.041 A 
ATOM     31  C   UNL     1      -0.602  -1.704  25.371  0.00  0.00    +0.195 A 
ENDBRANCH  21  23
ENDBRANCH   1  21
ENDBRANCH  19   1
ENDBRANCH  15   8
BRANCH  16   4
ATOM      4  O   UNL     1       0.371   1.649  23.741  0.00  0.00    -0.442 OA
BRANCH   4  20
ATOM      5  O   UNL     1       1.152  -0.289  22.810  0.00  0.00    -0.226 OA
ATOM     12  N   UNL     1       2.604   1.355  23.628  0.00  0.00    -0.251 N 
ATOM     20  C   UNL     1       1.376   0.794  23.339  0.00  0.00    +0.405 C 
ATOM     34  H   UNL     1       2.587   2.270  24.072  0.00  0.00    +0.158 HD
BRANCH  12  22
ATOM     22  C   UNL     1       3.887   0.816  23.383  0.00  0.00    +0.036 A 
ATOM     24  C   UNL     1       4.775   0.618  24.441  0.00  0.00    +0.024 A 
ATOM     25  C   UNL     1       4.267   0.483  22.082  0.00  0.00    +0.024 A 
ATOM     27  C   UNL     1       6.042   0.086  24.198  0.00  0.00    +0.013 A 
ATOM     28  C   UNL     1       5.534  -0.049  21.841  0.00  0.00    +0.013 A 
ATOM     29  C   UNL     1       6.420  -0.247  22.897  0.00  0.00    +0.017 A 
BRANCH  29  32
ATOM      7  O   UNL     1       7.893  -1.842  21.975  0.00  0.00    -0.292 OA
ATOM     32  C   UNL     1       7.741  -0.801  22.646  0.00  0.00    +0.160 C 
ATOM     33  C   UNL     1       8.983  -0.114  23.203  0.00  0.00    +0.091 C 
ENDBRANCH  29  32
ENDBRANCH  12  22
ENDBRANCH   4  20
ENDBRANCH  16   4
TORSDOF 8
ENDMDL
MODEL 7
REMARK VINA RESULT:       4.8      2.534      5.686
REMARK  Name = 11911833
REMARK  9 active torsions:
REMARK  status: ('A' for Active; 'I' for Inactive)
REMARK    1  A    between atoms: S_1  and  C_19
REMARK    2  A    between atoms: S_1  and  C_21
REMARK    3  A    between atoms: O_4  and  C_16
REMARK    4  A    between atoms: O_4  and  C_20
REMARK    5  A    between atoms: N_8  and  C_15
REMARK    6  A    between atoms: N_12  and  C_22
REMARK    7  A    between atoms: C_21  and  C_23
REMARK    8  A    between atoms: C_29  and  C_32
REMARK    9  A    between atoms: C_32  and  C_33
REMARK                            x       y       z     vdW  Elec       q    Type
REMARK                         _______ _______ _______ _____ _____    ______ ____
ROOT
ATOM      2  O   UNL     1      -2.666   1.332  24.952  0.00  0.00    -0.368 OA
ATOM      3  O   UNL     1      -5.704   0.766  25.052  0.00  0.00    -0.368 OA
ATOM     13  C   UNL     1      -4.624   0.141  24.322  0.00  0.00    +0.177 C 
ATOM     14  C   UNL     1      -3.667   1.248  23.925  0.00  0.00    +0.192 C 
ATOM     15  C   UNL     1      -3.820  -0.738  25.261  0.00  0.00    +0.168 C 
ATOM     16  C   UNL     1      -4.557   2.468  23.911  0.00  0.00    +0.235 C 
ATOM     17  C   UNL     1      -2.827   0.245  25.873  0.00  0.00    +0.190 C 
ATOM     18  C   UNL     1      -5.501   2.186  25.056  0.00  0.00    +0.207 C 
ENDROOT
BRANCH  15   8
ATOM      8  N   UNL     1      -3.224  -1.888  24.578  0.00  0.00    -0.212 N 
ATOM      9  N   UNL     1      -3.997  -2.893  24.142  0.00  0.00    -0.043 NA
ATOM     10  N   UNL     1      -1.859  -3.303  23.662  0.00  0.00    -0.101 NA
ATOM     11  N   UNL     1      -3.157  -3.755  23.583  0.00  0.00    -0.022 NA
ATOM     19  C   UNL     1      -1.923  -2.147  24.281  0.00  0.00    +0.210 A 
BRANCH  19   1
ATOM      1  S   UNL     1      -0.623  -1.094  24.674  0.00  0.00    -0.077 S 
BRANCH   1  21
ATOM     21  C   UNL     1      -0.386  -0.205  23.107  0.00  0.00    +0.151 C 
BRANCH  21  23
ATOM      6  O   UNL     1       1.604  -0.392  21.724  0.00  0.00    -0.467 OA
ATOM     23  C   UNL     1       1.064   0.102  22.868  0.00  0.00    +0.115 A 
ATOM     26  C   UNL     1       2.006   0.805  23.583  0.00  0.00    +0.045 A 
ATOM     30  C   UNL     1       3.202   0.737  22.829  0.00  0.00    +0.041 A 
ATOM     31  C   UNL     1       2.905  -0.002  21.708  0.00  0.00    +0.195 A 
ENDBRANCH  21  23
ENDBRANCH   1  21
ENDBRANCH  19   1
ENDBRANCH  15   8
BRANCH  16   4
ATOM      4  O   UNL     1      -3.856   3.679  24.085  0.00  0.00    -0.442 OA
BRANCH   4  20
ATOM      5  O   UNL     1      -3.544   4.473  26.207  0.00  0.00    -0.226 OA
ATOM     12  N   UNL     1      -1.946   3.129  25.150  0.00  0.00    -0.251 N 
ATOM     20  C   UNL     1      -3.137   3.820  25.254  0.00  0.00    +0.405 C 
ATOM     34  H   UNL     1      -1.783   2.642  24.272  0.00  0.00    +0.158 HD
BRANCH  12  22
ATOM     22  C   UNL     1      -0.920   3.012  26.116  0.00  0.00    +0.036 A 
ATOM     24  C   UNL     1      -1.239   2.987  27.473  0.00  0.00    +0.024 A 
ATOM     25  C   UNL     1       0.412   2.922  25.711  0.00  0.00    +0.024 A 
ATOM     27  C   UNL     1      -0.226   2.872  28.426  0.00  0.00    +0.013 A 
ATOM     28  C   UNL     1       1.424   2.807  26.664  0.00  0.00    +0.013 A 
ATOM     29  C   UNL     1       1.105   2.782  28.020  0.00  0.00    +0.017 A 
BRANCH  29  32
ATOM      7  O   UNL     1       3.293   3.147  28.823  0.00  0.00    -0.292 OA
ATOM     32  C   UNL     1       2.160   2.662  29.014  0.00  0.00    +0.160 C 
ATOM     33  C   UNL     1       1.900   1.931  30.327  0.00  0.00    +0.091 C 
ENDBRANCH  29  32
ENDBRANCH  12  22
ENDBRANCH   4  20
ENDBRANCH  16   4
TORSDOF 8
ENDMDL
