MODEL 1
REMARK VINA RESULT:      -1.1      0.000      0.000
REMARK  Name = 38027120
REMARK  14 active torsions:
REMARK  status: ('A' for Active; 'I' for Inactive)
REMARK    1  A    between atoms: O_4  and  C_24
REMARK    2  A    between atoms: O_4  and  C_29
REMARK    3  A    between atoms: N_5  and  C_15
REMARK    4  A    between atoms: N_6  and  C_22
REMARK    5  A    between atoms: N_7  and  C_23
REMARK    6  A    between atoms: C_8  and  C_12
REMARK    7  A    between atoms: C_9  and  C_15
REMARK    8  A    between atoms: C_11  and  C_16
REMARK    9  A    between atoms: C_12  and  C_17
REMARK   10  A    between atoms: C_12  and  C_18
REMARK   11  A    between atoms: C_13  and  C_19
REMARK   12  A    between atoms: C_16  and  C_20
REMARK   13  A    between atoms: C_21  and  C_24
REMARK   14  A    between atoms: C_22  and  C_23
REMARK                            x       y       z     vdW  Elec       q    Type
REMARK                         _______ _______ _______ _____ _____    ______ ____
ROOT
ATOM      8  C   UNL     1      -2.226   3.609  24.912  0.00  0.00    +0.000 C 
ATOM      9  C   UNL     1      -3.293   4.013  23.864  0.00  0.00    +0.032 C 
ATOM     10  C   UNL     1      -0.930   3.168  24.215  0.00  0.00    +0.012 C 
ATOM     11  C   UNL     1      -1.156   1.978  23.264  0.00  0.00    +0.023 C 
ATOM     13  C   UNL     1      -2.364   2.188  22.375  0.00  0.00    -0.073 C 
ATOM     14  C   UNL     1      -3.302   3.112  22.651  0.00  0.00    -0.022 C 
ATOM     19  C   UNL     1      -2.447   1.344  21.133  0.00  0.00    +0.039 C 
ENDROOT
BRANCH   8  12
ATOM     12  C   UNL     1      -1.927   4.750  25.889  0.00  0.00    -0.013 C 
ATOM     17  C   UNL     1      -1.679   6.049  25.129  0.00  0.00    +0.007 C 
ATOM     18  C   UNL     1      -3.074   4.916  26.881  0.00  0.00    +0.007 C 
ENDBRANCH   8  12
BRANCH   9  15
ATOM     15  C   UNL     1      -4.694   4.047  24.485  0.00  0.00    +0.112 C 
BRANCH  15   5
ATOM      2  O   UNL     1      -5.783   2.740  26.824  0.00  0.00    -0.272 OA
ATOM      5  N   UNL     1      -5.248   2.731  24.559  0.00  0.00    -0.312 N 
ATOM     21  C   UNL     1      -5.753   2.176  25.734  0.00  0.00    +0.251 C 
ATOM     35  H   UNL     1      -5.327   2.195  23.700  0.00  0.00    +0.149 HD
BRANCH  21  24
ATOM     24  C   UNL     1      -6.278   0.772  25.524  0.00  0.00    +0.324 C 
BRANCH  24   4
ATOM      4  O   UNL     1      -5.643   0.163  24.419  0.00  0.00    -0.483 OA
BRANCH   4  29
ATOM     29  C   UNL     1      -4.652  -0.751  24.689  0.00  0.00    +0.121 A 
ATOM     30  C   UNL     1      -3.911  -0.649  25.866  0.00  0.00    +0.045 A 
ATOM     31  C   UNL     1      -4.388  -1.780  23.786  0.00  0.00    +0.045 A 
ATOM     32  C   UNL     1      -2.905  -1.575  26.140  0.00  0.00    +0.004 A 
ATOM     33  C   UNL     1      -3.383  -2.708  24.060  0.00  0.00    +0.004 A 
ATOM     34  C   UNL     1      -2.641  -2.605  25.237  0.00  0.00    +0.000 A 
ENDBRANCH   4  29
ENDBRANCH  24   4
ENDBRANCH  21  24
ENDBRANCH  15   5
ENDBRANCH   9  15
BRANCH  11  16
ATOM     16  C   UNL     1      -1.271   0.663  24.043  0.00  0.00    +0.103 C 
BRANCH  16  20
ATOM      1  O   UNL     1       0.162  -1.243  24.453  0.00  0.00    -0.276 OA
ATOM      6  N   UNL     1       0.571   0.122  22.617  0.00  0.00    -0.314 N 
ATOM     20  C   UNL     1      -0.116  -0.271  23.756  0.00  0.00    +0.214 C 
ATOM     36  H   UNL     1       0.254   0.938  22.101  0.00  0.00    +0.149 HD
BRANCH   6  22
ATOM     22  C   UNL     1       1.721  -0.586  22.106  0.00  0.00    +0.119 C 
BRANCH  22  23
ATOM     23  C   UNL     1       2.877   0.366  21.830  0.00  0.00    +0.103 C 
BRANCH  23   7
ATOM      3  O   UNL     1       5.660  -0.576  24.827  0.00  0.00    -0.377 OA
ATOM      7  N   UNL     1       4.088  -0.100  22.502  0.00  0.00    -0.297 NA
ATOM     25  C   UNL     1       3.782  -1.202  23.425  0.00  0.00    +0.112 C 
ATOM     26  C   UNL     1       4.736   1.000  23.229  0.00  0.00    +0.112 C 
ATOM     27  C   UNL     1       5.058  -1.663  24.123  0.00  0.00    +0.175 C 
ATOM     28  C   UNL     1       5.990   0.487  23.932  0.00  0.00    +0.175 C 
ENDBRANCH  23   7
ENDBRANCH  22  23
ENDBRANCH   6  22
ENDBRANCH  16  20
ENDBRANCH  11  16
TORSDOF 11
ENDMDL
MODEL 2
REMARK VINA RESULT:      -1.0      1.391      3.995
REMARK  Name = 38027120
REMARK  14 active torsions:
REMARK  status: ('A' for Active; 'I' for Inactive)
REMARK    1  A    between atoms: O_4  and  C_24
REMARK    2  A    between atoms: O_4  and  C_29
REMARK    3  A    between atoms: N_5  and  C_15
REMARK    4  A    between atoms: N_6  and  C_22
REMARK    5  A    between atoms: N_7  and  C_23
REMARK    6  A    between atoms: C_8  and  C_12
REMARK    7  A    between atoms: C_9  and  C_15
REMARK    8  A    between atoms: C_11  and  C_16
REMARK    9  A    between atoms: C_12  and  C_17
REMARK   10  A    between atoms: C_12  and  C_18
REMARK   11  A    between atoms: C_13  and  C_19
REMARK   12  A    between atoms: C_16  and  C_20
REMARK   13  A    between atoms: C_21  and  C_24
REMARK   14  A    between atoms: C_22  and  C_23
REMARK                            x       y       z     vdW  Elec       q    Type
REMARK                         _______ _______ _______ _____ _____    ______ ____
ROOT
ATOM      8  C   UNL     1      -3.221   0.821  24.052  0.00  0.00    +0.000 C 
ATOM      9  C   UNL     1      -4.709   0.412  24.197  0.00  0.00    +0.032 C 
ATOM     10  C   UNL     1      -2.473  -0.184  23.163  0.00  0.00    +0.012 C 
ATOM     11  C   UNL     1      -2.533  -1.616  23.726  0.00  0.00    +0.023 C 
ATOM     13  C   UNL     1      -3.938  -1.999  24.145  0.00  0.00    -0.073 C 
ATOM     14  C   UNL     1      -4.901  -1.080  24.337  0.00  0.00    -0.022 C 
ATOM     19  C   UNL     1      -4.225  -3.468  24.293  0.00  0.00    +0.039 C 
ENDROOT
BRANCH   8  12
ATOM     12  C   UNL     1      -3.073   2.232  23.476  0.00  0.00    -0.013 C 
ATOM     17  C   UNL     1      -1.915   2.285  22.486  0.00  0.00    +0.007 C 
ATOM     18  C   UNL     1      -4.373   2.676  22.812  0.00  0.00    +0.007 C 
ENDBRANCH   8  12
BRANCH   9  15
ATOM     15  C   UNL     1      -5.365   1.125  25.383  0.00  0.00    +0.112 C 
BRANCH  15   5
ATOM      2  O   UNL     1      -6.542   3.740  25.765  0.00  0.00    -0.272 OA
ATOM      5  N   UNL     1      -4.682   2.344  25.686  0.00  0.00    -0.312 N 
ATOM     21  C   UNL     1      -5.329   3.567  25.853  0.00  0.00    +0.251 C 
ATOM     35  H   UNL     1      -3.678   2.305  25.838  0.00  0.00    +0.149 HD
BRANCH  21  24
ATOM     24  C   UNL     1      -4.363   4.689  26.167  0.00  0.00    +0.324 C 
BRANCH  24   4
ATOM      4  O   UNL     1      -3.207   4.187  26.804  0.00  0.00    -0.483 OA
BRANCH   4  29
ATOM     29  C   UNL     1      -2.050   4.142  26.061  0.00  0.00    +0.121 A 
ATOM     30  C   UNL     1      -1.169   3.070  26.208  0.00  0.00    +0.045 A 
ATOM     31  C   UNL     1      -1.757   5.166  25.162  0.00  0.00    +0.045 A 
ATOM     32  C   UNL     1       0.004   3.023  25.455  0.00  0.00    +0.004 A 
ATOM     33  C   UNL     1      -0.585   5.120  24.408  0.00  0.00    +0.004 A 
ATOM     34  C   UNL     1       0.296   4.048  24.555  0.00  0.00    +0.000 A 
ENDBRANCH   4  29
ENDBRANCH  24   4
ENDBRANCH  21  24
ENDBRANCH  15   5
ENDBRANCH   9  15
BRANCH  11  16
ATOM     16  C   UNL     1      -1.547  -1.796  24.885  0.00  0.00    +0.103 C 
BRANCH  16  20
ATOM      1  O   UNL     1      -0.396   0.073  25.902  0.00  0.00    -0.276 OA
ATOM      6  N   UNL     1       0.224  -0.633  23.777  0.00  0.00    -0.314 N 
ATOM     20  C   UNL     1      -0.527  -0.681  24.942  0.00  0.00    +0.214 C 
ATOM     36  H   UNL     1       0.046  -1.312  23.042  0.00  0.00    +0.149 HD
BRANCH   6  22
ATOM     22  C   UNL     1       1.272   0.334  23.553  0.00  0.00    +0.119 C 
BRANCH  22  23
ATOM     23  C   UNL     1       2.056   0.016  22.287  0.00  0.00    +0.103 C 
BRANCH  23   7
ATOM      3  O   UNL     1       5.638  -0.439  24.425  0.00  0.00    -0.377 OA
ATOM      7  N   UNL     1       3.447  -0.291  22.615  0.00  0.00    -0.297 NA
ATOM     25  C   UNL     1       3.521  -1.333  23.647  0.00  0.00    +0.112 C 
ATOM     26  C   UNL     1       4.154   0.916  23.065  0.00  0.00    +0.112 C 
ATOM     27  C   UNL     1       4.980  -1.627  23.983  0.00  0.00    +0.175 C 
ATOM     28  C   UNL     1       5.599   0.569  23.414  0.00  0.00    +0.175 C 
ENDBRANCH  23   7
ENDBRANCH  22  23
ENDBRANCH   6  22
ENDBRANCH  16  20
ENDBRANCH  11  16
TORSDOF 11
ENDMDL
MODEL 3
REMARK VINA RESULT:       0.0      1.381      4.557
REMARK  Name = 38027120
REMARK  14 active torsions:
REMARK  status: ('A' for Active; 'I' for Inactive)
REMARK    1  A    between atoms: O_4  and  C_24
REMARK    2  A    between atoms: O_4  and  C_29
REMARK    3  A    between atoms: N_5  and  C_15
REMARK    4  A    between atoms: N_6  and  C_22
REMARK    5  A    between atoms: N_7  and  C_23
REMARK    6  A    between atoms: C_8  and  C_12
REMARK    7  A    between atoms: C_9  and  C_15
REMARK    8  A    between atoms: C_11  and  C_16
REMARK    9  A    between atoms: C_12  and  C_17
REMARK   10  A    between atoms: C_12  and  C_18
REMARK   11  A    between atoms: C_13  and  C_19
REMARK   12  A    between atoms: C_16  and  C_20
REMARK   13  A    between atoms: C_21  and  C_24
REMARK   14  A    between atoms: C_22  and  C_23
REMARK                            x       y       z     vdW  Elec       q    Type
REMARK                         _______ _______ _______ _____ _____    ______ ____
ROOT
ATOM      8  C   UNL     1      -2.841  -1.594  24.452  0.00  0.00    +0.000 C 
ATOM      9  C   UNL     1      -3.333  -0.873  25.731  0.00  0.00    +0.032 C 
ATOM     10  C   UNL     1      -1.316  -1.782  24.494  0.00  0.00    +0.012 C 
ATOM     11  C   UNL     1      -0.568  -0.441  24.617  0.00  0.00    +0.023 C 
ATOM     13  C   UNL     1      -1.171   0.444  25.689  0.00  0.00    -0.073 C 
ATOM     14  C   UNL     1      -2.402   0.228  26.184  0.00  0.00    -0.022 C 
ATOM     19  C   UNL     1      -0.307   1.558  26.213  0.00  0.00    +0.039 C 
ENDROOT
BRANCH   8  12
ATOM     12  C   UNL     1      -3.525  -2.952  24.265  0.00  0.00    -0.013 C 
ATOM     17  C   UNL     1      -4.816  -2.792  23.469  0.00  0.00    +0.007 C 
ATOM     18  C   UNL     1      -2.583  -3.933  23.575  0.00  0.00    +0.007 C 
ENDBRANCH   8  12
BRANCH   9  15
ATOM     15  C   UNL     1      -4.742  -0.303  25.538  0.00  0.00    +0.112 C 
BRANCH  15   5
ATOM      2  O   UNL     1      -6.618   1.716  26.416  0.00  0.00    -0.272 OA
ATOM      5  N   UNL     1      -4.690   1.100  25.268  0.00  0.00    -0.312 N 
ATOM     21  C   UNL     1      -5.641   2.008  25.732  0.00  0.00    +0.251 C 
ATOM     35  H   UNL     1      -3.889   1.460  24.756  0.00  0.00    +0.149 HD
BRANCH  21  24
ATOM     24  C   UNL     1      -5.339   3.426  25.298  0.00  0.00    +0.324 C 
BRANCH  24   4
ATOM      4  O   UNL     1      -4.204   3.923  25.975  0.00  0.00    -0.483 OA
BRANCH   4  29
ATOM     29  C   UNL     1      -3.032   4.004  25.261  0.00  0.00    +0.121 A 
ATOM     30  C   UNL     1      -2.020   4.869  25.676  0.00  0.00    +0.045 A 
ATOM     31  C   UNL     1      -2.854   3.221  24.120  0.00  0.00    +0.045 A 
ATOM     32  C   UNL     1      -0.831   4.952  24.953  0.00  0.00    +0.004 A 
ATOM     33  C   UNL     1      -1.665   3.302  23.397  0.00  0.00    +0.004 A 
ATOM     34  C   UNL     1      -0.653   4.168  23.812  0.00  0.00    +0.000 A 
ENDBRANCH   4  29
ENDBRANCH  24   4
ENDBRANCH  21  24
ENDBRANCH  15   5
ENDBRANCH   9  15
BRANCH  11  16
ATOM     16  C   UNL     1      -0.515   0.287  23.270  0.00  0.00    +0.103 C 
BRANCH  16  20
ATOM      1  O   UNL     1       1.339  -0.312  21.835  0.00  0.00    -0.276 OA
ATOM      6  N   UNL     1       1.607   1.382  23.403  0.00  0.00    -0.314 N 
ATOM     20  C   UNL     1       0.897   0.394  22.737  0.00  0.00    +0.214 C 
ATOM     36  H   UNL     1       1.147   1.921  24.131  0.00  0.00    +0.149 HD
BRANCH   6  22
ATOM     22  C   UNL     1       2.983   1.703  23.102  0.00  0.00    +0.119 C 
BRANCH  22  23
ATOM     23  C   UNL     1       3.553   0.758  22.054  0.00  0.00    +0.103 C 
BRANCH  23   7
ATOM      3  O   UNL     1       5.961  -1.216  24.869  0.00  0.00    -0.377 OA
ATOM      7  N   UNL     1       4.589  -0.088  22.644  0.00  0.00    -0.297 NA
ATOM     25  C   UNL     1       3.990  -1.157  23.456  0.00  0.00    +0.112 C 
ATOM     26  C   UNL     1       5.509   0.711  23.465  0.00  0.00    +0.112 C 
ATOM     27  C   UNL     1       5.089  -2.018  24.071  0.00  0.00    +0.175 C 
ATOM     28  C   UNL     1       6.573  -0.194  24.080  0.00  0.00    +0.175 C 
ENDBRANCH  23   7
ENDBRANCH  22  23
ENDBRANCH   6  22
ENDBRANCH  16  20
ENDBRANCH  11  16
TORSDOF 11
ENDMDL
MODEL 4
REMARK VINA RESULT:       0.2      1.766      3.053
REMARK  Name = 38027120
REMARK  14 active torsions:
REMARK  status: ('A' for Active; 'I' for Inactive)
REMARK    1  A    between atoms: O_4  and  C_24
REMARK    2  A    between atoms: O_4  and  C_29
REMARK    3  A    between atoms: N_5  and  C_15
REMARK    4  A    between atoms: N_6  and  C_22
REMARK    5  A    between atoms: N_7  and  C_23
REMARK    6  A    between atoms: C_8  and  C_12
REMARK    7  A    between atoms: C_9  and  C_15
REMARK    8  A    between atoms: C_11  and  C_16
REMARK    9  A    between atoms: C_12  and  C_17
REMARK   10  A    between atoms: C_12  and  C_18
REMARK   11  A    between atoms: C_13  and  C_19
REMARK   12  A    between atoms: C_16  and  C_20
REMARK   13  A    between atoms: C_21  and  C_24
REMARK   14  A    between atoms: C_22  and  C_23
REMARK                            x       y       z     vdW  Elec       q    Type
REMARK                         _______ _______ _______ _____ _____    ______ ____
ROOT
ATOM      8  C   UNL     1      -4.071   3.223  25.465  0.00  0.00    +0.000 C 
ATOM      9  C   UNL     1      -3.837   4.338  24.415  0.00  0.00    +0.032 C 
ATOM     10  C   UNL     1      -3.232   3.486  26.724  0.00  0.00    +0.012 C 
ATOM     11  C   UNL     1      -1.725   3.556  26.415  0.00  0.00    +0.023 C 
ATOM     13  C   UNL     1      -1.436   4.433  25.213  0.00  0.00    -0.073 C 
ATOM     14  C   UNL     1      -2.395   4.783  24.338  0.00  0.00    -0.022 C 
ATOM     19  C   UNL     1      -0.027   4.938  25.066  0.00  0.00    +0.039 C 
ENDROOT
BRANCH   8  12
ATOM     12  C   UNL     1      -5.550   3.101  25.844  0.00  0.00    -0.013 C 
ATOM     17  C   UNL     1      -6.275   4.419  25.590  0.00  0.00    +0.007 C 
ATOM     18  C   UNL     1      -6.207   1.965  25.066  0.00  0.00    +0.007 C 
ENDBRANCH   8  12
BRANCH   9  15
ATOM     15  C   UNL     1      -4.310   3.898  23.026  0.00  0.00    +0.112 C 
BRANCH  15   5
ATOM      2  O   UNL     1      -1.775   2.663  22.383  0.00  0.00    -0.272 OA
ATOM      5  N   UNL     1      -4.055   2.507  22.819  0.00  0.00    -0.312 N 
ATOM     21  C   UNL     1      -2.796   1.994  22.510  0.00  0.00    +0.251 C 
ATOM     35  H   UNL     1      -4.821   1.854  22.956  0.00  0.00    +0.149 HD
BRANCH  21  24
ATOM     24  C   UNL     1      -2.815   0.489  22.346  0.00  0.00    +0.324 C 
BRANCH  24   4
ATOM      4  O   UNL     1      -3.935  -0.069  23.001  0.00  0.00    -0.483 OA
BRANCH   4  29
ATOM     29  C   UNL     1      -3.688  -0.929  24.045  0.00  0.00    +0.121 A 
ATOM     30  C   UNL     1      -3.785  -2.307  23.851  0.00  0.00    +0.045 A 
ATOM     31  C   UNL     1      -3.341  -0.424  25.297  0.00  0.00    +0.045 A 
ATOM     32  C   UNL     1      -3.535  -3.180  24.910  0.00  0.00    +0.004 A 
ATOM     33  C   UNL     1      -3.090  -1.296  26.356  0.00  0.00    +0.004 A 
ATOM     34  C   UNL     1      -3.187  -2.674  26.163  0.00  0.00    +0.000 A 
ENDBRANCH   4  29
ENDBRANCH  24   4
ENDBRANCH  21  24
ENDBRANCH  15   5
ENDBRANCH   9  15
BRANCH  11  16
ATOM     16  C   UNL     1      -1.134   2.154  26.225  0.00  0.00    +0.103 C 
BRANCH  16  20
ATOM      1  O   UNL     1       1.230   2.666  26.216  0.00  0.00    -0.276 OA
ATOM      6  N   UNL     1       0.273   1.648  24.360  0.00  0.00    -0.314 N 
ATOM     20  C   UNL     1       0.256   2.198  25.633  0.00  0.00    +0.214 C 
ATOM     36  H   UNL     1      -0.587   1.277  23.967  0.00  0.00    +0.149 HD
BRANCH   6  22
ATOM     22  C   UNL     1       1.468   1.559  23.555  0.00  0.00    +0.119 C 
BRANCH  22  23
ATOM     23  C   UNL     1       1.573   0.202  22.871  0.00  0.00    +0.103 C 
BRANCH  23   7
ATOM      3  O   UNL     1       5.533  -0.614  23.999  0.00  0.00    -0.377 OA
ATOM      7  N   UNL     1       2.967  -0.236  22.825  0.00  0.00    -0.297 NA
ATOM     25  C   UNL     1       3.212  -1.298  23.810  0.00  0.00    +0.112 C 
ATOM     26  C   UNL     1       3.876   0.893  23.066  0.00  0.00    +0.112 C 
ATOM     27  C   UNL     1       4.675  -1.730  23.753  0.00  0.00    +0.175 C 
ATOM     28  C   UNL     1       5.323   0.410  23.026  0.00  0.00    +0.175 C 
ENDBRANCH  23   7
ENDBRANCH  22  23
ENDBRANCH   6  22
ENDBRANCH  16  20
ENDBRANCH  11  16
TORSDOF 11
ENDMDL
MODEL 5
REMARK VINA RESULT:       0.9      3.012      5.197
REMARK  Name = 38027120
REMARK  14 active torsions:
REMARK  status: ('A' for Active; 'I' for Inactive)
REMARK    1  A    between atoms: O_4  and  C_24
REMARK    2  A    between atoms: O_4  and  C_29
REMARK    3  A    between atoms: N_5  and  C_15
REMARK    4  A    between atoms: N_6  and  C_22
REMARK    5  A    between atoms: N_7  and  C_23
REMARK    6  A    between atoms: C_8  and  C_12
REMARK    7  A    between atoms: C_9  and  C_15
REMARK    8  A    between atoms: C_11  and  C_16
REMARK    9  A    between atoms: C_12  and  C_17
REMARK   10  A    between atoms: C_12  and  C_18
REMARK   11  A    between atoms: C_13  and  C_19
REMARK   12  A    between atoms: C_16  and  C_20
REMARK   13  A    between atoms: C_21  and  C_24
REMARK   14  A    between atoms: C_22  and  C_23
REMARK                            x       y       z     vdW  Elec       q    Type
REMARK                         _______ _______ _______ _____ _____    ______ ____
ROOT
ATOM      8  C   UNL     1      -3.585   2.309  24.154  0.00  0.00    +0.000 C 
ATOM      9  C   UNL     1      -4.332   3.457  24.877  0.00  0.00    +0.032 C 
ATOM     10  C   UNL     1      -4.544   1.145  23.861  0.00  0.00    +0.012 C 
ATOM     11  C   UNL     1      -5.182   0.581  25.144  0.00  0.00    +0.023 C 
ATOM     13  C   UNL     1      -5.708   1.681  26.044  0.00  0.00    -0.073 C 
ATOM     14  C   UNL     1      -5.327   2.962  25.901  0.00  0.00    -0.022 C 
ATOM     19  C   UNL     1      -6.718   1.281  27.084  0.00  0.00    +0.039 C 
ENDROOT
BRANCH   8  12
ATOM     12  C   UNL     1      -2.935   2.785  22.851  0.00  0.00    -0.013 C 
ATOM     17  C   UNL     1      -2.464   1.593  22.025  0.00  0.00    +0.007 C 
ATOM     18  C   UNL     1      -3.910   3.644  22.053  0.00  0.00    +0.007 C 
ENDBRANCH   8  12
BRANCH   9  15
ATOM     15  C   UNL     1      -3.347   4.422  25.547  0.00  0.00    +0.112 C 
BRANCH  15   5
ATOM      2  O   UNL     1      -0.772   5.309  24.572  0.00  0.00    -0.272 OA
ATOM      5  N   UNL     1      -2.081   3.792  25.756  0.00  0.00    -0.312 N 
ATOM     21  C   UNL     1      -0.882   4.289  25.247  0.00  0.00    +0.251 C 
ATOM     35  H   UNL     1      -2.048   2.969  26.352  0.00  0.00    +0.149 HD
BRANCH  21  24
ATOM     24  C   UNL     1       0.302   3.424  25.623  0.00  0.00    +0.324 C 
BRANCH  24   4
ATOM      4  O   UNL     1      -0.034   2.552  26.682  0.00  0.00    -0.483 OA
BRANCH   4  29
ATOM     29  C   UNL     1       0.772   2.577  27.795  0.00  0.00    +0.121 A 
ATOM     30  C   UNL     1       0.235   2.293  29.051  0.00  0.00    +0.045 A 
ATOM     31  C   UNL     1       2.126   2.887  27.670  0.00  0.00    +0.045 A 
ATOM     32  C   UNL     1       1.052   2.318  30.181  0.00  0.00    +0.004 A 
ATOM     33  C   UNL     1       2.943   2.911  28.799  0.00  0.00    +0.004 A 
ATOM     34  C   UNL     1       2.407   2.627  30.055  0.00  0.00    +0.000 A 
ENDBRANCH   4  29
ENDBRANCH  24   4
ENDBRANCH  21  24
ENDBRANCH  15   5
ENDBRANCH   9  15
BRANCH  11  16
ATOM     16  C   UNL     1      -4.200  -0.323  25.899  0.00  0.00    +0.103 C 
BRANCH  16  20
ATOM      1  O   UNL     1      -3.360  -1.646  24.056  0.00  0.00    -0.276 OA
ATOM      6  N   UNL     1      -1.873  -0.421  25.356  0.00  0.00    -0.314 N 
ATOM     20  C   UNL     1      -3.129  -0.883  24.989  0.00  0.00    +0.214 C 
ATOM     36  H   UNL     1      -1.788   0.219  26.140  0.00  0.00    +0.149 HD
BRANCH   6  22
ATOM     22  C   UNL     1      -0.663  -0.795  24.663  0.00  0.00    +0.119 C 
BRANCH  22  23
ATOM     23  C   UNL     1      -0.184   0.324  23.748  0.00  0.00    +0.103 C 
BRANCH  23   7
ATOM      3  O   UNL     1       3.486   0.655  21.737  0.00  0.00    -0.377 OA
ATOM      7  N   UNL     1       1.190   0.071  23.316  0.00  0.00    -0.297 NA
ATOM     25  C   UNL     1       2.048   1.228  23.606  0.00  0.00    +0.112 C 
ATOM     26  C   UNL     1       1.235  -0.241  21.881  0.00  0.00    +0.112 C 
ATOM     27  C   UNL     1       3.473   0.947  23.136  0.00  0.00    +0.175 C 
ATOM     28  C   UNL     1       2.678  -0.488  21.450  0.00  0.00    +0.175 C 
ENDBRANCH  23   7
ENDBRANCH  22  23
ENDBRANCH   6  22
ENDBRANCH  16  20
ENDBRANCH  11  16
TORSDOF 11
ENDMDL
MODEL 6
REMARK VINA RESULT:       1.1      2.326      6.341
REMARK  Name = 38027120
REMARK  14 active torsions:
REMARK  status: ('A' for Active; 'I' for Inactive)
REMARK    1  A    between atoms: O_4  and  C_24
REMARK    2  A    between atoms: O_4  and  C_29
REMARK    3  A    between atoms: N_5  and  C_15
REMARK    4  A    between atoms: N_6  and  C_22
REMARK    5  A    between atoms: N_7  and  C_23
REMARK    6  A    between atoms: C_8  and  C_12
REMARK    7  A    between atoms: C_9  and  C_15
REMARK    8  A    between atoms: C_11  and  C_16
REMARK    9  A    between atoms: C_12  and  C_17
REMARK   10  A    between atoms: C_12  and  C_18
REMARK   11  A    between atoms: C_13  and  C_19
REMARK   12  A    between atoms: C_16  and  C_20
REMARK   13  A    between atoms: C_21  and  C_24
REMARK   14  A    between atoms: C_22  and  C_23
REMARK                            x       y       z     vdW  Elec       q    Type
REMARK                         _______ _______ _______ _____ _____    ______ ____
ROOT
ATOM      8  C   UNL     1      -3.830   2.678  24.968  0.00  0.00    +0.000 C 
ATOM      9  C   UNL     1      -3.206   2.709  23.550  0.00  0.00    +0.032 C 
ATOM     10  C   UNL     1      -3.673   4.044  25.653  0.00  0.00    +0.012 C 
ATOM     11  C   UNL     1      -2.197   4.466  25.779  0.00  0.00    +0.023 C 
ATOM     13  C   UNL     1      -1.442   4.270  24.479  0.00  0.00    -0.073 C 
ATOM     14  C   UNL     1      -1.915   3.492  23.490  0.00  0.00    -0.022 C 
ATOM     19  C   UNL     1      -0.151   5.026  24.325  0.00  0.00    +0.039 C 
ENDROOT
BRANCH   8  12
ATOM     12  C   UNL     1      -5.310   2.285  24.929  0.00  0.00    -0.013 C 
ATOM     17  C   UNL     1      -5.540   1.003  25.722  0.00  0.00    +0.007 C 
ATOM     18  C   UNL     1      -6.176   3.418  25.469  0.00  0.00    +0.007 C 
ENDBRANCH   8  12
BRANCH   9  15
ATOM     15  C   UNL     1      -2.968   1.292  23.019  0.00  0.00    +0.112 C 
BRANCH  15   5
ATOM      2  O   UNL     1      -0.756   0.567  21.303  0.00  0.00    -0.272 OA
ATOM      5  N   UNL     1      -1.685   0.806  23.422  0.00  0.00    -0.312 N 
ATOM     21  C   UNL     1      -0.670   0.478  22.524  0.00  0.00    +0.251 C 
ATOM     35  H   UNL     1      -1.486   0.748  24.417  0.00  0.00    +0.149 HD
BRANCH  21  24
ATOM     24  C   UNL     1       0.580  -0.008  23.225  0.00  0.00    +0.324 C 
BRANCH  24   4
ATOM      4  O   UNL     1       1.639  -0.162  22.304  0.00  0.00    -0.483 OA
BRANCH   4  29
ATOM     29  C   UNL     1       2.916  -0.185  22.814  0.00  0.00    +0.121 A 
ATOM     30  C   UNL     1       3.721   0.951  22.731  0.00  0.00    +0.045 A 
ATOM     31  C   UNL     1       3.407  -1.344  23.415  0.00  0.00    +0.045 A 
ATOM     32  C   UNL     1       5.016   0.928  23.247  0.00  0.00    +0.004 A 
ATOM     33  C   UNL     1       4.701  -1.367  23.932  0.00  0.00    +0.004 A 
ATOM     34  C   UNL     1       5.506  -0.232  23.849  0.00  0.00    +0.000 A 
ENDBRANCH   4  29
ENDBRANCH  24   4
ENDBRANCH  21  24
ENDBRANCH  15   5
ENDBRANCH   9  15
BRANCH  11  16
ATOM     16  C   UNL     1      -1.507   3.727  26.931  0.00  0.00    +0.103 C 
BRANCH  16  20
ATOM      1  O   UNL     1       0.581   2.858  26.070  0.00  0.00    -0.276 OA
ATOM      6  N   UNL     1      -1.194   1.406  26.448  0.00  0.00    -0.314 N 
ATOM     20  C   UNL     1      -0.573   2.646  26.435  0.00  0.00    +0.214 C 
ATOM     36  H   UNL     1      -2.152   1.333  26.778  0.00  0.00    +0.149 HD
BRANCH   6  22
ATOM     22  C   UNL     1      -0.539   0.191  26.024  0.00  0.00    +0.119 C 
BRANCH  22  23
ATOM     23  C   UNL     1      -1.375  -1.035  26.364  0.00  0.00    +0.103 C 
BRANCH  23   7
ATOM      3  O   UNL     1      -3.878  -3.275  23.847  0.00  0.00    -0.377 OA
ATOM      7  N   UNL     1      -2.115  -1.486  25.187  0.00  0.00    -0.297 NA
ATOM     25  C   UNL     1      -3.561  -1.476  25.444  0.00  0.00    +0.112 C 
ATOM     26  C   UNL     1      -1.684  -2.833  24.786  0.00  0.00    +0.112 C 
ATOM     27  C   UNL     1      -4.311  -1.962  24.207  0.00  0.00    +0.175 C 
ATOM     28  C   UNL     1      -2.478  -3.287  23.564  0.00  0.00    +0.175 C 
ENDBRANCH  23   7
ENDBRANCH  22  23
ENDBRANCH   6  22
ENDBRANCH  16  20
ENDBRANCH  11  16
TORSDOF 11
ENDMDL
MODEL 7
REMARK VINA RESULT:       1.1      1.746      6.831
REMARK  Name = 38027120
REMARK  14 active torsions:
REMARK  status: ('A' for Active; 'I' for Inactive)
REMARK    1  A    between atoms: O_4  and  C_24
REMARK    2  A    between atoms: O_4  and  C_29
REMARK    3  A    between atoms: N_5  and  C_15
REMARK    4  A    between atoms: N_6  and  C_22
REMARK    5  A    between atoms: N_7  and  C_23
REMARK    6  A    between atoms: C_8  and  C_12
REMARK    7  A    between atoms: C_9  and  C_15
REMARK    8  A    between atoms: C_11  and  C_16
REMARK    9  A    between atoms: C_12  and  C_17
REMARK   10  A    between atoms: C_12  and  C_18
REMARK   11  A    between atoms: C_13  and  C_19
REMARK   12  A    between atoms: C_16  and  C_20
REMARK   13  A    between atoms: C_21  and  C_24
REMARK   14  A    between atoms: C_22  and  C_23
REMARK                            x       y       z     vdW  Elec       q    Type
REMARK                         _______ _______ _______ _____ _____    ______ ____
ROOT
ATOM      8  C   UNL     1      -2.798   2.444  24.081  0.00  0.00    +0.000 C 
ATOM      9  C   UNL     1      -1.598   3.078  24.829  0.00  0.00    +0.032 C 
ATOM     10  C   UNL     1      -3.987   3.417  24.054  0.00  0.00    +0.012 C 
ATOM     11  C   UNL     1      -4.447   3.813  25.470  0.00  0.00    +0.023 C 
ATOM     13  C   UNL     1      -3.280   4.197  26.356  0.00  0.00    -0.073 C 
ATOM     14  C   UNL     1      -2.012   3.871  26.046  0.00  0.00    -0.022 C 
ATOM     19  C   UNL     1      -3.598   5.004  27.584  0.00  0.00    +0.039 C 
ENDROOT
BRANCH   8  12
ATOM     12  C   UNL     1      -2.427   2.039  22.652  0.00  0.00    -0.013 C 
ATOM     17  C   UNL     1      -2.670   0.548  22.442  0.00  0.00    +0.007 C 
ATOM     18  C   UNL     1      -3.220   2.863  21.642  0.00  0.00    +0.007 C 
ENDBRANCH   8  12
BRANCH   9  15
ATOM     15  C   UNL     1      -0.576   2.012  25.238  0.00  0.00    +0.112 C 
BRANCH  15   5
ATOM      2  O   UNL     1       0.388   0.206  23.194  0.00  0.00    -0.272 OA
ATOM      5  N   UNL     1       0.624   2.137  24.471  0.00  0.00    -0.312 N 
ATOM     21  C   UNL     1       1.016   1.216  23.500  0.00  0.00    +0.251 C 
ATOM     35  H   UNL     1       1.193   2.969  24.603  0.00  0.00    +0.149 HD
BRANCH  21  24
ATOM     24  C   UNL     1       2.325   1.597  22.844  0.00  0.00    +0.324 C 
BRANCH  24   4
ATOM      4  O   UNL     1       2.962   0.458  22.305  0.00  0.00    -0.483 OA
BRANCH   4  29
ATOM     29  C   UNL     1       4.018  -0.066  23.013  0.00  0.00    +0.121 A 
ATOM     30  C   UNL     1       3.990  -1.399  23.423  0.00  0.00    +0.045 A 
ATOM     31  C   UNL     1       5.117   0.735  23.321  0.00  0.00    +0.045 A 
ATOM     32  C   UNL     1       5.061  -1.930  24.141  0.00  0.00    +0.004 A 
ATOM     33  C   UNL     1       6.188   0.204  24.038  0.00  0.00    +0.004 A 
ATOM     34  C   UNL     1       6.161  -1.129  24.449  0.00  0.00    +0.000 A 
ENDBRANCH   4  29
ENDBRANCH  24   4
ENDBRANCH  21  24
ENDBRANCH  15   5
ENDBRANCH   9  15
BRANCH  11  16
ATOM     16  C   UNL     1      -5.280   2.698  26.112  0.00  0.00    +0.103 C 
BRANCH  16  20
ATOM      1  O   UNL     1      -6.717   1.809  24.380  0.00  0.00    -0.276 OA
ATOM      6  N   UNL     1      -4.891   0.566  25.100  0.00  0.00    -0.314 N 
ATOM     20  C   UNL     1      -5.732   1.669  25.099  0.00  0.00    +0.214 C 
ATOM     36  H   UNL     1      -4.092   0.550  25.727  0.00  0.00    +0.149 HD
BRANCH   6  22
ATOM     22  C   UNL     1      -5.083  -0.573  24.233  0.00  0.00    +0.119 C 
BRANCH  22  23
ATOM     23  C   UNL     1      -4.309  -1.784  24.735  0.00  0.00    +0.103 C 
BRANCH  23   7
ATOM      3  O   UNL     1      -0.241  -1.945  25.753  0.00  0.00    -0.377 OA
ATOM      7  N   UNL     1      -2.879  -1.487  24.788  0.00  0.00    -0.297 NA
ATOM     25  C   UNL     1      -2.089  -2.644  24.346  0.00  0.00    +0.112 C 
ATOM     26  C   UNL     1      -2.479  -1.094  26.146  0.00  0.00    +0.112 C 
ATOM     27  C   UNL     1      -0.601  -2.315  24.421  0.00  0.00    +0.175 C 
ATOM     28  C   UNL     1      -0.982  -0.800  26.180  0.00  0.00    +0.175 C 
ENDBRANCH  23   7
ENDBRANCH  22  23
ENDBRANCH   6  22
ENDBRANCH  16  20
ENDBRANCH  11  16
TORSDOF 11
ENDMDL
MODEL 8
REMARK VINA RESULT:       1.5      1.545      7.198
REMARK  Name = 38027120
REMARK  14 active torsions:
REMARK  status: ('A' for Active; 'I' for Inactive)
REMARK    1  A    between atoms: O_4  and  C_24
REMARK    2  A    between atoms: O_4  and  C_29
REMARK    3  A    between atoms: N_5  and  C_15
REMARK    4  A    between atoms: N_6  and  C_22
REMARK    5  A    between atoms: N_7  and  C_23
REMARK    6  A    between atoms: C_8  and  C_12
REMARK    7  A    between atoms: C_9  and  C_15
REMARK    8  A    between atoms: C_11  and  C_16
REMARK    9  A    between atoms: C_12  and  C_17
REMARK   10  A    between atoms: C_12  and  C_18
REMARK   11  A    between atoms: C_13  and  C_19
REMARK   12  A    between atoms: C_16  and  C_20
REMARK   13  A    between atoms: C_21  and  C_24
REMARK   14  A    between atoms: C_22  and  C_23
REMARK                            x       y       z     vdW  Elec       q    Type
REMARK                         _______ _______ _______ _____ _____    ______ ____
ROOT
ATOM      8  C   UNL     1      -2.053   2.627  23.770  0.00  0.00    +0.000 C 
ATOM      9  C   UNL     1      -0.670   3.323  23.813  0.00  0.00    +0.032 C 
ATOM     10  C   UNL     1      -3.171   3.664  23.587  0.00  0.00    +0.012 C 
ATOM     11  C   UNL     1      -3.185   4.709  24.719  0.00  0.00    +0.023 C 
ATOM     13  C   UNL     1      -1.799   5.250  25.005  0.00  0.00    -0.073 C 
ATOM     14  C   UNL     1      -0.687   4.625  24.580  0.00  0.00    -0.022 C 
ATOM     19  C   UNL     1      -1.721   6.554  25.751  0.00  0.00    +0.039 C 
ENDROOT
BRANCH   8  12
ATOM     12  C   UNL     1      -2.128   1.582  22.652  0.00  0.00    -0.013 C 
ATOM     17  C   UNL     1      -3.099   0.468  23.029  0.00  0.00    +0.007 C 
ATOM     18  C   UNL     1      -2.542   2.237  21.338  0.00  0.00    +0.007 C 
ENDBRANCH   8  12
BRANCH   9  15
ATOM     15  C   UNL     1       0.398   2.396  24.404  0.00  0.00    +0.112 C 
BRANCH  15   5
ATOM      2  O   UNL     1      -0.009  -0.465  24.281  0.00  0.00    -0.272 OA
ATOM      5  N   UNL     1       0.895   1.495  23.411  0.00  0.00    -0.312 N 
ATOM     21  C   UNL     1       0.651   0.123  23.428  0.00  0.00    +0.251 C 
ATOM     35  H   UNL     1       1.408   1.884  22.625  0.00  0.00    +0.149 HD
BRANCH  21  24
ATOM     24  C   UNL     1       1.296  -0.588  22.258  0.00  0.00    +0.324 C 
BRANCH  24   4
ATOM      4  O   UNL     1       2.490   0.063  21.877  0.00  0.00    -0.483 OA
BRANCH   4  29
ATOM     29  C   UNL     1       3.587  -0.112  22.688  0.00  0.00    +0.121 A 
ATOM     30  C   UNL     1       4.479   0.942  22.890  0.00  0.00    +0.045 A 
ATOM     31  C   UNL     1       3.808  -1.341  23.307  0.00  0.00    +0.045 A 
ATOM     32  C   UNL     1       5.591   0.766  23.712  0.00  0.00    +0.004 A 
ATOM     33  C   UNL     1       4.920  -1.517  24.131  0.00  0.00    +0.004 A 
ATOM     34  C   UNL     1       5.812  -0.464  24.333  0.00  0.00    +0.000 A 
ENDBRANCH   4  29
ENDBRANCH  24   4
ENDBRANCH  21  24
ENDBRANCH  15   5
ENDBRANCH   9  15
BRANCH  11  16
ATOM     16  C   UNL     1      -3.823   4.137  25.990  0.00  0.00    +0.103 C 
BRANCH  16  20
ATOM      1  O   UNL     1      -6.164   3.912  25.423  0.00  0.00    -0.276 OA
ATOM      6  N   UNL     1      -4.884   2.005  25.775  0.00  0.00    -0.314 N 
ATOM     20  C   UNL     1      -5.095   3.373  25.695  0.00  0.00    +0.214 C 
ATOM     36  H   UNL     1      -3.956   1.656  25.997  0.00  0.00    +0.149 HD
BRANCH   6  22
ATOM     22  C   UNL     1      -5.925   1.031  25.542  0.00  0.00    +0.119 C 
BRANCH  22  23
ATOM     23  C   UNL     1      -5.537   0.063  24.433  0.00  0.00    +0.103 C 
BRANCH  23   7
ATOM      3  O   UNL     1      -2.297  -2.523  25.088  0.00  0.00    -0.377 OA
ATOM      7  N   UNL     1      -4.708  -1.015  24.969  0.00  0.00    -0.297 NA
ATOM     25  C   UNL     1      -3.496  -0.477  25.600  0.00  0.00    +0.112 C 
ATOM     26  C   UNL     1      -4.344  -1.967  23.910  0.00  0.00    +0.112 C 
ATOM     27  C   UNL     1      -2.641  -1.620  26.140  0.00  0.00    +0.175 C 
ATOM     28  C   UNL     1      -3.470  -3.076  24.489  0.00  0.00    +0.175 C 
ENDBRANCH  23   7
ENDBRANCH  22  23
ENDBRANCH   6  22
ENDBRANCH  16  20
ENDBRANCH  11  16
TORSDOF 11
ENDMDL
MODEL 9
REMARK VINA RESULT:       2.3     14.374     16.807
REMARK  Name = 38027120
REMARK  14 active torsions:
REMARK  status: ('A' for Active; 'I' for Inactive)
REMARK    1  A    between atoms: O_4  and  C_24
REMARK    2  A    between atoms: O_4  and  C_29
REMARK    3  A    between atoms: N_5  and  C_15
REMARK    4  A    between atoms: N_6  and  C_22
REMARK    5  A    between atoms: N_7  and  C_23
REMARK    6  A    between atoms: C_8  and  C_12
REMARK    7  A    between atoms: C_9  and  C_15
REMARK    8  A    between atoms: C_11  and  C_16
REMARK    9  A    between atoms: C_12  and  C_17
REMARK   10  A    between atoms: C_12  and  C_18
REMARK   11  A    between atoms: C_13  and  C_19
REMARK   12  A    between atoms: C_16  and  C_20
REMARK   13  A    between atoms: C_21  and  C_24
REMARK   14  A    between atoms: C_22  and  C_23
REMARK                            x       y       z     vdW  Elec       q    Type
REMARK                         _______ _______ _______ _____ _____    ______ ____
ROOT
ATOM      8  C   UNL     1      -7.084 -10.183  14.932  0.00  0.00    +0.000 C 
ATOM      9  C   UNL     1      -8.078  -9.716  13.840  0.00  0.00    +0.032 C 
ATOM     10  C   UNL     1      -5.804  -9.334  14.892  0.00  0.00    +0.012 C 
ATOM     11  C   UNL     1      -5.099  -9.410  13.525  0.00  0.00    +0.023 C 
ATOM     13  C   UNL     1      -6.071  -9.224  12.378  0.00  0.00    -0.073 C 
ATOM     14  C   UNL     1      -7.399  -9.352  12.540  0.00  0.00    -0.022 C 
ATOM     19  C   UNL     1      -5.483  -8.842  11.047  0.00  0.00    +0.039 C 
ENDROOT
BRANCH   8  12
ATOM     12  C   UNL     1      -7.705 -10.119  16.331  0.00  0.00    -0.013 C 
ATOM     17  C   UNL     1      -6.631  -9.848  17.379  0.00  0.00    +0.007 C 
ATOM     18  C   UNL     1      -8.792  -9.050  16.382  0.00  0.00    +0.007 C 
ENDBRANCH   8  12
BRANCH   9  15
ATOM     15  C   UNL     1      -9.149 -10.780  13.575  0.00  0.00    +0.112 C 
BRANCH  15   5
ATOM      2  O   UNL     1     -10.720  -8.723  12.282  0.00  0.00    -0.272 OA
ATOM      5  N   UNL     1      -9.572 -10.747  12.210  0.00  0.00    -0.312 N 
ATOM     21  C   UNL     1     -10.332  -9.712  11.666  0.00  0.00    +0.251 C 
ATOM     35  H   UNL     1      -9.257 -11.490  11.593  0.00  0.00    +0.149 HD
BRANCH  21  24
ATOM     24  C   UNL     1     -10.636  -9.934  10.200  0.00  0.00    +0.324 C 
BRANCH  24   4
ATOM      4  O   UNL     1      -9.536  -9.554   9.400  0.00  0.00    -0.483 OA
BRANCH   4  29
ATOM     29  C   UNL     1      -9.467  -8.237   9.012  0.00  0.00    +0.121 A 
ATOM     30  C   UNL     1     -10.638  -7.521   8.763  0.00  0.00    +0.045 A 
ATOM     31  C   UNL     1      -8.227  -7.616   8.866  0.00  0.00    +0.045 A 
ATOM     32  C   UNL     1     -10.570  -6.185   8.369  0.00  0.00    +0.004 A 
ATOM     33  C   UNL     1      -8.158  -6.280   8.473  0.00  0.00    +0.004 A 
ATOM     34  C   UNL     1      -9.329  -5.564   8.225  0.00  0.00    +0.000 A 
ENDBRANCH   4  29
ENDBRANCH  24   4
ENDBRANCH  21  24
ENDBRANCH  15   5
ENDBRANCH   9  15
BRANCH  11  16
ATOM     16  C   UNL     1      -4.320 -10.722  13.378  0.00  0.00    +0.103 C 
BRANCH  16  20
ATOM      1  O   UNL     1      -2.134 -10.670  12.343  0.00  0.00    -0.276 OA
ATOM      6  N   UNL     1      -2.356 -10.072  14.577  0.00  0.00    -0.314 N 
ATOM     20  C   UNL     1      -2.825 -10.495  13.342  0.00  0.00    +0.214 C 
ATOM     36  H   UNL     1      -3.012  -9.947  15.342  0.00  0.00    +0.149 HD
BRANCH   6  22
ATOM     22  C   UNL     1      -0.966  -9.781  14.835  0.00  0.00    +0.119 C 
BRANCH  22  23
ATOM     23  C   UNL     1      -0.574  -8.421  14.275  0.00  0.00    +0.103 C 
BRANCH  23   7
ATOM      3  O   UNL     1       0.810  -7.992  10.336  0.00  0.00    -0.377 OA
ATOM      7  N   UNL     1       0.217  -8.583  13.056  0.00  0.00    -0.297 NA
ATOM     25  C   UNL     1       0.838  -7.310  12.664  0.00  0.00    +0.112 C 
ATOM     26  C   UNL     1      -0.615  -9.097  11.960  0.00  0.00    +0.112 C 
ATOM     27  C   UNL     1       1.647  -7.501  11.384  0.00  0.00    +0.175 C 
ATOM     28  C   UNL     1       0.228  -9.246  10.696  0.00  0.00    +0.175 C 
ENDBRANCH  23   7
ENDBRANCH  22  23
ENDBRANCH   6  22
ENDBRANCH  16  20
ENDBRANCH  11  16
TORSDOF 11
ENDMDL
MODEL 10
REMARK VINA RESULT:       2.5      2.907      5.918
REMARK  Name = 38027120
REMARK  14 active torsions:
REMARK  status: ('A' for Active; 'I' for Inactive)
REMARK    1  A    between atoms: O_4  and  C_24
REMARK    2  A    between atoms: O_4  and  C_29
REMARK    3  A    between atoms: N_5  and  C_15
REMARK    4  A    between atoms: N_6  and  C_22
REMARK    5  A    between atoms: N_7  and  C_23
REMARK    6  A    between atoms: C_8  and  C_12
REMARK    7  A    between atoms: C_9  and  C_15
REMARK    8  A    between atoms: C_11  and  C_16
REMARK    9  A    between atoms: C_12  and  C_17
REMARK   10  A    between atoms: C_12  and  C_18
REMARK   11  A    between atoms: C_13  and  C_19
REMARK   12  A    between atoms: C_16  and  C_20
REMARK   13  A    between atoms: C_21  and  C_24
REMARK   14  A    between atoms: C_22  and  C_23
REMARK                            x       y       z     vdW  Elec       q    Type
REMARK                         _______ _______ _______ _____ _____    ______ ____
ROOT
ATOM      8  C   UNL     1      -4.669   1.727  24.966  0.00  0.00    +0.000 C 
ATOM      9  C   UNL     1      -3.992   0.476  24.351  0.00  0.00    +0.032 C 
ATOM     10  C   UNL     1      -4.950   2.774  23.877  0.00  0.00    +0.012 C 
ATOM     11  C   UNL     1      -3.666   3.219  23.153  0.00  0.00    +0.023 C 
ATOM     13  C   UNL     1      -2.807   2.038  22.749  0.00  0.00    -0.073 C 
ATOM     14  C   UNL     1      -2.976   0.817  23.286  0.00  0.00    -0.022 C 
ATOM     19  C   UNL     1      -1.778   2.281  21.680  0.00  0.00    +0.039 C 
ENDROOT
BRANCH   8  12
ATOM     12  C   UNL     1      -5.970   1.371  25.691  0.00  0.00    -0.013 C 
ATOM     17  C   UNL     1      -6.198   2.314  26.868  0.00  0.00    +0.007 C 
ATOM     18  C   UNL     1      -7.148   1.418  24.724  0.00  0.00    +0.007 C 
ENDBRANCH   8  12
BRANCH   9  15
ATOM     15  C   UNL     1      -3.328  -0.382  25.434  0.00  0.00    +0.112 C 
BRANCH  15   5
ATOM      2  O   UNL     1      -1.613  -2.215  23.997  0.00  0.00    -0.272 OA
ATOM      5  N   UNL     1      -1.904  -0.326  25.325  0.00  0.00    -0.312 N 
ATOM     21  C   UNL     1      -1.151  -1.255  24.609  0.00  0.00    +0.251 C 
ATOM     35  H   UNL     1      -1.422   0.463  25.746  0.00  0.00    +0.149 HD
BRANCH  21  24
ATOM     24  C   UNL     1       0.331  -0.954  24.660  0.00  0.00    +0.324 C 
BRANCH  24   4
ATOM      4  O   UNL     1       0.826  -0.663  23.370  0.00  0.00    -0.483 OA
BRANCH   4  29
ATOM     29  C   UNL     1       2.162  -0.357  23.264  0.00  0.00    +0.121 A 
ATOM     30  C   UNL     1       3.124  -1.279  23.676  0.00  0.00    +0.045 A 
ATOM     31  C   UNL     1       2.556   0.876  22.746  0.00  0.00    +0.045 A 
ATOM     32  C   UNL     1       4.479  -0.969  23.569  0.00  0.00    +0.004 A 
ATOM     33  C   UNL     1       3.911   1.187  22.637  0.00  0.00    +0.004 A 
ATOM     34  C   UNL     1       4.873   0.264  23.049  0.00  0.00    +0.000 A 
ENDBRANCH   4  29
ENDBRANCH  24   4
ENDBRANCH  21  24
ENDBRANCH  15   5
ENDBRANCH   9  15
BRANCH  11  16
ATOM     16  C   UNL     1      -2.868   4.213  24.004  0.00  0.00    +0.103 C 
BRANCH  16  20
ATOM      1  O   UNL     1      -3.062   3.710  26.362  0.00  0.00    -0.276 OA
ATOM      6  N   UNL     1      -1.218   2.939  25.177  0.00  0.00    -0.314 N 
ATOM     20  C   UNL     1      -2.425   3.609  25.318  0.00  0.00    +0.214 C 
ATOM     36  H   UNL     1      -0.773   2.903  24.265  0.00  0.00    +0.149 HD
BRANCH   6  22
ATOM     22  C   UNL     1      -0.557   2.267  26.271  0.00  0.00    +0.119 C 
BRANCH  22  23
ATOM     23  C   UNL     1       0.906   2.676  26.366  0.00  0.00    +0.103 C 
BRANCH  23   7
ATOM      3  O   UNL     1       2.240   2.163  30.312  0.00  0.00    -0.377 OA
ATOM      7  N   UNL     1       1.266   2.950  27.756  0.00  0.00    -0.297 NA
ATOM     25  C   UNL     1       2.693   2.685  27.987  0.00  0.00    +0.112 C 
ATOM     26  C   UNL     1       0.450   2.145  28.674  0.00  0.00    +0.112 C 
ATOM     27  C   UNL     1       3.043   2.965  29.446  0.00  0.00    +0.175 C 
ATOM     28  C   UNL     1       0.852   2.438  30.117  0.00  0.00    +0.175 C 
ENDBRANCH  23   7
ENDBRANCH  22  23
ENDBRANCH   6  22
ENDBRANCH  16  20
ENDBRANCH  11  16
TORSDOF 11
ENDMDL
