MODEL 1
REMARK VINA RESULT:      -2.8      0.000      0.000
REMARK  Name = 75367001
REMARK  9 active torsions:
REMARK  status: ('A' for Active; 'I' for Inactive)
REMARK    1  A    between atoms: O_3  and  C_12
REMARK    2  A    between atoms: O_6  and  C_21
REMARK    3  A    between atoms: O_6  and  C_25
REMARK    4  A    between atoms: N_7  and  C_16
REMARK    5  A    between atoms: N_9  and  C_22
REMARK    6  A    between atoms: C_10  and  C_15
REMARK    7  A    between atoms: C_11  and  C_16
REMARK    8  A    between atoms: C_15  and  C_17
REMARK    9  A    between atoms: C_20  and  C_21
REMARK                            x       y       z     vdW  Elec       q    Type
REMARK                         _______ _______ _______ _____ _____    ______ ____
ROOT
ATOM      2  O   UNL     1      -3.178   0.316  24.645  0.00  0.00    -0.369 OA
ATOM     10  C   UNL     1      -4.196  -0.552  24.140  0.00  0.00    +0.125 C 
ATOM     11  C   UNL     1      -1.838  -0.039  24.281  0.00  0.00    +0.164 C 
ATOM     12  C   UNL     1      -1.510  -1.481  24.692  0.00  0.00    +0.145 C 
ATOM     13  C   UNL     1      -3.973  -1.983  24.626  0.00  0.00    +0.034 C 
ATOM     14  C   UNL     1      -2.580  -2.472  24.241  0.00  0.00    +0.036 C 
ENDROOT
BRANCH  12   3
ATOM      3  O   UNL     1      -1.431  -1.544  26.119  0.00  0.00    -0.389 OA
ATOM     34  H   UNL     1      -2.339  -1.526  26.466  0.00  0.00    +0.210 HD
ENDBRANCH  12   3
BRANCH  10  15
ATOM     15  C   UNL     1      -5.537  -0.016  24.625  0.00  0.00    +0.090 C 
BRANCH  15  17
ATOM      4  O   UNL     1      -5.777   3.123  26.378  0.00  0.00    -0.356 OA
ATOM      8  N   UNL     1      -6.100   1.782  26.206  0.00  0.00    -0.083 NA
ATOM     17  C   UNL     1      -5.427   1.402  25.117  0.00  0.00    +0.086 A 
ATOM     18  C   UNL     1      -4.669   2.449  24.564  0.00  0.00    +0.074 A 
ATOM     20  C   UNL     1      -4.924   3.509  25.395  0.00  0.00    +0.175 A 
BRANCH  20  21
ATOM     21  C   UNL     1      -4.477   4.906  25.425  0.00  0.00    +0.306 C 
BRANCH  21   6
ATOM      6  O   UNL     1      -3.326   5.041  26.263  0.00  0.00    -0.484 OA
BRANCH   6  25
ATOM     25  C   UNL     1      -2.179   4.439  25.823  0.00  0.00    +0.121 A 
ATOM     28  C   UNL     1      -1.699   3.299  26.467  0.00  0.00    +0.045 A 
ATOM     29  C   UNL     1      -1.490   4.966  24.731  0.00  0.00    +0.045 A 
ATOM     31  C   UNL     1      -0.529   2.686  26.019  0.00  0.00    +0.004 A 
ATOM     32  C   UNL     1      -0.319   4.353  24.283  0.00  0.00    +0.004 A 
ATOM     33  C   UNL     1       0.160   3.212  24.927  0.00  0.00    +0.000 A 
ENDBRANCH   6  25
ENDBRANCH  21   6
ENDBRANCH  20  21
ENDBRANCH  15  17
ENDBRANCH  10  15
BRANCH  11  16
ATOM     16  C   UNL     1      -1.580   0.230  22.799  0.00  0.00    +0.140 C 
BRANCH  16   7
ATOM      5  O   UNL     1       0.762  -0.995  23.900  0.00  0.00    -0.253 OA
ATOM      7  N   UNL     1      -0.223   0.628  22.580  0.00  0.00    -0.297 N 
ATOM      9  N   UNL     1       2.077   0.584  22.765  0.00  0.00    -0.269 N 
ATOM     19  C   UNL     1       0.881  -0.024  23.157  0.00  0.00    +0.304 C 
ATOM     35  H   UNL     1      -0.051   1.453  22.013  0.00  0.00    +0.150 HD
ATOM     36  H   UNL     1       1.998   1.382  22.140  0.00  0.00    +0.156 HD
BRANCH   9  22
ATOM      1  F   UNL     1       5.266  -2.723  24.157  0.00  0.00    -0.205 F 
ATOM     22  C   UNL     1       3.394   0.223  23.130  0.00  0.00    +0.037 A 
ATOM     23  C   UNL     1       3.687  -1.098  23.469  0.00  0.00    +0.061 A 
ATOM     24  C   UNL     1       4.401   1.188  23.153  0.00  0.00    +0.023 A 
ATOM     26  C   UNL     1       4.986  -1.454  23.830  0.00  0.00    +0.125 A 
ATOM     27  C   UNL     1       5.700   0.832  23.514  0.00  0.00    +0.005 A 
ATOM     30  C   UNL     1       5.993  -0.489  23.852  0.00  0.00    +0.038 A 
ENDBRANCH   9  22
ENDBRANCH  16   7
ENDBRANCH  11  16
TORSDOF 9
ENDMDL
MODEL 2
REMARK VINA RESULT:      -2.5      2.370      7.277
REMARK  Name = 75367001
REMARK  9 active torsions:
REMARK  status: ('A' for Active; 'I' for Inactive)
REMARK    1  A    between atoms: O_3  and  C_12
REMARK    2  A    between atoms: O_6  and  C_21
REMARK    3  A    between atoms: O_6  and  C_25
REMARK    4  A    between atoms: N_7  and  C_16
REMARK    5  A    between atoms: N_9  and  C_22
REMARK    6  A    between atoms: C_10  and  C_15
REMARK    7  A    between atoms: C_11  and  C_16
REMARK    8  A    between atoms: C_15  and  C_17
REMARK    9  A    between atoms: C_20  and  C_21
REMARK                            x       y       z     vdW  Elec       q    Type
REMARK                         _______ _______ _______ _____ _____    ______ ____
ROOT
ATOM      2  O   UNL     1      -2.365   3.918  26.271  0.00  0.00    -0.369 OA
ATOM     10  C   UNL     1      -1.613   3.246  25.257  0.00  0.00    +0.125 C 
ATOM     11  C   UNL     1      -3.300   4.894  25.793  0.00  0.00    +0.164 C 
ATOM     12  C   UNL     1      -2.611   5.942  24.910  0.00  0.00    +0.145 C 
ATOM     13  C   UNL     1      -0.816   4.249  24.425  0.00  0.00    +0.034 C 
ATOM     14  C   UNL     1      -1.738   5.309  23.829  0.00  0.00    +0.036 C 
ENDROOT
BRANCH  12   3
ATOM      3  O   UNL     1      -1.768   6.753  25.732  0.00  0.00    -0.389 OA
ATOM     34  H   UNL     1      -1.566   6.247  26.538  0.00  0.00    +0.210 HD
ENDBRANCH  12   3
BRANCH  10  15
ATOM     15  C   UNL     1      -0.686   2.258  25.952  0.00  0.00    +0.090 C 
BRANCH  15  17
ATOM      4  O   UNL     1      -0.038  -0.871  24.285  0.00  0.00    -0.356 OA
ATOM      8  N   UNL     1      -0.569  -0.119  25.327  0.00  0.00    -0.083 NA
ATOM     17  C   UNL     1      -0.261   1.147  25.029  0.00  0.00    +0.086 A 
ATOM     18  C   UNL     1       0.455   1.254  23.824  0.00  0.00    +0.074 A 
ATOM     20  C   UNL     1       0.568  -0.043  23.396  0.00  0.00    +0.175 A 
BRANCH  20  21
ATOM     21  C   UNL     1       1.185  -0.676  22.226  0.00  0.00    +0.306 C 
BRANCH  21   6
ATOM      6  O   UNL     1       2.362   0.039  21.838  0.00  0.00    -0.484 OA
BRANCH   6  25
ATOM     25  C   UNL     1       3.459  -0.113  22.640  0.00  0.00    +0.121 A 
ATOM     28  C   UNL     1       3.709  -1.339  23.254  0.00  0.00    +0.045 A 
ATOM     29  C   UNL     1       4.326   0.960  22.844  0.00  0.00    +0.045 A 
ATOM     31  C   UNL     1       4.826  -1.494  24.074  0.00  0.00    +0.004 A 
ATOM     32  C   UNL     1       5.444   0.806  23.665  0.00  0.00    +0.004 A 
ATOM     33  C   UNL     1       5.695  -0.422  24.278  0.00  0.00    +0.000 A 
ENDBRANCH   6  25
ENDBRANCH  21   6
ENDBRANCH  20  21
ENDBRANCH  15  17
ENDBRANCH  10  15
BRANCH  11  16
ATOM     16  C   UNL     1      -4.490   4.225  25.107  0.00  0.00    +0.140 C 
BRANCH  16   7
ATOM      5  O   UNL     1      -3.513   1.867  23.808  0.00  0.00    -0.253 OA
ATOM      7  N   UNL     1      -4.647   2.875  25.554  0.00  0.00    -0.297 N 
ATOM      9  N   UNL     1      -4.445   0.576  25.534  0.00  0.00    -0.269 N 
ATOM     19  C   UNL     1      -4.138   1.762  24.861  0.00  0.00    +0.304 C 
ATOM     35  H   UNL     1      -5.194   2.709  26.394  0.00  0.00    +0.150 HD
ATOM     36  H   UNL     1      -4.971   0.667  26.399  0.00  0.00    +0.156 HD
BRANCH   9  22
ATOM      1  F   UNL     1      -4.691  -3.070  22.421  0.00  0.00    -0.205 F 
ATOM     22  C   UNL     1      -4.110  -0.746  25.159  0.00  0.00    +0.037 A 
ATOM     23  C   UNL     1      -4.574  -1.266  23.950  0.00  0.00    +0.061 A 
ATOM     24  C   UNL     1      -3.319  -1.529  25.997  0.00  0.00    +0.023 A 
ATOM     26  C   UNL     1      -4.245  -2.570  23.581  0.00  0.00    +0.125 A 
ATOM     27  C   UNL     1      -2.989  -2.833  25.628  0.00  0.00    +0.005 A 
ATOM     30  C   UNL     1      -3.452  -3.354  24.419  0.00  0.00    +0.038 A 
ENDBRANCH   9  22
ENDBRANCH  16   7
ENDBRANCH  11  16
TORSDOF 9
ENDMDL
MODEL 3
REMARK VINA RESULT:      -1.8      1.970      6.515
REMARK  Name = 75367001
REMARK  9 active torsions:
REMARK  status: ('A' for Active; 'I' for Inactive)
REMARK    1  A    between atoms: O_3  and  C_12
REMARK    2  A    between atoms: O_6  and  C_21
REMARK    3  A    between atoms: O_6  and  C_25
REMARK    4  A    between atoms: N_7  and  C_16
REMARK    5  A    between atoms: N_9  and  C_22
REMARK    6  A    between atoms: C_10  and  C_15
REMARK    7  A    between atoms: C_11  and  C_16
REMARK    8  A    between atoms: C_15  and  C_17
REMARK    9  A    between atoms: C_20  and  C_21
REMARK                            x       y       z     vdW  Elec       q    Type
REMARK                         _______ _______ _______ _____ _____    ______ ____
ROOT
ATOM      2  O   UNL     1      -4.536   3.343  26.509  0.00  0.00    -0.369 OA
ATOM     10  C   UNL     1      -3.469   3.375  25.557  0.00  0.00    +0.125 C 
ATOM     11  C   UNL     1      -5.855   3.398  25.949  0.00  0.00    +0.164 C 
ATOM     12  C   UNL     1      -6.028   4.628  25.049  0.00  0.00    +0.145 C 
ATOM     13  C   UNL     1      -3.536   4.648  24.716  0.00  0.00    +0.034 C 
ATOM     14  C   UNL     1      -4.897   4.773  24.035  0.00  0.00    +0.036 C 
ENDROOT
BRANCH  12   3
ATOM      3  O   UNL     1      -6.032   5.800  25.868  0.00  0.00    -0.389 OA
ATOM     34  H   UNL     1      -6.446   6.516  25.356  0.00  0.00    +0.210 HD
ENDBRANCH  12   3
BRANCH  10  15
ATOM     15  C   UNL     1      -2.160   3.306  26.334  0.00  0.00    +0.090 C 
BRANCH  15  17
ATOM      4  O   UNL     1       0.866   1.825  25.057  0.00  0.00    -0.356 OA
ATOM      8  N   UNL     1       0.178   2.655  25.934  0.00  0.00    -0.083 NA
ATOM     17  C   UNL     1      -1.106   2.536  25.585  0.00  0.00    +0.086 A 
ATOM     18  C   UNL     1      -1.287   1.654  24.506  0.00  0.00    +0.074 A 
ATOM     20  C   UNL     1      -0.017   1.233  24.213  0.00  0.00    +0.175 A 
BRANCH  20  21
ATOM     21  C   UNL     1       0.545   0.317  23.214  0.00  0.00    +0.306 C 
BRANCH  21   6
ATOM      6  O   UNL     1       1.719   0.883  22.625  0.00  0.00    -0.484 OA
BRANCH   6  25
ATOM     25  C   UNL     1       2.914   0.333  23.000  0.00  0.00    +0.121 A 
ATOM     28  C   UNL     1       4.088   1.079  22.894  0.00  0.00    +0.045 A 
ATOM     29  C   UNL     1       2.958  -0.973  23.486  0.00  0.00    +0.045 A 
ATOM     31  C   UNL     1       5.306   0.518  23.274  0.00  0.00    +0.004 A 
ATOM     32  C   UNL     1       4.177  -1.535  23.866  0.00  0.00    +0.004 A 
ATOM     33  C   UNL     1       5.351  -0.788  23.761  0.00  0.00    +0.000 A 
ENDBRANCH   6  25
ENDBRANCH  21   6
ENDBRANCH  20  21
ENDBRANCH  15  17
ENDBRANCH  10  15
BRANCH  11  16
ATOM     16  C   UNL     1      -6.208   2.089  25.244  0.00  0.00    +0.140 C 
BRANCH  16   7
ATOM      5  O   UNL     1      -4.259   0.610  23.755  0.00  0.00    -0.253 OA
ATOM      7  N   UNL     1      -5.399   1.013  25.728  0.00  0.00    -0.297 N 
ATOM      9  N   UNL     1      -3.821  -0.671  25.673  0.00  0.00    -0.269 N 
ATOM     19  C   UNL     1      -4.459   0.330  24.935  0.00  0.00    +0.304 C 
ATOM     35  H   UNL     1      -5.543   0.695  26.681  0.00  0.00    +0.150 HD
ATOM     36  H   UNL     1      -4.104  -0.770  26.644  0.00  0.00    +0.156 HD
BRANCH   9  22
ATOM      1  F   UNL     1       0.691  -2.301  25.845  0.00  0.00    -0.205 F 
ATOM     22  C   UNL     1      -2.820  -1.568  25.234  0.00  0.00    +0.037 A 
ATOM     23  C   UNL     1      -1.533  -1.491  25.767  0.00  0.00    +0.061 A 
ATOM     24  C   UNL     1      -3.119  -2.529  24.269  0.00  0.00    +0.023 A 
ATOM     26  C   UNL     1      -0.545  -2.376  25.334  0.00  0.00    +0.125 A 
ATOM     27  C   UNL     1      -2.131  -3.413  23.836  0.00  0.00    +0.005 A 
ATOM     30  C   UNL     1      -0.844  -3.337  24.369  0.00  0.00    +0.038 A 
ENDBRANCH   9  22
ENDBRANCH  16   7
ENDBRANCH  11  16
TORSDOF 9
ENDMDL
MODEL 4
REMARK VINA RESULT:      -0.6      2.694      6.261
REMARK  Name = 75367001
REMARK  9 active torsions:
REMARK  status: ('A' for Active; 'I' for Inactive)
REMARK    1  A    between atoms: O_3  and  C_12
REMARK    2  A    between atoms: O_6  and  C_21
REMARK    3  A    between atoms: O_6  and  C_25
REMARK    4  A    between atoms: N_7  and  C_16
REMARK    5  A    between atoms: N_9  and  C_22
REMARK    6  A    between atoms: C_10  and  C_15
REMARK    7  A    between atoms: C_11  and  C_16
REMARK    8  A    between atoms: C_15  and  C_17
REMARK    9  A    between atoms: C_20  and  C_21
REMARK                            x       y       z     vdW  Elec       q    Type
REMARK                         _______ _______ _______ _____ _____    ______ ____
ROOT
ATOM      2  O   UNL     1      -4.173   1.201  24.095  0.00  0.00    -0.369 OA
ATOM     10  C   UNL     1      -3.890   0.638  25.378  0.00  0.00    +0.125 C 
ATOM     11  C   UNL     1      -4.725   2.524  24.117  0.00  0.00    +0.164 C 
ATOM     12  C   UNL     1      -5.994   2.586  24.977  0.00  0.00    +0.145 C 
ATOM     13  C   UNL     1      -5.157   0.571  26.228  0.00  0.00    +0.034 C 
ATOM     14  C   UNL     1      -5.797   1.952  26.352  0.00  0.00    +0.036 C 
ENDROOT
BRANCH  12   3
ATOM      3  O   UNL     1      -7.036   1.868  24.311  0.00  0.00    -0.389 OA
ATOM     34  H   UNL     1      -7.317   1.144  24.897  0.00  0.00    +0.210 HD
ENDBRANCH  12   3
BRANCH  10  15
ATOM     15  C   UNL     1      -3.315  -0.755  25.151  0.00  0.00    +0.090 C 
BRANCH  15  17
ATOM      4  O   UNL     1       0.188  -1.240  24.458  0.00  0.00    -0.356 OA
ATOM      8  N   UNL     1      -0.992  -1.565  25.116  0.00  0.00    -0.083 NA
ATOM     17  C   UNL     1      -1.896  -0.698  24.651  0.00  0.00    +0.086 A 
ATOM     18  C   UNL     1      -1.350   0.189  23.707  0.00  0.00    +0.074 A 
ATOM     20  C   UNL     1      -0.037  -0.195  23.622  0.00  0.00    +0.175 A 
BRANCH  20  21
ATOM     21  C   UNL     1       1.112   0.280  22.842  0.00  0.00    +0.306 C 
BRANCH  21   6
ATOM      6  O   UNL     1       2.075  -0.767  22.689  0.00  0.00    -0.484 OA
BRANCH   6  25
ATOM     25  C   UNL     1       3.346  -0.490  23.110  0.00  0.00    +0.121 A 
ATOM     28  C   UNL     1       3.886   0.780  22.911  0.00  0.00    +0.045 A 
ATOM     29  C   UNL     1       4.102  -1.479  23.738  0.00  0.00    +0.045 A 
ATOM     31  C   UNL     1       5.183   1.061  23.339  0.00  0.00    +0.004 A 
ATOM     32  C   UNL     1       5.400  -1.198  24.167  0.00  0.00    +0.004 A 
ATOM     33  C   UNL     1       5.940   0.073  23.967  0.00  0.00    +0.000 A 
ENDBRANCH   6  25
ENDBRANCH  21   6
ENDBRANCH  20  21
ENDBRANCH  15  17
ENDBRANCH  10  15
BRANCH  11  16
ATOM     16  C   UNL     1      -3.673   3.551  24.532  0.00  0.00    +0.140 C 
BRANCH  16   7
ATOM      5  O   UNL     1      -2.103   4.298  26.808  0.00  0.00    -0.253 OA
ATOM      7  N   UNL     1      -2.484   2.907  24.999  0.00  0.00    -0.297 N 
ATOM      9  N   UNL     1      -0.649   2.515  26.343  0.00  0.00    -0.269 N 
ATOM     19  C   UNL     1      -1.763   3.332  26.129  0.00  0.00    +0.304 C 
ATOM     35  H   UNL     1      -2.117   2.129  24.460  0.00  0.00    +0.150 HD
ATOM     36  H   UNL     1      -0.512   1.752  25.685  0.00  0.00    +0.156 HD
BRANCH   9  22
ATOM      1  F   UNL     1       0.524   2.400  30.996  0.00  0.00    -0.205 F 
ATOM     22  C   UNL     1       0.317   2.615  27.370  0.00  0.00    +0.037 A 
ATOM     23  C   UNL     1      -0.063   2.454  28.703  0.00  0.00    +0.061 A 
ATOM     24  C   UNL     1       1.649   2.878  27.052  0.00  0.00    +0.023 A 
ATOM     26  C   UNL     1       0.890   2.554  29.717  0.00  0.00    +0.125 A 
ATOM     27  C   UNL     1       2.602   2.978  28.066  0.00  0.00    +0.005 A 
ATOM     30  C   UNL     1       2.222   2.816  29.398  0.00  0.00    +0.038 A 
ENDBRANCH   9  22
ENDBRANCH  16   7
ENDBRANCH  11  16
TORSDOF 9
ENDMDL
MODEL 5
REMARK VINA RESULT:      -0.6      2.395      6.559
REMARK  Name = 75367001
REMARK  9 active torsions:
REMARK  status: ('A' for Active; 'I' for Inactive)
REMARK    1  A    between atoms: O_3  and  C_12
REMARK    2  A    between atoms: O_6  and  C_21
REMARK    3  A    between atoms: O_6  and  C_25
REMARK    4  A    between atoms: N_7  and  C_16
REMARK    5  A    between atoms: N_9  and  C_22
REMARK    6  A    between atoms: C_10  and  C_15
REMARK    7  A    between atoms: C_11  and  C_16
REMARK    8  A    between atoms: C_15  and  C_17
REMARK    9  A    between atoms: C_20  and  C_21
REMARK                            x       y       z     vdW  Elec       q    Type
REMARK                         _______ _______ _______ _____ _____    ______ ____
ROOT
ATOM      2  O   UNL     1      -2.746  -0.881  24.284  0.00  0.00    -0.369 OA
ATOM     10  C   UNL     1      -2.555  -1.171  25.671  0.00  0.00    +0.125 C 
ATOM     11  C   UNL     1      -3.975  -1.360  23.724  0.00  0.00    +0.164 C 
ATOM     12  C   UNL     1      -4.138  -2.870  23.943  0.00  0.00    +0.145 C 
ATOM     13  C   UNL     1      -2.591  -2.678  25.916  0.00  0.00    +0.034 C 
ATOM     14  C   UNL     1      -3.894  -3.278  25.394  0.00  0.00    +0.036 C 
ENDROOT
BRANCH  12   3
ATOM      3  O   UNL     1      -3.183  -3.557  23.130  0.00  0.00    -0.389 OA
ATOM     34  H   UNL     1      -3.186  -4.492  23.399  0.00  0.00    +0.210 HD
ENDBRANCH  12   3
BRANCH  10  15
ATOM     15  C   UNL     1      -1.208  -0.586  26.080  0.00  0.00    +0.090 C 
BRANCH  15  17
ATOM      4  O   UNL     1       0.688   1.119  23.535  0.00  0.00    -0.356 OA
ATOM      8  N   UNL     1      -0.053   1.099  24.711  0.00  0.00    -0.083 NA
ATOM     17  C   UNL     1      -0.389  -0.182  24.884  0.00  0.00    +0.086 A 
ATOM     18  C   UNL     1       0.107  -1.008  23.860  0.00  0.00    +0.074 A 
ATOM     20  C   UNL     1       0.777  -0.141  23.038  0.00  0.00    +0.175 A 
BRANCH  20  21
ATOM     21  C   UNL     1       1.532  -0.302  21.790  0.00  0.00    +0.306 C 
BRANCH  21   6
ATOM      6  O   UNL     1       2.717   0.499  21.820  0.00  0.00    -0.484 OA
BRANCH   6  25
ATOM     25  C   UNL     1       3.706   0.091  22.672  0.00  0.00    +0.121 A 
ATOM     28  C   UNL     1       4.714   0.979  23.045  0.00  0.00    +0.045 A 
ATOM     29  C   UNL     1       3.705  -1.212  23.167  0.00  0.00    +0.045 A 
ATOM     31  C   UNL     1       5.723   0.564  23.913  0.00  0.00    +0.004 A 
ATOM     32  C   UNL     1       4.715  -1.628  24.036  0.00  0.00    +0.004 A 
ATOM     33  C   UNL     1       5.724  -0.739  24.409  0.00  0.00    +0.000 A 
ENDBRANCH   6  25
ENDBRANCH  21   6
ENDBRANCH  20  21
ENDBRANCH  15  17
ENDBRANCH  10  15
BRANCH  11  16
ATOM     16  C   UNL     1      -5.166  -0.552  24.239  0.00  0.00    +0.140 C 
BRANCH  16   7
ATOM      5  O   UNL     1      -3.324   1.420  23.279  0.00  0.00    -0.253 OA
ATOM      7  N   UNL     1      -4.727   0.619  24.935  0.00  0.00    -0.297 N 
ATOM      9  N   UNL     1      -3.575   2.585  25.302  0.00  0.00    -0.269 N 
ATOM     19  C   UNL     1      -3.817   1.547  24.398  0.00  0.00    +0.304 C 
ATOM     35  H   UNL     1      -5.057   0.764  25.884  0.00  0.00    +0.150 HD
ATOM     36  H   UNL     1      -4.069   2.539  26.189  0.00  0.00    +0.156 HD
BRANCH   9  22
ATOM      1  F   UNL     1       0.417   4.563  23.514  0.00  0.00    -0.205 F 
ATOM     22  C   UNL     1      -2.726   3.703  25.133  0.00  0.00    +0.037 A 
ATOM     23  C   UNL     1      -1.551   3.579  24.392  0.00  0.00    +0.061 A 
ATOM     24  C   UNL     1      -3.061   4.927  25.710  0.00  0.00    +0.023 A 
ATOM     26  C   UNL     1      -0.712   4.681  24.226  0.00  0.00    +0.125 A 
ATOM     27  C   UNL     1      -2.223   6.029  25.544  0.00  0.00    +0.005 A 
ATOM     30  C   UNL     1      -1.048   5.907  24.802  0.00  0.00    +0.038 A 
ENDBRANCH   9  22
ENDBRANCH  16   7
ENDBRANCH  11  16
TORSDOF 9
ENDMDL
