MODEL 1
REMARK VINA RESULT:      -2.0      0.000      0.000
REMARK  Name = 28962287
REMARK  13 active torsions:
REMARK  status: ('A' for Active; 'I' for Inactive)
REMARK    1  A    between atoms: O_2  and  C_12
REMARK    2  A    between atoms: O_3  and  C_15
REMARK    3  A    between atoms: O_5  and  C_28
REMARK    4  A    between atoms: O_5  and  C_31
REMARK    5  A    between atoms: N_6  and  C_10
REMARK    6  A    between atoms: N_6  and  C_16
REMARK    7  A    between atoms: N_6  and  C_17
REMARK    8  A    between atoms: N_7  and  C_14
REMARK    9  A    between atoms: N_8  and  C_23
REMARK   10  A    between atoms: C_11  and  C_14
REMARK   11  A    between atoms: C_13  and  C_15
REMARK   12  A    between atoms: C_16  and  C_18
REMARK   13  A    between atoms: C_18  and  C_19
REMARK                            x       y       z     vdW  Elec       q    Type
REMARK                         _______ _______ _______ _____ _____    ______ ____
ROOT
ATOM      1  O   UNL     1      -1.711   3.065  25.202  0.00  0.00    -0.365 OA
ATOM     10  C   UNL     1      -3.979   2.373  25.394  0.00  0.00    +0.118 C 
ATOM     11  C   UNL     1      -2.590   1.962  24.890  0.00  0.00    +0.155 C 
ATOM     12  C   UNL     1      -3.923   3.892  25.357  0.00  0.00    +0.165 C 
ATOM     13  C   UNL     1      -2.482   4.130  25.791  0.00  0.00    +0.174 C 
ENDROOT
BRANCH  12   2
ATOM      2  O   UNL     1      -4.133   4.390  24.041  0.00  0.00    -0.388 OA
ATOM     32  H   UNL     1      -4.895   4.992  24.073  0.00  0.00    +0.210 HD
ENDBRANCH  12   2
BRANCH  10   6
ATOM      6  N   UNL     1      -5.113   1.779  24.707  0.00  0.00    -0.297 NA
ATOM     17  C   UNL     1      -6.349   1.976  25.472  0.00  0.00    +0.105 C 
BRANCH   6  16
ATOM     16  C   UNL     1      -4.890   0.348  24.472  0.00  0.00    +0.090 C 
BRANCH  16  18
ATOM     18  C   UNL     1      -4.302  -0.326  25.711  0.00  0.00    +0.071 C 
BRANCH  18  19
ATOM      9  N   UNL     1      -1.920  -0.783  25.919  0.00  0.00    -0.260 NA
ATOM     19  C   UNL     1      -3.094  -1.161  25.367  0.00  0.00    +0.042 A 
ATOM     21  C   UNL     1      -3.240  -2.251  24.525  0.00  0.00    +0.023 A 
ATOM     22  C   UNL     1      -2.108  -3.002  24.230  0.00  0.00    +0.003 A 
ATOM     24  C   UNL     1      -0.840  -1.538  25.609  0.00  0.00    +0.111 A 
ATOM     25  C   UNL     1      -0.881  -2.645  24.778  0.00  0.00    +0.020 A 
ENDBRANCH  18  19
ENDBRANCH  16  18
ENDBRANCH   6  16
ENDBRANCH  10   6
BRANCH  11  14
ATOM     14  C   UNL     1      -2.459   1.689  23.396  0.00  0.00    +0.139 C 
BRANCH  14   7
ATOM      4  O   UNL     1       0.300   2.375  23.751  0.00  0.00    -0.253 OA
ATOM      7  N   UNL     1      -1.326   0.855  23.122  0.00  0.00    -0.297 N 
ATOM      8  N   UNL     1       0.892   0.242  22.970  0.00  0.00    -0.269 N 
ATOM     20  C   UNL     1       0.003   1.262  23.322  0.00  0.00    +0.304 C 
ATOM     33  H   UNL     1      -1.496  -0.075  22.752  0.00  0.00    +0.150 HD
ATOM     35  H   UNL     1       0.479  -0.624  22.630  0.00  0.00    +0.156 HD
BRANCH   8  23
ATOM     23  C   UNL     1       2.304   0.262  23.027  0.00  0.00    +0.038 A 
ATOM     26  C   UNL     1       2.998  -0.835  23.541  0.00  0.00    +0.069 A 
ATOM     27  C   UNL     1       3.005   1.379  22.572  0.00  0.00    +0.023 A 
ATOM     28  C   UNL     1       4.391  -0.814  23.598  0.00  0.00    +0.122 A 
ATOM     29  C   UNL     1       4.399   1.399  22.629  0.00  0.00    +0.005 A 
ATOM     30  C   UNL     1       5.092   0.303  23.141  0.00  0.00    +0.046 A 
BRANCH  28   5
ATOM      5  O   UNL     1       5.067  -1.884  24.099  0.00  0.00    -0.495 OA
ATOM     31  C   UNL     1       6.340  -1.628  24.691  0.00  0.00    +0.277 C 
ENDBRANCH  28   5
ENDBRANCH   8  23
ENDBRANCH  14   7
ENDBRANCH  11  14
BRANCH  13  15
ATOM     15  C   UNL     1      -1.887   5.465  25.380  0.00  0.00    +0.190 C 
BRANCH  15   3
ATOM      3  O   UNL     1      -0.659   5.233  24.708  0.00  0.00    -0.392 OA
ATOM     34  H   UNL     1      -0.221   4.493  25.161  0.00  0.00    +0.210 HD
ENDBRANCH  15   3
ENDBRANCH  13  15
TORSDOF 11
ENDMDL
MODEL 2
REMARK VINA RESULT:      -1.9      1.538      2.015
REMARK  Name = 28962287
REMARK  13 active torsions:
REMARK  status: ('A' for Active; 'I' for Inactive)
REMARK    1  A    between atoms: O_2  and  C_12
REMARK    2  A    between atoms: O_3  and  C_15
REMARK    3  A    between atoms: O_5  and  C_28
REMARK    4  A    between atoms: O_5  and  C_31
REMARK    5  A    between atoms: N_6  and  C_10
REMARK    6  A    between atoms: N_6  and  C_16
REMARK    7  A    between atoms: N_6  and  C_17
REMARK    8  A    between atoms: N_7  and  C_14
REMARK    9  A    between atoms: N_8  and  C_23
REMARK   10  A    between atoms: C_11  and  C_14
REMARK   11  A    between atoms: C_13  and  C_15
REMARK   12  A    between atoms: C_16  and  C_18
REMARK   13  A    between atoms: C_18  and  C_19
REMARK                            x       y       z     vdW  Elec       q    Type
REMARK                         _______ _______ _______ _____ _____    ______ ____
ROOT
ATOM      1  O   UNL     1      -1.897   4.204  26.169  0.00  0.00    -0.365 OA
ATOM     10  C   UNL     1      -4.135   3.963  25.399  0.00  0.00    +0.118 C 
ATOM     11  C   UNL     1      -3.089   3.415  26.378  0.00  0.00    +0.155 C 
ATOM     12  C   UNL     1      -3.287   4.559  24.287  0.00  0.00    +0.165 C 
ATOM     13  C   UNL     1      -2.129   5.134  25.094  0.00  0.00    +0.174 C 
ENDROOT
BRANCH  12   2
ATOM      2  O   UNL     1      -2.819   3.556  23.394  0.00  0.00    -0.388 OA
ATOM     32  H   UNL     1      -2.190   3.976  22.784  0.00  0.00    +0.210 HD
ENDBRANCH  12   2
BRANCH  10   6
ATOM      6  N   UNL     1      -5.159   3.029  24.964  0.00  0.00    -0.297 NA
ATOM     17  C   UNL     1      -5.998   2.610  26.091  0.00  0.00    +0.105 C 
BRANCH   6  16
ATOM     16  C   UNL     1      -4.557   1.856  24.322  0.00  0.00    +0.090 C 
BRANCH  16  18
ATOM     18  C   UNL     1      -5.370   0.595  24.610  0.00  0.00    +0.071 C 
BRANCH  18  19
ATOM      9  N   UNL     1      -3.740  -0.709  25.862  0.00  0.00    -0.260 NA
ATOM     19  C   UNL     1      -4.485  -0.619  24.739  0.00  0.00    +0.042 A 
ATOM     21  C   UNL     1      -4.479  -1.565  23.726  0.00  0.00    +0.023 A 
ATOM     22  C   UNL     1      -3.654  -2.673  23.876  0.00  0.00    +0.003 A 
ATOM     24  C   UNL     1      -2.950  -1.801  25.973  0.00  0.00    +0.111 A 
ATOM     25  C   UNL     1      -2.872  -2.801  25.018  0.00  0.00    +0.020 A 
ENDBRANCH  18  19
ENDBRANCH  16  18
ENDBRANCH   6  16
ENDBRANCH  10   6
BRANCH  11  14
ATOM     14  C   UNL     1      -2.697   1.951  26.209  0.00  0.00    +0.139 C 
BRANCH  14   7
ATOM      4  O   UNL     1      -1.638   0.772  23.822  0.00  0.00    -0.253 OA
ATOM      7  N   UNL     1      -1.314   1.826  25.856  0.00  0.00    -0.297 N 
ATOM      8  N   UNL     1       0.527   1.252  24.591  0.00  0.00    -0.269 N 
ATOM     20  C   UNL     1      -0.869   1.233  24.662  0.00  0.00    +0.304 C 
ATOM     33  H   UNL     1      -0.620   2.173  26.510  0.00  0.00    +0.150 HD
ATOM     35  H   UNL     1       1.018   1.673  25.377  0.00  0.00    +0.156 HD
BRANCH   8  23
ATOM     23  C   UNL     1       1.351   0.754  23.555  0.00  0.00    +0.038 A 
ATOM     26  C   UNL     1       2.726   0.990  23.583  0.00  0.00    +0.069 A 
ATOM     27  C   UNL     1       0.788   0.029  22.505  0.00  0.00    +0.023 A 
ATOM     28  C   UNL     1       3.538   0.500  22.560  0.00  0.00    +0.122 A 
ATOM     29  C   UNL     1       1.601  -0.461  21.482  0.00  0.00    +0.005 A 
ATOM     30  C   UNL     1       2.975  -0.227  21.510  0.00  0.00    +0.046 A 
BRANCH  28   5
ATOM      5  O   UNL     1       4.879   0.729  22.587  0.00  0.00    -0.495 OA
ATOM     31  C   UNL     1       5.626   0.096  23.625  0.00  0.00    +0.277 C 
ENDBRANCH  28   5
ENDBRANCH   8  23
ENDBRANCH  14   7
ENDBRANCH  11  14
BRANCH  13  15
ATOM     15  C   UNL     1      -0.838   5.345  24.325  0.00  0.00    +0.190 C 
BRANCH  15   3
ATOM      3  O   UNL     1      -0.164   4.101  24.211  0.00  0.00    -0.392 OA
ATOM     34  H   UNL     1       0.079   3.992  23.276  0.00  0.00    +0.210 HD
ENDBRANCH  15   3
ENDBRANCH  13  15
TORSDOF 11
ENDMDL
MODEL 3
REMARK VINA RESULT:      -1.7      1.830      4.072
REMARK  Name = 28962287
REMARK  13 active torsions:
REMARK  status: ('A' for Active; 'I' for Inactive)
REMARK    1  A    between atoms: O_2  and  C_12
REMARK    2  A    between atoms: O_3  and  C_15
REMARK    3  A    between atoms: O_5  and  C_28
REMARK    4  A    between atoms: O_5  and  C_31
REMARK    5  A    between atoms: N_6  and  C_10
REMARK    6  A    between atoms: N_6  and  C_16
REMARK    7  A    between atoms: N_6  and  C_17
REMARK    8  A    between atoms: N_7  and  C_14
REMARK    9  A    between atoms: N_8  and  C_23
REMARK   10  A    between atoms: C_11  and  C_14
REMARK   11  A    between atoms: C_13  and  C_15
REMARK   12  A    between atoms: C_16  and  C_18
REMARK   13  A    between atoms: C_18  and  C_19
REMARK                            x       y       z     vdW  Elec       q    Type
REMARK                         _______ _______ _______ _____ _____    ______ ____
ROOT
ATOM      1  O   UNL     1      -3.649  -1.269  23.416  0.00  0.00    -0.365 OA
ATOM     10  C   UNL     1      -4.774   0.178  24.933  0.00  0.00    +0.118 C 
ATOM     11  C   UNL     1      -4.120   0.090  23.549  0.00  0.00    +0.155 C 
ATOM     12  C   UNL     1      -4.065  -0.914  25.718  0.00  0.00    +0.165 C 
ATOM     13  C   UNL     1      -3.911  -1.980  24.641  0.00  0.00    +0.174 C 
ENDROOT
BRANCH  12   2
ATOM      2  O   UNL     1      -2.789  -0.483  26.174  0.00  0.00    -0.388 OA
ATOM     32  H   UNL     1      -2.626   0.400  25.802  0.00  0.00    +0.210 HD
ENDBRANCH  12   2
BRANCH  10   6
ATOM      6  N   UNL     1      -4.779   1.488  25.560  0.00  0.00    -0.297 NA
ATOM     17  C   UNL     1      -5.965   1.660  26.405  0.00  0.00    +0.105 C 
BRANCH   6  16
ATOM     16  C   UNL     1      -4.723   2.551  24.550  0.00  0.00    +0.090 C 
BRANCH  16  18
ATOM     18  C   UNL     1      -4.229   3.862  25.160  0.00  0.00    +0.071 C 
BRANCH  18  19
ATOM      9  N   UNL     1      -2.182   2.829  25.981  0.00  0.00    -0.260 NA
ATOM     19  C   UNL     1      -2.729   3.871  25.315  0.00  0.00    +0.042 A 
ATOM     21  C   UNL     1      -1.997   4.919  24.780  0.00  0.00    +0.023 A 
ATOM     22  C   UNL     1      -0.616   4.896  24.938  0.00  0.00    +0.003 A 
ATOM     24  C   UNL     1      -0.836   2.841  26.115  0.00  0.00    +0.111 A 
ATOM     25  C   UNL     1      -0.017   3.841  25.617  0.00  0.00    +0.020 A 
ENDBRANCH  18  19
ENDBRANCH  16  18
ENDBRANCH   6  16
ENDBRANCH  10   6
BRANCH  11  14
ATOM     14  C   UNL     1      -2.928   1.007  23.298  0.00  0.00    +0.139 C 
BRANCH  14   7
ATOM      4  O   UNL     1      -0.282   2.087  23.094  0.00  0.00    -0.253 OA
ATOM      7  N   UNL     1      -1.698   0.272  23.322  0.00  0.00    -0.297 N 
ATOM      8  N   UNL     1       0.579  -0.090  23.270  0.00  0.00    -0.269 N 
ATOM     20  C   UNL     1      -0.433   0.873  23.216  0.00  0.00    +0.304 C 
ATOM     33  H   UNL     1      -1.747  -0.738  23.407  0.00  0.00    +0.150 HD
ATOM     35  H   UNL     1       0.281  -1.058  23.374  0.00  0.00    +0.156 HD
BRANCH   8  23
ATOM     23  C   UNL     1       1.976   0.112  23.197  0.00  0.00    +0.038 A 
ATOM     26  C   UNL     1       2.850  -0.896  23.604  0.00  0.00    +0.069 A 
ATOM     27  C   UNL     1       2.481   1.322  22.720  0.00  0.00    +0.023 A 
ATOM     28  C   UNL     1       4.228  -0.696  23.534  0.00  0.00    +0.122 A 
ATOM     29  C   UNL     1       3.860   1.522  22.649  0.00  0.00    +0.005 A 
ATOM     30  C   UNL     1       4.733   0.513  23.055  0.00  0.00    +0.046 A 
BRANCH  28   5
ATOM      5  O   UNL     1       5.080  -1.680  23.930  0.00  0.00    -0.495 OA
ATOM     31  C   UNL     1       6.354  -1.274  24.431  0.00  0.00    +0.277 C 
ENDBRANCH  28   5
ENDBRANCH   8  23
ENDBRANCH  14   7
ENDBRANCH  11  14
BRANCH  13  15
ATOM     15  C   UNL     1      -2.806  -2.994  24.878  0.00  0.00    +0.190 C 
BRANCH  15   3
ATOM      3  O   UNL     1      -1.576  -2.443  24.434  0.00  0.00    -0.392 OA
ATOM     34  H   UNL     1      -1.372  -2.854  23.577  0.00  0.00    +0.210 HD
ENDBRANCH  15   3
ENDBRANCH  13  15
TORSDOF 11
ENDMDL
MODEL 4
REMARK VINA RESULT:      -0.9      1.719      7.202
REMARK  Name = 28962287
REMARK  13 active torsions:
REMARK  status: ('A' for Active; 'I' for Inactive)
REMARK    1  A    between atoms: O_2  and  C_12
REMARK    2  A    between atoms: O_3  and  C_15
REMARK    3  A    between atoms: O_5  and  C_28
REMARK    4  A    between atoms: O_5  and  C_31
REMARK    5  A    between atoms: N_6  and  C_10
REMARK    6  A    between atoms: N_6  and  C_16
REMARK    7  A    between atoms: N_6  and  C_17
REMARK    8  A    between atoms: N_7  and  C_14
REMARK    9  A    between atoms: N_8  and  C_23
REMARK   10  A    between atoms: C_11  and  C_14
REMARK   11  A    between atoms: C_13  and  C_15
REMARK   12  A    between atoms: C_16  and  C_18
REMARK   13  A    between atoms: C_18  and  C_19
REMARK                            x       y       z     vdW  Elec       q    Type
REMARK                         _______ _______ _______ _____ _____    ______ ____
ROOT
ATOM      1  O   UNL     1       4.134   1.439  23.129  0.00  0.00    -0.365 OA
ATOM     10  C   UNL     1       2.627  -0.101  22.120  0.00  0.00    +0.118 C 
ATOM     11  C   UNL     1       2.740   1.274  22.790  0.00  0.00    +0.155 C 
ATOM     12  C   UNL     1       3.804  -0.865  22.705  0.00  0.00    +0.165 C 
ATOM     13  C   UNL     1       4.850   0.240  22.775  0.00  0.00    +0.174 C 
ENDROOT
BRANCH  12   2
ATOM      2  O   UNL     1       3.512  -1.355  24.008  0.00  0.00    -0.388 OA
ATOM     32  H   UNL     1       2.709  -1.899  23.945  0.00  0.00    +0.210 HD
ENDBRANCH  12   2
BRANCH  10   6
ATOM      6  N   UNL     1       1.341  -0.766  22.231  0.00  0.00    -0.297 NA
ATOM     17  C   UNL     1       0.552  -0.586  21.008  0.00  0.00    +0.105 C 
BRANCH   6  16
ATOM     16  C   UNL     1       0.592  -0.266  23.389  0.00  0.00    +0.090 C 
BRANCH  16  18
ATOM     18  C   UNL     1       0.060  -1.420  24.238  0.00  0.00    +0.071 C 
BRANCH  18  19
ATOM      9  N   UNL     1      -2.077  -0.284  23.972  0.00  0.00    -0.260 NA
ATOM     19  C   UNL     1      -1.448  -1.446  24.257  0.00  0.00    +0.042 A 
ATOM     21  C   UNL     1      -2.102  -2.630  24.555  0.00  0.00    +0.023 A 
ATOM     22  C   UNL     1      -3.493  -2.620  24.563  0.00  0.00    +0.003 A 
ATOM     24  C   UNL     1      -3.429  -0.314  23.989  0.00  0.00    +0.111 A 
ATOM     25  C   UNL     1      -4.176  -1.444  24.275  0.00  0.00    +0.020 A 
ENDBRANCH  18  19
ENDBRANCH  16  18
ENDBRANCH   6  16
ENDBRANCH  10   6
BRANCH  11  14
ATOM     14  C   UNL     1       1.937   1.478  24.070  0.00  0.00    +0.139 C 
BRANCH  14   7
ATOM      4  O   UNL     1      -0.258   1.842  25.875  0.00  0.00    -0.253 OA
ATOM      7  N   UNL     1       0.719   2.187  23.807  0.00  0.00    -0.297 N 
ATOM      8  N   UNL     1      -1.376   3.063  24.210  0.00  0.00    -0.269 N 
ATOM     20  C   UNL     1      -0.317   2.324  24.746  0.00  0.00    +0.304 C 
ATOM     33  H   UNL     1       0.596   2.600  22.888  0.00  0.00    +0.150 HD
ATOM     35  H   UNL     1      -1.264   3.390  23.253  0.00  0.00    +0.156 HD
BRANCH   8  23
ATOM     23  C   UNL     1      -2.593   3.415  24.836  0.00  0.00    +0.038 A 
ATOM     26  C   UNL     1      -3.752   2.686  24.569  0.00  0.00    +0.069 A 
ATOM     27  C   UNL     1      -2.636   4.493  25.720  0.00  0.00    +0.023 A 
ATOM     28  C   UNL     1      -4.953   3.034  25.185  0.00  0.00    +0.122 A 
ATOM     29  C   UNL     1      -3.838   4.842  26.337  0.00  0.00    +0.005 A 
ATOM     30  C   UNL     1      -4.996   4.112  26.071  0.00  0.00    +0.046 A 
BRANCH  28   5
ATOM      5  O   UNL     1      -6.084   2.323  24.925  0.00  0.00    -0.495 OA
ATOM     31  C   UNL     1      -6.580   1.486  25.969  0.00  0.00    +0.277 C 
ENDBRANCH  28   5
ENDBRANCH   8  23
ENDBRANCH  14   7
ENDBRANCH  11  14
BRANCH  13  15
ATOM     15  C   UNL     1       5.973   0.015  23.772  0.00  0.00    +0.190 C 
BRANCH  15   3
ATOM      3  O   UNL     1       5.505   0.343  25.071  0.00  0.00    -0.392 OA
ATOM     34  H   UNL     1       5.885  -0.309  25.684  0.00  0.00    +0.210 HD
ENDBRANCH  15   3
ENDBRANCH  13  15
TORSDOF 11
ENDMDL
MODEL 5
REMARK VINA RESULT:       1.3      1.416      1.859
REMARK  Name = 28962287
REMARK  13 active torsions:
REMARK  status: ('A' for Active; 'I' for Inactive)
REMARK    1  A    between atoms: O_2  and  C_12
REMARK    2  A    between atoms: O_3  and  C_15
REMARK    3  A    between atoms: O_5  and  C_28
REMARK    4  A    between atoms: O_5  and  C_31
REMARK    5  A    between atoms: N_6  and  C_10
REMARK    6  A    between atoms: N_6  and  C_16
REMARK    7  A    between atoms: N_6  and  C_17
REMARK    8  A    between atoms: N_7  and  C_14
REMARK    9  A    between atoms: N_8  and  C_23
REMARK   10  A    between atoms: C_11  and  C_14
REMARK   11  A    between atoms: C_13  and  C_15
REMARK   12  A    between atoms: C_16  and  C_18
REMARK   13  A    between atoms: C_18  and  C_19
REMARK                            x       y       z     vdW  Elec       q    Type
REMARK                         _______ _______ _______ _____ _____    ______ ____
ROOT
ATOM      1  O   UNL     1      -0.842   3.273  25.242  0.00  0.00    -0.365 OA
ATOM     10  C   UNL     1      -3.150   2.697  25.207  0.00  0.00    +0.118 C 
ATOM     11  C   UNL     1      -1.730   2.166  24.975  0.00  0.00    +0.155 C 
ATOM     12  C   UNL     1      -3.004   4.189  24.952  0.00  0.00    +0.165 C 
ATOM     13  C   UNL     1      -1.625   4.442  25.548  0.00  0.00    +0.174 C 
ENDROOT
BRANCH  12   2
ATOM      2  O   UNL     1      -3.004   4.483  23.561  0.00  0.00    -0.388 OA
ATOM     32  H   UNL     1      -2.116   4.289  23.219  0.00  0.00    +0.210 HD
ENDBRANCH  12   2
BRANCH  10   6
ATOM      6  N   UNL     1      -4.212   2.043  24.461  0.00  0.00    -0.297 NA
ATOM     17  C   UNL     1      -4.514   2.778  23.228  0.00  0.00    +0.105 C 
BRANCH   6  16
ATOM     16  C   UNL     1      -5.422   1.915  25.279  0.00  0.00    +0.090 C 
BRANCH  16  18
ATOM     18  C   UNL     1      -5.697   0.453  25.627  0.00  0.00    +0.071 C 
BRANCH  18  19
ATOM      9  N   UNL     1      -3.547  -0.558  26.161  0.00  0.00    -0.260 NA
ATOM     19  C   UNL     1      -4.538  -0.435  25.249  0.00  0.00    +0.042 A 
ATOM     21  C   UNL     1      -4.542  -1.070  24.018  0.00  0.00    +0.023 A 
ATOM     22  C   UNL     1      -3.460  -1.882  23.701  0.00  0.00    +0.003 A 
ATOM     24  C   UNL     1      -2.511  -1.357  25.817  0.00  0.00    +0.111 A 
ATOM     25  C   UNL     1      -2.421  -2.034  24.612  0.00  0.00    +0.020 A 
ENDBRANCH  18  19
ENDBRANCH  16  18
ENDBRANCH   6  16
ENDBRANCH  10   6
BRANCH  11  14
ATOM     14  C   UNL     1      -1.412   1.659  23.572  0.00  0.00    +0.139 C 
BRANCH  14   7
ATOM      4  O   UNL     1       0.485  -0.412  24.139  0.00  0.00    -0.253 OA
ATOM      7  N   UNL     1      -0.002   1.696  23.319  0.00  0.00    -0.297 N 
ATOM      8  N   UNL     1       2.182   0.957  23.268  0.00  0.00    -0.269 N 
ATOM     20  C   UNL     1       0.869   0.637  23.626  0.00  0.00    +0.304 C 
ATOM     33  H   UNL     1       0.388   2.538  22.909  0.00  0.00    +0.150 HD
ATOM     35  H   UNL     1       2.330   1.873  22.852  0.00  0.00    +0.156 HD
BRANCH   8  23
ATOM     23  C   UNL     1       3.341   0.160  23.414  0.00  0.00    +0.038 A 
ATOM     26  C   UNL     1       4.605   0.741  23.310  0.00  0.00    +0.069 A 
ATOM     27  C   UNL     1       3.219  -1.208  23.661  0.00  0.00    +0.023 A 
ATOM     28  C   UNL     1       5.748  -0.046  23.453  0.00  0.00    +0.122 A 
ATOM     29  C   UNL     1       4.363  -1.994  23.803  0.00  0.00    +0.005 A 
ATOM     30  C   UNL     1       5.626  -1.414  23.701  0.00  0.00    +0.046 A 
BRANCH  28   5
ATOM      5  O   UNL     1       6.981   0.521  23.352  0.00  0.00    -0.495 OA
ATOM     31  C   UNL     1       8.074  -0.350  23.063  0.00  0.00    +0.277 C 
ENDBRANCH  28   5
ENDBRANCH   8  23
ENDBRANCH  14   7
ENDBRANCH  11  14
BRANCH  13  15
ATOM     15  C   UNL     1      -0.906   5.675  25.032  0.00  0.00    +0.190 C 
BRANCH  15   3
ATOM      3  O   UNL     1      -0.171   5.325  23.870  0.00  0.00    -0.392 OA
ATOM     34  H   UNL     1       0.739   5.136  24.154  0.00  0.00    +0.210 HD
ENDBRANCH  15   3
ENDBRANCH  13  15
TORSDOF 11
ENDMDL
MODEL 6
REMARK VINA RESULT:       1.5      2.098      6.843
REMARK  Name = 28962287
REMARK  13 active torsions:
REMARK  status: ('A' for Active; 'I' for Inactive)
REMARK    1  A    between atoms: O_2  and  C_12
REMARK    2  A    between atoms: O_3  and  C_15
REMARK    3  A    between atoms: O_5  and  C_28
REMARK    4  A    between atoms: O_5  and  C_31
REMARK    5  A    between atoms: N_6  and  C_10
REMARK    6  A    between atoms: N_6  and  C_16
REMARK    7  A    between atoms: N_6  and  C_17
REMARK    8  A    between atoms: N_7  and  C_14
REMARK    9  A    between atoms: N_8  and  C_23
REMARK   10  A    between atoms: C_11  and  C_14
REMARK   11  A    between atoms: C_13  and  C_15
REMARK   12  A    between atoms: C_16  and  C_18
REMARK   13  A    between atoms: C_18  and  C_19
REMARK                            x       y       z     vdW  Elec       q    Type
REMARK                         _______ _______ _______ _____ _____    ______ ____
ROOT
ATOM      1  O   UNL     1       1.580  -0.452  21.797  0.00  0.00    -0.365 OA
ATOM     10  C   UNL     1       0.712  -0.109  23.986  0.00  0.00    +0.118 C 
ATOM     11  C   UNL     1       0.333  -0.365  22.522  0.00  0.00    +0.155 C 
ATOM     12  C   UNL     1       2.070   0.566  23.876  0.00  0.00    +0.165 C 
ATOM     13  C   UNL     1       2.670  -0.199  22.703  0.00  0.00    +0.174 C 
ENDROOT
BRANCH  12   2
ATOM      2  O   UNL     1       1.943   1.946  23.555  0.00  0.00    -0.388 OA
ATOM     32  H   UNL     1       1.535   2.006  22.675  0.00  0.00    +0.210 HD
ENDBRANCH  12   2
BRANCH  10   6
ATOM      6  N   UNL     1      -0.268   0.601  24.789  0.00  0.00    -0.297 NA
ATOM     17  C   UNL     1       0.290   1.853  25.310  0.00  0.00    +0.105 C 
BRANCH   6  16
ATOM     16  C   UNL     1      -0.742  -0.238  25.896  0.00  0.00    +0.090 C 
BRANCH  16  18
ATOM     18  C   UNL     1      -2.268  -0.222  25.981  0.00  0.00    +0.071 C 
BRANCH  18  19
ATOM      9  N   UNL     1      -2.126  -2.371  24.845  0.00  0.00    -0.260 NA
ATOM     19  C   UNL     1      -2.884  -1.281  25.102  0.00  0.00    +0.042 A 
ATOM     21  C   UNL     1      -4.167  -1.096  24.613  0.00  0.00    +0.023 A 
ATOM     22  C   UNL     1      -4.706  -2.092  23.808  0.00  0.00    +0.003 A 
ATOM     24  C   UNL     1      -2.684  -3.318  24.058  0.00  0.00    +0.111 A 
ATOM     25  C   UNL     1      -3.957  -3.228  23.520  0.00  0.00    +0.020 A 
ENDBRANCH  18  19
ENDBRANCH  16  18
ENDBRANCH   6  16
ENDBRANCH  10   6
BRANCH  11  14
ATOM     14  C   UNL     1      -0.513   0.705  21.838  0.00  0.00    +0.139 C 
BRANCH  14   7
ATOM      4  O   UNL     1      -3.260   1.060  22.567  0.00  0.00    -0.253 OA
ATOM      7  N   UNL     1      -1.032   1.638  22.793  0.00  0.00    -0.297 N 
ATOM      8  N   UNL     1      -2.606   2.746  24.064  0.00  0.00    -0.269 N 
ATOM     20  C   UNL     1      -2.398   1.755  23.099  0.00  0.00    +0.304 C 
ATOM     33  H   UNL     1      -0.378   2.256  23.263  0.00  0.00    +0.150 HD
ATOM     35  H   UNL     1      -1.779   3.232  24.403  0.00  0.00    +0.156 HD
BRANCH   8  23
ATOM     23  C   UNL     1      -3.833   3.162  24.631  0.00  0.00    +0.038 A 
ATOM     26  C   UNL     1      -4.753   2.213  25.077  0.00  0.00    +0.069 A 
ATOM     27  C   UNL     1      -4.122   4.522  24.745  0.00  0.00    +0.023 A 
ATOM     28  C   UNL     1      -5.963   2.623  25.636  0.00  0.00    +0.122 A 
ATOM     29  C   UNL     1      -5.333   4.932  25.305  0.00  0.00    +0.005 A 
ATOM     30  C   UNL     1      -6.252   3.983  25.751  0.00  0.00    +0.046 A 
BRANCH  28   5
ATOM      5  O   UNL     1      -6.861   1.698  26.070  0.00  0.00    -0.495 OA
ATOM     31  C   UNL     1      -6.841   1.375  27.461  0.00  0.00    +0.277 C 
ENDBRANCH  28   5
ENDBRANCH   8  23
ENDBRANCH  14   7
ENDBRANCH  11  14
BRANCH  13  15
ATOM     15  C   UNL     1       3.785   0.514  21.959  0.00  0.00    +0.190 C 
BRANCH  15   3
ATOM      3  O   UNL     1       4.841   0.787  22.868  0.00  0.00    -0.392 OA
ATOM     34  H   UNL     1       5.019   1.741  22.820  0.00  0.00    +0.210 HD
ENDBRANCH  15   3
ENDBRANCH  13  15
TORSDOF 11
ENDMDL
MODEL 7
REMARK VINA RESULT:       1.5      2.111      4.469
REMARK  Name = 28962287
REMARK  13 active torsions:
REMARK  status: ('A' for Active; 'I' for Inactive)
REMARK    1  A    between atoms: O_2  and  C_12
REMARK    2  A    between atoms: O_3  and  C_15
REMARK    3  A    between atoms: O_5  and  C_28
REMARK    4  A    between atoms: O_5  and  C_31
REMARK    5  A    between atoms: N_6  and  C_10
REMARK    6  A    between atoms: N_6  and  C_16
REMARK    7  A    between atoms: N_6  and  C_17
REMARK    8  A    between atoms: N_7  and  C_14
REMARK    9  A    between atoms: N_8  and  C_23
REMARK   10  A    between atoms: C_11  and  C_14
REMARK   11  A    between atoms: C_13  and  C_15
REMARK   12  A    between atoms: C_16  and  C_18
REMARK   13  A    between atoms: C_18  and  C_19
REMARK                            x       y       z     vdW  Elec       q    Type
REMARK                         _______ _______ _______ _____ _____    ______ ____
ROOT
ATOM      1  O   UNL     1      -2.674  -0.212  23.835  0.00  0.00    -0.365 OA
ATOM     10  C   UNL     1      -1.882   1.583  25.182  0.00  0.00    +0.118 C 
ATOM     11  C   UNL     1      -2.417   1.209  23.794  0.00  0.00    +0.155 C 
ATOM     12  C   UNL     1      -1.272   0.281  25.676  0.00  0.00    +0.165 C 
ATOM     13  C   UNL     1      -2.269  -0.727  25.117  0.00  0.00    +0.174 C 
ENDROOT
BRANCH  12   2
ATOM      2  O   UNL     1       0.018   0.064  25.118  0.00  0.00    -0.388 OA
ATOM     32  H   UNL     1       0.605   0.762  25.454  0.00  0.00    +0.210 HD
ENDBRANCH  12   2
BRANCH  10   6
ATOM      6  N   UNL     1      -1.005   2.739  25.243  0.00  0.00    -0.297 NA
ATOM     17  C   UNL     1       0.099   2.509  26.179  0.00  0.00    +0.105 C 
BRANCH   6  16
ATOM     16  C   UNL     1      -1.752   3.940  25.633  0.00  0.00    +0.090 C 
BRANCH  16  18
ATOM     18  C   UNL     1      -2.915   4.198  24.675  0.00  0.00    +0.071 C 
BRANCH  18  19
ATOM      9  N   UNL     1      -4.563   3.581  26.357  0.00  0.00    -0.260 NA
ATOM     19  C   UNL     1      -4.148   3.430  25.080  0.00  0.00    +0.042 A 
ATOM     21  C   UNL     1      -4.784   2.628  24.146  0.00  0.00    +0.023 A 
ATOM     22  C   UNL     1      -5.920   1.935  24.551  0.00  0.00    +0.003 A 
ATOM     24  C   UNL     1      -5.671   2.891  26.713  0.00  0.00    +0.111 A 
ATOM     25  C   UNL     1      -6.378   2.064  25.857  0.00  0.00    +0.020 A 
ENDBRANCH  18  19
ENDBRANCH  16  18
ENDBRANCH   6  16
ENDBRANCH  10   6
BRANCH  11  14
ATOM     14  C   UNL     1      -1.488   1.466  22.612  0.00  0.00    +0.139 C 
BRANCH  14   7
ATOM      4  O   UNL     1       0.510  -0.582  22.466  0.00  0.00    -0.253 OA
ATOM      7  N   UNL     1      -0.124   1.567  23.042  0.00  0.00    -0.297 N 
ATOM      8  N   UNL     1       2.049   0.902  23.435  0.00  0.00    -0.269 N 
ATOM     20  C   UNL     1       0.801   0.515  22.938  0.00  0.00    +0.304 C 
ATOM     33  H   UNL     1       0.184   2.441  23.455  0.00  0.00    +0.150 HD
ATOM     35  H   UNL     1       2.121   1.852  23.792  0.00  0.00    +0.156 HD
BRANCH   8  23
ATOM     23  C   UNL     1       3.233   0.133  23.506  0.00  0.00    +0.038 A 
ATOM     26  C   UNL     1       4.476   0.752  23.373  0.00  0.00    +0.069 A 
ATOM     27  C   UNL     1       3.158  -1.245  23.707  0.00  0.00    +0.023 A 
ATOM     28  C   UNL     1       5.644  -0.007  23.442  0.00  0.00    +0.122 A 
ATOM     29  C   UNL     1       4.326  -2.004  23.776  0.00  0.00    +0.005 A 
ATOM     30  C   UNL     1       5.569  -1.386  23.644  0.00  0.00    +0.046 A 
BRANCH  28   5
ATOM      5  O   UNL     1       6.857   0.596  23.312  0.00  0.00    -0.495 OA
ATOM     31  C   UNL     1       7.986  -0.252  23.106  0.00  0.00    +0.277 C 
ENDBRANCH  28   5
ENDBRANCH   8  23
ENDBRANCH  14   7
ENDBRANCH  11  14
BRANCH  13  15
ATOM     15  C   UNL     1      -1.743  -2.141  24.946  0.00  0.00    +0.190 C 
BRANCH  15   3
ATOM      3  O   UNL     1      -2.839  -3.014  24.724  0.00  0.00    -0.392 OA
ATOM     34  H   UNL     1      -3.018  -3.467  25.566  0.00  0.00    +0.210 HD
ENDBRANCH  15   3
ENDBRANCH  13  15
TORSDOF 11
ENDMDL
MODEL 8
REMARK VINA RESULT:       1.8      2.306      7.091
REMARK  Name = 28962287
REMARK  13 active torsions:
REMARK  status: ('A' for Active; 'I' for Inactive)
REMARK    1  A    between atoms: O_2  and  C_12
REMARK    2  A    between atoms: O_3  and  C_15
REMARK    3  A    between atoms: O_5  and  C_28
REMARK    4  A    between atoms: O_5  and  C_31
REMARK    5  A    between atoms: N_6  and  C_10
REMARK    6  A    between atoms: N_6  and  C_16
REMARK    7  A    between atoms: N_6  and  C_17
REMARK    8  A    between atoms: N_7  and  C_14
REMARK    9  A    between atoms: N_8  and  C_23
REMARK   10  A    between atoms: C_11  and  C_14
REMARK   11  A    between atoms: C_13  and  C_15
REMARK   12  A    between atoms: C_16  and  C_18
REMARK   13  A    between atoms: C_18  and  C_19
REMARK                            x       y       z     vdW  Elec       q    Type
REMARK                         _______ _______ _______ _____ _____    ______ ____
ROOT
ATOM      1  O   UNL     1      -1.739  -3.008  25.000  0.00  0.00    -0.365 OA
ATOM     10  C   UNL     1      -0.778  -1.592  23.347  0.00  0.00    +0.118 C 
ATOM     11  C   UNL     1      -0.507  -2.333  24.663  0.00  0.00    +0.155 C 
ATOM     12  C   UNL     1      -2.281  -1.370  23.382  0.00  0.00    +0.165 C 
ATOM     13  C   UNL     1      -2.743  -2.671  24.025  0.00  0.00    +0.174 C 
ENDROOT
BRANCH  12   2
ATOM      2  O   UNL     1      -2.626  -0.261  24.203  0.00  0.00    -0.388 OA
ATOM     32  H   UNL     1      -2.158   0.518  23.859  0.00  0.00    +0.210 HD
ENDBRANCH  12   2
BRANCH  10   6
ATOM      6  N   UNL     1       0.019  -0.401  23.105  0.00  0.00    -0.297 NA
ATOM     17  C   UNL     1      -0.771   0.625  22.417  0.00  0.00    +0.105 C 
BRANCH   6  16
ATOM     16  C   UNL     1       1.215  -0.725  22.319  0.00  0.00    +0.090 C 
BRANCH  16  18
ATOM     18  C   UNL     1       2.212   0.433  22.338  0.00  0.00    +0.071 C 
BRANCH  18  19
ATOM      9  N   UNL     1       3.588  -1.225  23.471  0.00  0.00    -0.260 NA
ATOM     19  C   UNL     1       3.516   0.032  22.980  0.00  0.00    +0.042 A 
ATOM     21  C   UNL     1       4.555   0.947  23.035  0.00  0.00    +0.023 A 
ATOM     22  C   UNL     1       5.744   0.546  23.632  0.00  0.00    +0.003 A 
ATOM     24  C   UNL     1       4.761  -1.579  24.044  0.00  0.00    +0.111 A 
ATOM     25  C   UNL     1       5.857  -0.740  24.149  0.00  0.00    +0.020 A 
ENDBRANCH  18  19
ENDBRANCH  16  18
ENDBRANCH   6  16
ENDBRANCH  10   6
BRANCH  11  14
ATOM     14  C   UNL     1      -0.119  -1.475  25.862  0.00  0.00    +0.139 C 
BRANCH  14   7
ATOM      4  O   UNL     1      -2.162   0.510  26.169  0.00  0.00    -0.253 OA
ATOM      7  N   UNL     1      -0.031  -0.092  25.499  0.00  0.00    -0.297 N 
ATOM      8  N   UNL     1      -0.706   2.097  25.235  0.00  0.00    -0.269 N 
ATOM     20  C   UNL     1      -1.079   0.826  25.681  0.00  0.00    +0.304 C 
ATOM     33  H   UNL     1       0.831   0.238  25.076  0.00  0.00    +0.150 HD
ATOM     35  H   UNL     1       0.233   2.189  24.855  0.00  0.00    +0.156 HD
BRANCH   8  23
ATOM     23  C   UNL     1      -1.477   3.282  25.247  0.00  0.00    +0.038 A 
ATOM     26  C   UNL     1      -2.863   3.213  25.392  0.00  0.00    +0.069 A 
ATOM     27  C   UNL     1      -0.851   4.522  25.112  0.00  0.00    +0.023 A 
ATOM     28  C   UNL     1      -3.623   4.382  25.402  0.00  0.00    +0.122 A 
ATOM     29  C   UNL     1      -1.612   5.692  25.122  0.00  0.00    +0.005 A 
ATOM     30  C   UNL     1      -2.997   5.622  25.268  0.00  0.00    +0.046 A 
BRANCH  28   5
ATOM      5  O   UNL     1      -4.975   4.314  25.544  0.00  0.00    -0.495 OA
ATOM     31  C   UNL     1      -5.556   3.012  25.613  0.00  0.00    +0.277 C 
ENDBRANCH  28   5
ENDBRANCH   8  23
ENDBRANCH  14   7
ENDBRANCH  11  14
BRANCH  13  15
ATOM     15  C   UNL     1      -4.101  -2.620  24.701  0.00  0.00    +0.190 C 
BRANCH  15   3
ATOM      3  O   UNL     1      -3.991  -1.858  25.893  0.00  0.00    -0.392 OA
ATOM     34  H   UNL     1      -3.043  -1.724  26.060  0.00  0.00    +0.210 HD
ENDBRANCH  15   3
ENDBRANCH  13  15
TORSDOF 11
ENDMDL
