MODEL 1
REMARK VINA RESULT:      -4.8      0.000      0.000
REMARK  Name = 51137763
REMARK  3 active torsions:
REMARK  status: ('A' for Active; 'I' for Inactive)
REMARK    1  A    between atoms: C_7  and  C_11
REMARK    2  A    between atoms: C_12  and  C_13
REMARK    3  A    between atoms: C_14  and  C_17
REMARK                            x       y       z     vdW  Elec       q    Type
REMARK                         _______ _______ _______ _____ _____    ______ ____
ROOT
ATOM      3  O   UNL     1      15.786  -9.059  31.475  0.00  0.00    -0.270 OA
ATOM      4  N   UNL     1      15.466  -8.573  29.227  0.00  0.00    -0.297 N 
ATOM      7  C   UNL     1      15.729  -7.791  26.995  0.00  0.00    +0.095 C 
ATOM      8  C   UNL     1      16.754  -8.899  27.278  0.00  0.00    +0.033 C 
ATOM      9  C   UNL     1      14.700  -8.019  28.110  0.00  0.00    +0.121 C 
ATOM     10  C   UNL     1      16.795  -8.982  28.798  0.00  0.00    +0.109 C 
ATOM     12  C   UNL     1      15.079  -8.652  30.555  0.00  0.00    +0.247 C 
ENDROOT
BRANCH  12  13
ATOM     13  C   UNL     1      13.720  -8.201  30.895  0.00  0.00    +0.037 A 
ATOM     15  C   UNL     1      12.792  -9.106  31.412  0.00  0.00    +0.013 A 
ATOM     16  C   UNL     1      13.359  -6.867  30.701  0.00  0.00    +0.013 A 
ATOM     18  C   UNL     1      11.505  -8.677  31.734  0.00  0.00    +0.001 A 
ATOM     19  C   UNL     1      12.072  -6.438  31.024  0.00  0.00    +0.001 A 
ATOM     22  C   UNL     1      11.145  -7.343  31.541  0.00  0.00    +0.000 A 
ENDBRANCH  12  13
BRANCH   7  11
ATOM      2  O   UNL     1      16.340  -5.759  25.758  0.00  0.00    -0.420 OA
ATOM      5  N   UNL     1      17.001  -5.755  27.895  0.00  0.00    -0.112 NA
ATOM      6  N   UNL     1      17.405  -4.565  27.320  0.00  0.00    -0.107 NA
ATOM     11  C   UNL     1      16.384  -6.420  26.946  0.00  0.00    +0.222 A 
ATOM     14  C   UNL     1      16.998  -4.611  26.073  0.00  0.00    +0.251 A 
BRANCH  14  17
ATOM      1  F   UNL     1      17.102  -1.853  26.563  0.00  0.00    -0.205 F 
ATOM     17  C   UNL     1      17.137  -3.655  25.012  0.00  0.00    +0.074 A 
ATOM     20  C   UNL     1      17.183  -2.291  25.298  0.00  0.00    +0.136 A 
ATOM     21  C   UNL     1      17.224  -4.095  23.691  0.00  0.00    +0.016 A 
ATOM     23  C   UNL     1      17.318  -1.366  24.263  0.00  0.00    +0.039 A 
ATOM     24  C   UNL     1      17.358  -3.169  22.656  0.00  0.00    +0.001 A 
ATOM     25  C   UNL     1      17.404  -1.805  22.942  0.00  0.00    +0.003 A 
ENDBRANCH  14  17
ENDBRANCH   7  11
TORSDOF 3
ENDMDL
MODEL 2
REMARK VINA RESULT:      -3.1      1.700      2.092
REMARK  Name = 51137763
REMARK  3 active torsions:
REMARK  status: ('A' for Active; 'I' for Inactive)
REMARK    1  A    between atoms: C_7  and  C_11
REMARK    2  A    between atoms: C_12  and  C_13
REMARK    3  A    between atoms: C_14  and  C_17
REMARK                            x       y       z     vdW  Elec       q    Type
REMARK                         _______ _______ _______ _____ _____    ______ ____
ROOT
ATOM      3  O   UNL     1      16.186  -6.551  32.289  0.00  0.00    -0.270 OA
ATOM      4  N   UNL     1      15.863  -6.786  30.001  0.00  0.00    -0.297 N 
ATOM      7  C   UNL     1      16.080  -6.663  27.635  0.00  0.00    +0.095 C 
ATOM      8  C   UNL     1      17.228  -7.501  28.216  0.00  0.00    +0.033 C 
ATOM      9  C   UNL     1      15.060  -6.684  28.782  0.00  0.00    +0.121 C 
ATOM     10  C   UNL     1      17.242  -7.131  29.693  0.00  0.00    +0.109 C 
ATOM     12  C   UNL     1      15.456  -6.523  31.300  0.00  0.00    +0.247 C 
ENDROOT
BRANCH  12  13
ATOM     13  C   UNL     1      14.044  -6.168  31.511  0.00  0.00    +0.037 A 
ATOM     15  C   UNL     1      13.072  -7.167  31.561  0.00  0.00    +0.013 A 
ATOM     16  C   UNL     1      13.677  -4.830  31.663  0.00  0.00    +0.013 A 
ATOM     18  C   UNL     1      11.734  -6.830  31.762  0.00  0.00    +0.001 A 
ATOM     19  C   UNL     1      12.339  -4.492  31.864  0.00  0.00    +0.001 A 
ATOM     22  C   UNL     1      11.368  -5.492  31.914  0.00  0.00    +0.000 A 
ENDBRANCH  12  13
BRANCH   7  11
ATOM      2  O   UNL     1      16.281  -4.942  25.895  0.00  0.00    -0.420 OA
ATOM      5  N   UNL     1      17.218  -4.375  27.845  0.00  0.00    -0.112 NA
ATOM      6  N   UNL     1      17.401  -3.327  26.963  0.00  0.00    -0.107 NA
ATOM     11  C   UNL     1      16.560  -5.295  27.179  0.00  0.00    +0.222 A 
ATOM     14  C   UNL     1      16.839  -3.701  25.838  0.00  0.00    +0.251 A 
BRANCH  14  17
ATOM      1  F   UNL     1      16.974  -5.062  23.392  0.00  0.00    -0.205 F 
ATOM     17  C   UNL     1      16.723  -3.019  24.582  0.00  0.00    +0.074 A 
ATOM     20  C   UNL     1      16.797  -3.733  23.386  0.00  0.00    +0.136 A 
ATOM     21  C   UNL     1      16.537  -1.637  24.558  0.00  0.00    +0.016 A 
ATOM     23  C   UNL     1      16.684  -3.065  22.167  0.00  0.00    +0.039 A 
ATOM     24  C   UNL     1      16.425  -0.969  23.339  0.00  0.00    +0.001 A 
ATOM     25  C   UNL     1      16.499  -1.683  22.144  0.00  0.00    +0.003 A 
ENDBRANCH  14  17
ENDBRANCH   7  11
TORSDOF 3
ENDMDL
MODEL 3
REMARK VINA RESULT:      -1.3     16.155     17.541
REMARK  Name = 51137763
REMARK  3 active torsions:
REMARK  status: ('A' for Active; 'I' for Inactive)
REMARK    1  A    between atoms: C_7  and  C_11
REMARK    2  A    between atoms: C_12  and  C_13
REMARK    3  A    between atoms: C_14  and  C_17
REMARK                            x       y       z     vdW  Elec       q    Type
REMARK                         _______ _______ _______ _____ _____    ______ ____
ROOT
ATOM      3  O   UNL     1      -0.450   2.017  27.434  0.00  0.00    -0.270 OA
ATOM      4  N   UNL     1      -1.132   1.028  25.446  0.00  0.00    -0.297 N 
ATOM      7  C   UNL     1      -1.244  -0.281  23.463  0.00  0.00    +0.095 C 
ATOM      8  C   UNL     1      -1.290  -1.201  24.692  0.00  0.00    +0.033 C 
ATOM      9  C   UNL     1      -1.623   1.077  24.068  0.00  0.00    +0.121 C 
ATOM     10  C   UNL     1      -0.764  -0.328  25.823  0.00  0.00    +0.109 C 
ATOM     12  C   UNL     1      -0.936   2.097  26.307  0.00  0.00    +0.247 C 
ENDROOT
BRANCH  12  13
ATOM     13  C   UNL     1      -1.324   3.433  25.831  0.00  0.00    +0.037 A 
ATOM     15  C   UNL     1      -2.597   3.932  26.110  0.00  0.00    +0.013 A 
ATOM     16  C   UNL     1      -0.419   4.203  25.099  0.00  0.00    +0.013 A 
ATOM     18  C   UNL     1      -2.964   5.199  25.659  0.00  0.00    +0.001 A 
ATOM     19  C   UNL     1      -0.786   5.471  24.648  0.00  0.00    +0.001 A 
ATOM     22  C   UNL     1      -2.058   5.969  24.928  0.00  0.00    +0.000 A 
ENDBRANCH  12  13
BRANCH   7  11
ATOM      2  O   UNL     1       1.211  -0.302  23.538  0.00  0.00    -0.420 OA
ATOM      5  N   UNL     1       0.364  -0.473  21.475  0.00  0.00    -0.112 NA
ATOM      6  N   UNL     1       1.742  -0.497  21.374  0.00  0.00    -0.107 NA
ATOM     11  C   UNL     1       0.099  -0.358  22.755  0.00  0.00    +0.222 A 
ATOM     14  C   UNL     1       2.194  -0.394  22.601  0.00  0.00    +0.251 A 
BRANCH  14  17
ATOM      1  F   UNL     1       3.760   1.928  22.512  0.00  0.00    -0.205 F 
ATOM     17  C   UNL     1       3.539  -0.366  23.100  0.00  0.00    +0.074 A 
ATOM     20  C   UNL     1       4.286   0.811  23.035  0.00  0.00    +0.136 A 
ATOM     21  C   UNL     1       4.100  -1.519  23.648  0.00  0.00    +0.016 A 
ATOM     23  C   UNL     1       5.593   0.834  23.520  0.00  0.00    +0.039 A 
ATOM     24  C   UNL     1       5.409  -1.495  24.132  0.00  0.00    +0.001 A 
ATOM     25  C   UNL     1       6.154  -0.319  24.068  0.00  0.00    +0.003 A 
ENDBRANCH  14  17
ENDBRANCH   7  11
TORSDOF 3
ENDMDL
MODEL 4
REMARK VINA RESULT:      -1.2     17.168     19.214
REMARK  Name = 51137763
REMARK  3 active torsions:
REMARK  status: ('A' for Active; 'I' for Inactive)
REMARK    1  A    between atoms: C_7  and  C_11
REMARK    2  A    between atoms: C_12  and  C_13
REMARK    3  A    between atoms: C_14  and  C_17
REMARK                            x       y       z     vdW  Elec       q    Type
REMARK                         _______ _______ _______ _____ _____    ______ ____
ROOT
ATOM      3  O   UNL     1       1.763  -0.287  21.066  0.00  0.00    -0.270 OA
ATOM      4  N   UNL     1       0.820  -0.720  23.144  0.00  0.00    -0.297 N 
ATOM      7  C   UNL     1      -0.586  -0.721  25.062  0.00  0.00    +0.095 C 
ATOM      8  C   UNL     1      -1.338  -1.332  23.871  0.00  0.00    +0.033 C 
ATOM      9  C   UNL     1       0.874  -0.823  24.602  0.00  0.00    +0.121 C 
ATOM     10  C   UNL     1      -0.543  -0.868  22.658  0.00  0.00    +0.109 C 
ATOM     12  C   UNL     1       1.868  -0.438  22.281  0.00  0.00    +0.247 C 
ENDROOT
BRANCH  12  13
ATOM     13  C   UNL     1       3.210  -0.291  22.867  0.00  0.00    +0.037 A 
ATOM     15  C   UNL     1       3.880   0.930  22.781  0.00  0.00    +0.013 A 
ATOM     16  C   UNL     1       3.813  -1.372  23.511  0.00  0.00    +0.013 A 
ATOM     18  C   UNL     1       5.151   1.069  23.337  0.00  0.00    +0.001 A 
ATOM     19  C   UNL     1       5.084  -1.233  24.067  0.00  0.00    +0.001 A 
ATOM     22  C   UNL     1       5.753  -0.013  23.981  0.00  0.00    +0.000 A 
ENDBRANCH  12  13
BRANCH   7  11
ATOM      2  O   UNL     1      -2.428   0.896  25.219  0.00  0.00    -0.420 OA
ATOM      5  N   UNL     1      -0.441   1.721  25.831  0.00  0.00    -0.112 NA
ATOM      6  N   UNL     1      -1.380   2.725  25.967  0.00  0.00    -0.107 NA
ATOM     11  C   UNL     1      -1.097   0.672  25.393  0.00  0.00    +0.222 A 
ATOM     14  C   UNL     1      -2.525   2.200  25.598  0.00  0.00    +0.251 A 
BRANCH  14  17
ATOM      1  F   UNL     1      -4.834   0.618  25.450  0.00  0.00    -0.205 F 
ATOM     17  C   UNL     1      -3.838   2.775  25.535  0.00  0.00    +0.074 A 
ATOM     20  C   UNL     1      -4.961   1.952  25.461  0.00  0.00    +0.136 A 
ATOM     21  C   UNL     1      -3.988   4.162  25.546  0.00  0.00    +0.016 A 
ATOM     23  C   UNL     1      -6.235   2.517  25.398  0.00  0.00    +0.039 A 
ATOM     24  C   UNL     1      -5.262   4.726  25.483  0.00  0.00    +0.001 A 
ATOM     25  C   UNL     1      -6.385   3.903  25.409  0.00  0.00    +0.003 A 
ENDBRANCH  14  17
ENDBRANCH   7  11
TORSDOF 3
ENDMDL
