MODEL 1
REMARK VINA RESULT:      -5.1      0.000      0.000
REMARK  Name = 28962402
REMARK  8 active torsions:
REMARK  status: ('A' for Active; 'I' for Inactive)
REMARK    1  A    between atoms: O_2  and  C_8
REMARK    2  A    between atoms: O_3  and  C_17
REMARK    3  A    between atoms: N_4  and  C_6
REMARK    4  A    between atoms: N_5  and  C_12
REMARK    5  A    between atoms: N_5  and  C_16
REMARK    6  A    between atoms: C_7  and  C_12
REMARK    7  A    between atoms: C_9  and  C_17
REMARK    8  A    between atoms: C_13  and  C_22
REMARK                            x       y       z     vdW  Elec       q    Type
REMARK                         _______ _______ _______ _____ _____    ______ ____
ROOT
ATOM      1  O   UNL     1       0.510   2.737  25.067  0.00  0.00    -0.366 OA
ATOM      6  C   UNL     1      -1.219   1.114  25.275  0.00  0.00    +0.118 C 
ATOM      7  C   UNL     1       0.240   1.334  24.852  0.00  0.00    +0.152 C 
ATOM      8  C   UNL     1      -1.843   2.486  25.076  0.00  0.00    +0.165 C 
ATOM      9  C   UNL     1      -0.694   3.384  25.519  0.00  0.00    +0.174 C 
ENDROOT
BRANCH   6   4
ATOM      4  N   UNL     1      -1.916   0.016  24.628  0.00  0.00    -0.295 NA
ATOM     10  C   UNL     1      -3.368   0.164  24.789  0.00  0.00    +0.085 C 
ATOM     11  C   UNL     1      -1.451  -1.273  25.160  0.00  0.00    +0.085 C 
ATOM     13  C   UNL     1      -3.663  -2.336  24.552  0.00  0.00    -0.012 C 
ATOM     14  C   UNL     1      -4.120  -0.957  24.068  0.00  0.00    +0.018 C 
ATOM     15  C   UNL     1      -2.137  -2.442  24.451  0.00  0.00    +0.018 C 
ATOM     22  C   UNL     1      -4.343  -3.449  23.759  0.00  0.00    +0.007 C 
ENDBRANCH   6   4
BRANCH   8   2
ATOM      2  O   UNL     1      -2.159   2.722  23.711  0.00  0.00    -0.388 OA
ATOM     25  H   UNL     1      -2.357   1.862  23.302  0.00  0.00    +0.210 HD
ENDBRANCH   8   2
BRANCH   7  12
ATOM     12  C   UNL     1       0.585   1.023  23.400  0.00  0.00    +0.114 C 
BRANCH  12   5
ATOM      5  N   UNL     1       1.075  -0.341  23.262  0.00  0.00    -0.311 NA
ATOM     24  H   UNL     1       0.540  -0.810  22.531  0.00  0.00    +0.122 HD
BRANCH   5  16
ATOM     16  C   UNL     1       2.496  -0.353  22.917  0.00  0.00    +0.054 C 
ATOM     18  C   UNL     1       3.050   1.075  22.937  0.00  0.00    +0.019 C 
ATOM     19  C   UNL     1       3.260  -1.257  23.891  0.00  0.00    +0.019 C 
ATOM     20  C   UNL     1       4.551   1.094  22.656  0.00  0.00    +0.002 C 
ATOM     21  C   UNL     1       4.761  -1.235  23.608  0.00  0.00    +0.002 C 
ATOM     23  C   UNL     1       5.315   0.187  23.616  0.00  0.00    +0.000 C 
ENDBRANCH   5  16
ENDBRANCH  12   5
ENDBRANCH   7  12
BRANCH   9  17
ATOM     17  C   UNL     1      -0.731   4.804  24.981  0.00  0.00    +0.190 C 
BRANCH  17   3
ATOM      3  O   UNL     1      -1.972   5.395  25.328  0.00  0.00    -0.392 OA
ATOM     26  H   UNL     1      -2.260   5.927  24.567  0.00  0.00    +0.210 HD
ENDBRANCH  17   3
ENDBRANCH   9  17
TORSDOF 7
ENDMDL
MODEL 2
REMARK VINA RESULT:      -4.0      2.235      5.528
REMARK  Name = 28962402
REMARK  8 active torsions:
REMARK  status: ('A' for Active; 'I' for Inactive)
REMARK    1  A    between atoms: O_2  and  C_8
REMARK    2  A    between atoms: O_3  and  C_17
REMARK    3  A    between atoms: N_4  and  C_6
REMARK    4  A    between atoms: N_5  and  C_12
REMARK    5  A    between atoms: N_5  and  C_16
REMARK    6  A    between atoms: C_7  and  C_12
REMARK    7  A    between atoms: C_9  and  C_17
REMARK    8  A    between atoms: C_13  and  C_22
REMARK                            x       y       z     vdW  Elec       q    Type
REMARK                         _______ _______ _______ _____ _____    ______ ____
ROOT
ATOM      1  O   UNL     1       0.949   1.213  24.934  0.00  0.00    -0.366 OA
ATOM      6  C   UNL     1      -0.522   3.014  24.424  0.00  0.00    +0.118 C 
ATOM      7  C   UNL     1      -0.011   2.101  25.547  0.00  0.00    +0.152 C 
ATOM      8  C   UNL     1      -0.314   2.170  23.176  0.00  0.00    +0.165 C 
ATOM      9  C   UNL     1       1.000   1.479  23.519  0.00  0.00    +0.174 C 
ENDROOT
BRANCH   6   4
ATOM      4  N   UNL     1      -1.860   3.552  24.592  0.00  0.00    -0.295 NA
ATOM     10  C   UNL     1      -2.213   3.616  26.016  0.00  0.00    +0.085 C 
ATOM     11  C   UNL     1      -2.835   2.751  23.840  0.00  0.00    +0.085 C 
ATOM     13  C   UNL     1      -4.667   3.462  25.431  0.00  0.00    -0.012 C 
ATOM     14  C   UNL     1      -3.599   4.231  26.215  0.00  0.00    +0.018 C 
ATOM     15  C   UNL     1      -4.243   3.336  23.963  0.00  0.00    +0.018 C 
ATOM     22  C   UNL     1      -6.030   4.138  25.551  0.00  0.00    +0.007 C 
ENDBRANCH   6   4
BRANCH   8   2
ATOM      2  O   UNL     1      -1.351   1.211  23.018  0.00  0.00    -0.388 OA
ATOM     25  H   UNL     1      -2.196   1.661  23.185  0.00  0.00    +0.210 HD
ENDBRANCH   8   2
BRANCH   7  12
ATOM     12  C   UNL     1      -1.051   1.231  26.246  0.00  0.00    +0.114 C 
BRANCH  12   5
ATOM      5  N   UNL     1      -0.796  -0.181  26.003  0.00  0.00    -0.311 NA
ATOM     24  H   UNL     1      -0.329  -0.575  26.820  0.00  0.00    +0.122 HD
BRANCH   5  16
ATOM     16  C   UNL     1      -2.043  -0.902  25.753  0.00  0.00    +0.054 C 
ATOM     18  C   UNL     1      -3.128   0.078  25.294  0.00  0.00    +0.019 C 
ATOM     19  C   UNL     1      -1.810  -1.998  24.708  0.00  0.00    +0.019 C 
ATOM     20  C   UNL     1      -4.425  -0.650  24.949  0.00  0.00    +0.002 C 
ATOM     21  C   UNL     1      -3.109  -2.725  24.364  0.00  0.00    +0.002 C 
ATOM     23  C   UNL     1      -4.196  -1.752  23.917  0.00  0.00    +0.000 C 
ENDBRANCH   5  16
ENDBRANCH  12   5
ENDBRANCH   7  12
BRANCH   9  17
ATOM     17  C   UNL     1       1.271   0.182  22.776  0.00  0.00    +0.190 C 
BRANCH  17   3
ATOM      3  O   UNL     1       2.665  -0.074  22.794  0.00  0.00    -0.392 OA
ATOM     26  H   UNL     1       2.921  -0.205  23.723  0.00  0.00    +0.210 HD
ENDBRANCH  17   3
ENDBRANCH   9  17
TORSDOF 7
ENDMDL
MODEL 3
REMARK VINA RESULT:      -3.7      3.537      5.806
REMARK  Name = 28962402
REMARK  8 active torsions:
REMARK  status: ('A' for Active; 'I' for Inactive)
REMARK    1  A    between atoms: O_2  and  C_8
REMARK    2  A    between atoms: O_3  and  C_17
REMARK    3  A    between atoms: N_4  and  C_6
REMARK    4  A    between atoms: N_5  and  C_12
REMARK    5  A    between atoms: N_5  and  C_16
REMARK    6  A    between atoms: C_7  and  C_12
REMARK    7  A    between atoms: C_9  and  C_17
REMARK    8  A    between atoms: C_13  and  C_22
REMARK                            x       y       z     vdW  Elec       q    Type
REMARK                         _______ _______ _______ _____ _____    ______ ____
ROOT
ATOM      1  O   UNL     1      -1.077  -1.249  24.149  0.00  0.00    -0.366 OA
ATOM      6  C   UNL     1      -2.831   0.345  23.936  0.00  0.00    +0.118 C 
ATOM      7  C   UNL     1      -1.330   0.172  24.206  0.00  0.00    +0.152 C 
ATOM      8  C   UNL     1      -3.416  -0.984  24.388  0.00  0.00    +0.165 C 
ATOM      9  C   UNL     1      -2.321  -1.941  23.934  0.00  0.00    +0.174 C 
ENDROOT
BRANCH   6   4
ATOM      4  N   UNL     1      -3.455   1.524  24.510  0.00  0.00    -0.295 NA
ATOM     10  C   UNL     1      -4.696   1.162  25.206  0.00  0.00    +0.085 C 
ATOM     11  C   UNL     1      -3.704   2.532  23.470  0.00  0.00    +0.085 C 
ATOM     13  C   UNL     1      -5.601   3.494  24.838  0.00  0.00    -0.012 C 
ATOM     14  C   UNL     1      -5.339   2.385  25.863  0.00  0.00    +0.018 C 
ATOM     15  C   UNL     1      -4.312   3.803  24.068  0.00  0.00    +0.018 C 
ATOM     22  C   UNL     1      -6.148   4.748  25.515  0.00  0.00    +0.007 C 
ENDBRANCH   6   4
BRANCH   8   2
ATOM      2  O   UNL     1      -3.565  -1.034  25.800  0.00  0.00    -0.388 OA
ATOM     25  H   UNL     1      -2.983  -0.355  26.181  0.00  0.00    +0.210 HD
ENDBRANCH   8   2
BRANCH   7  12
ATOM     12  C   UNL     1      -0.817   0.670  25.553  0.00  0.00    +0.114 C 
BRANCH  12   5
ATOM      5  N   UNL     1       0.276   1.614  25.376  0.00  0.00    -0.311 NA
ATOM     24  H   UNL     1       0.609   1.554  24.413  0.00  0.00    +0.122 HD
BRANCH   5  16
ATOM     16  C   UNL     1      -0.160   2.980  25.662  0.00  0.00    +0.054 C 
ATOM     18  C   UNL     1      -0.130   3.815  24.377  0.00  0.00    +0.019 C 
ATOM     19  C   UNL     1      -1.563   2.960  26.277  0.00  0.00    +0.019 C 
ATOM     20  C   UNL     1      -0.653   5.229  24.621  0.00  0.00    +0.002 C 
ATOM     21  C   UNL     1      -2.084   4.376  26.519  0.00  0.00    +0.002 C 
ATOM     23  C   UNL     1      -2.046   5.215  25.245  0.00  0.00    +0.000 C 
ENDBRANCH   5  16
ENDBRANCH  12   5
ENDBRANCH   7  12
BRANCH   9  17
ATOM     17  C   UNL     1      -2.281  -3.277  24.655  0.00  0.00    +0.190 C 
BRANCH  17   3
ATOM      3  O   UNL     1      -3.599  -3.630  25.041  0.00  0.00    -0.392 OA
ATOM     26  H   UNL     1      -4.038  -2.815  25.341  0.00  0.00    +0.210 HD
ENDBRANCH  17   3
ENDBRANCH   9  17
TORSDOF 7
ENDMDL
MODEL 4
REMARK VINA RESULT:      -3.5      2.722      5.423
REMARK  Name = 28962402
REMARK  8 active torsions:
REMARK  status: ('A' for Active; 'I' for Inactive)
REMARK    1  A    between atoms: O_2  and  C_8
REMARK    2  A    between atoms: O_3  and  C_17
REMARK    3  A    between atoms: N_4  and  C_6
REMARK    4  A    between atoms: N_5  and  C_12
REMARK    5  A    between atoms: N_5  and  C_16
REMARK    6  A    between atoms: C_7  and  C_12
REMARK    7  A    between atoms: C_9  and  C_17
REMARK    8  A    between atoms: C_13  and  C_22
REMARK                            x       y       z     vdW  Elec       q    Type
REMARK                         _______ _______ _______ _____ _____    ______ ____
ROOT
ATOM      1  O   UNL     1      -0.583   3.311  23.536  0.00  0.00    -0.366 OA
ATOM      6  C   UNL     1      -0.327   1.239  24.679  0.00  0.00    +0.118 C 
ATOM      7  C   UNL     1      -0.834   1.896  23.389  0.00  0.00    +0.152 C 
ATOM      8  C   UNL     1      -0.430   2.362  25.699  0.00  0.00    +0.165 C 
ATOM      9  C   UNL     1      -0.029   3.557  24.842  0.00  0.00    +0.174 C 
ENDROOT
BRANCH   6   4
ATOM      4  N   UNL     1      -0.969  -0.006  25.062  0.00  0.00    -0.295 NA
ATOM     10  C   UNL     1      -0.785  -1.022  24.017  0.00  0.00    +0.085 C 
ATOM     11  C   UNL     1      -2.395   0.216  25.341  0.00  0.00    +0.085 C 
ATOM     13  C   UNL     1      -2.896  -2.195  24.765  0.00  0.00    -0.012 C 
ATOM     14  C   UNL     1      -1.411  -2.356  24.428  0.00  0.00    +0.018 C 
ATOM     15  C   UNL     1      -3.076  -1.077  25.797  0.00  0.00    +0.018 C 
ATOM     22  C   UNL     1      -3.490  -3.507  25.270  0.00  0.00    +0.007 C 
ENDBRANCH   6   4
BRANCH   8   2
ATOM      2  O   UNL     1      -1.762   2.516  26.171  0.00  0.00    -0.388 OA
ATOM     25  H   UNL     1      -2.257   1.719  25.919  0.00  0.00    +0.210 HD
ENDBRANCH   8   2
BRANCH   7  12
ATOM     12  C   UNL     1      -2.317   1.729  23.075  0.00  0.00    +0.114 C 
BRANCH  12   5
ATOM      5  N   UNL     1      -2.989   3.019  23.037  0.00  0.00    -0.311 NA
ATOM     24  H   UNL     1      -3.121   3.291  22.062  0.00  0.00    +0.122 HD
BRANCH   5  16
ATOM     16  C   UNL     1      -4.285   2.954  23.710  0.00  0.00    +0.054 C 
ATOM     18  C   UNL     1      -4.593   1.507  24.109  0.00  0.00    +0.019 C 
ATOM     19  C   UNL     1      -4.283   3.877  24.933  0.00  0.00    +0.019 C 
ATOM     20  C   UNL     1      -5.905   1.410  24.884  0.00  0.00    +0.002 C 
ATOM     21  C   UNL     1      -5.597   3.778  25.707  0.00  0.00    +0.002 C 
ATOM     23  C   UNL     1      -5.913   2.337  26.097  0.00  0.00    +0.000 C 
ENDBRANCH   5  16
ENDBRANCH  12   5
ENDBRANCH   7  12
BRANCH   9  17
ATOM     17  C   UNL     1      -0.507   4.909  25.341  0.00  0.00    +0.190 C 
BRANCH  17   3
ATOM      3  O   UNL     1      -1.684   5.268  24.637  0.00  0.00    -0.392 OA
ATOM     26  H   UNL     1      -2.413   5.276  25.281  0.00  0.00    +0.210 HD
ENDBRANCH  17   3
ENDBRANCH   9  17
TORSDOF 7
ENDMDL
MODEL 5
REMARK VINA RESULT:      -2.9     14.901     17.777
REMARK  Name = 28962402
REMARK  8 active torsions:
REMARK  status: ('A' for Active; 'I' for Inactive)
REMARK    1  A    between atoms: O_2  and  C_8
REMARK    2  A    between atoms: O_3  and  C_17
REMARK    3  A    between atoms: N_4  and  C_6
REMARK    4  A    between atoms: N_5  and  C_12
REMARK    5  A    between atoms: N_5  and  C_16
REMARK    6  A    between atoms: C_7  and  C_12
REMARK    7  A    between atoms: C_9  and  C_17
REMARK    8  A    between atoms: C_13  and  C_22
REMARK                            x       y       z     vdW  Elec       q    Type
REMARK                         _______ _______ _______ _____ _____    ______ ____
ROOT
ATOM      1  O   UNL     1      -6.573  -9.923   9.886  0.00  0.00    -0.366 OA
ATOM      6  C   UNL     1      -4.470 -10.131  10.981  0.00  0.00    +0.118 C 
ATOM      7  C   UNL     1      -5.977 -10.383  11.119  0.00  0.00    +0.152 C 
ATOM      8  C   UNL     1      -4.405  -8.979   9.989  0.00  0.00    +0.165 C 
ATOM      9  C   UNL     1      -5.547  -9.352   9.052  0.00  0.00    +0.174 C 
ENDROOT
BRANCH   6   4
ATOM      4  N   UNL     1      -3.737  -9.925  12.218  0.00  0.00    -0.295 NA
ATOM     10  C   UNL     1      -2.346 -10.372  12.072  0.00  0.00    +0.085 C 
ATOM     11  C   UNL     1      -4.403 -10.615  13.331  0.00  0.00    +0.085 C 
ATOM     13  C   UNL     1      -2.201 -10.781  14.563  0.00  0.00    -0.012 C 
ATOM     14  C   UNL     1      -1.546 -10.113  13.350  0.00  0.00    +0.018 C 
ATOM     15  C   UNL     1      -3.673 -10.364  14.652  0.00  0.00    +0.018 C 
ATOM     22  C   UNL     1      -1.456 -10.436  15.849  0.00  0.00    +0.007 C 
ENDBRANCH   6   4
BRANCH   8   2
ATOM      2  O   UNL     1      -4.668  -7.733  10.620  0.00  0.00    -0.388 OA
ATOM     25  H   UNL     1      -5.144  -7.917  11.446  0.00  0.00    +0.210 HD
ENDBRANCH   8   2
BRANCH   7  12
ATOM     12  C   UNL     1      -6.688  -9.666  12.261  0.00  0.00    +0.114 C 
BRANCH  12   5
ATOM      5  N   UNL     1      -8.131  -9.696  12.076  0.00  0.00    -0.311 NA
ATOM     24  H   UNL     1      -8.357 -10.399  11.372  0.00  0.00    +0.122 HD
BRANCH   5  16
ATOM     16  C   UNL     1      -8.813 -10.018  13.329  0.00  0.00    +0.054 C 
ATOM     18  C   UNL     1      -7.825  -9.926  14.498  0.00  0.00    +0.019 C 
ATOM     19  C   UNL     1     -10.000  -9.071  13.533  0.00  0.00    +0.019 C 
ATOM     20  C   UNL     1      -8.520 -10.181  15.834  0.00  0.00    +0.002 C 
ATOM     21  C   UNL     1     -10.693  -9.327  14.871  0.00  0.00    +0.002 C 
ATOM     23  C   UNL     1      -9.711  -9.248  16.037  0.00  0.00    +0.000 C 
ENDBRANCH   5  16
ENDBRANCH  12   5
ENDBRANCH   7  12
BRANCH   9  17
ATOM     17  C   UNL     1      -6.136  -8.204   8.251  0.00  0.00    +0.190 C 
BRANCH  17   3
ATOM      3  O   UNL     1      -7.002  -7.457   9.089  0.00  0.00    -0.392 OA
ATOM     26  H   UNL     1      -6.551  -6.620   9.294  0.00  0.00    +0.210 HD
ENDBRANCH  17   3
ENDBRANCH   9  17
TORSDOF 7
ENDMDL
MODEL 6
REMARK VINA RESULT:      -2.6      2.422      6.542
REMARK  Name = 28962402
REMARK  8 active torsions:
REMARK  status: ('A' for Active; 'I' for Inactive)
REMARK    1  A    between atoms: O_2  and  C_8
REMARK    2  A    between atoms: O_3  and  C_17
REMARK    3  A    between atoms: N_4  and  C_6
REMARK    4  A    between atoms: N_5  and  C_12
REMARK    5  A    between atoms: N_5  and  C_16
REMARK    6  A    between atoms: C_7  and  C_12
REMARK    7  A    between atoms: C_9  and  C_17
REMARK    8  A    between atoms: C_13  and  C_22
REMARK                            x       y       z     vdW  Elec       q    Type
REMARK                         _______ _______ _______ _____ _____    ______ ____
ROOT
ATOM      1  O   UNL     1      -3.651  -0.565  25.081  0.00  0.00    -0.366 OA
ATOM      6  C   UNL     1      -1.309  -0.190  24.878  0.00  0.00    +0.118 C 
ATOM      7  C   UNL     1      -2.695   0.422  24.634  0.00  0.00    +0.152 C 
ATOM      8  C   UNL     1      -1.582  -1.685  24.829  0.00  0.00    +0.165 C 
ATOM      9  C   UNL     1      -2.945  -1.745  25.508  0.00  0.00    +0.174 C 
ENDROOT
BRANCH   6   4
ATOM      4  N   UNL     1      -0.241   0.274  24.011  0.00  0.00    -0.295 NA
ATOM     10  C   UNL     1       0.635  -0.842  23.633  0.00  0.00    +0.085 C 
ATOM     11  C   UNL     1       0.521   1.348  24.663  0.00  0.00    +0.085 C 
ATOM     13  C   UNL     1       2.556   0.764  23.280  0.00  0.00    -0.012 C 
ATOM     14  C   UNL     1       1.736  -0.381  22.675  0.00  0.00    +0.018 C 
ATOM     15  C   UNL     1       1.618   1.885  23.741  0.00  0.00    +0.018 C 
ATOM     22  C   UNL     1       3.585   1.287  22.283  0.00  0.00    +0.007 C 
ENDBRANCH   6   4
BRANCH   8   2
ATOM      2  O   UNL     1      -1.674  -2.154  23.490  0.00  0.00    -0.388 OA
ATOM     25  H   UNL     1      -2.221  -2.957  23.497  0.00  0.00    +0.210 HD
ENDBRANCH   8   2
BRANCH   7  12
ATOM     12  C   UNL     1      -3.043   0.770  23.191  0.00  0.00    +0.114 C 
BRANCH  12   5
ATOM      5  N   UNL     1      -2.511   2.075  22.827  0.00  0.00    -0.311 NA
ATOM     24  H   UNL     1      -2.766   2.275  21.859  0.00  0.00    +0.122 HD
BRANCH   5  16
ATOM     16  C   UNL     1      -3.042   3.119  23.702  0.00  0.00    +0.054 C 
ATOM     18  C   UNL     1      -4.352   2.646  24.341  0.00  0.00    +0.019 C 
ATOM     19  C   UNL     1      -2.005   3.481  24.769  0.00  0.00    +0.019 C 
ATOM     20  C   UNL     1      -4.898   3.681  25.322  0.00  0.00    +0.002 C 
ATOM     21  C   UNL     1      -2.553   4.517  25.750  0.00  0.00    +0.002 C 
ATOM     23  C   UNL     1      -3.863   4.055  26.381  0.00  0.00    +0.000 C 
ENDBRANCH   5  16
ENDBRANCH  12   5
ENDBRANCH   7  12
BRANCH   9  17
ATOM     17  C   UNL     1      -3.782  -2.971  25.188  0.00  0.00    +0.190 C 
BRANCH  17   3
ATOM      3  O   UNL     1      -4.332  -2.825  23.890  0.00  0.00    -0.392 OA
ATOM     26  H   UNL     1      -4.914  -2.047  23.911  0.00  0.00    +0.210 HD
ENDBRANCH  17   3
ENDBRANCH   9  17
TORSDOF 7
ENDMDL
MODEL 7
REMARK VINA RESULT:      -2.5      3.302      6.995
REMARK  Name = 28962402
REMARK  8 active torsions:
REMARK  status: ('A' for Active; 'I' for Inactive)
REMARK    1  A    between atoms: O_2  and  C_8
REMARK    2  A    between atoms: O_3  and  C_17
REMARK    3  A    between atoms: N_4  and  C_6
REMARK    4  A    between atoms: N_5  and  C_12
REMARK    5  A    between atoms: N_5  and  C_16
REMARK    6  A    between atoms: C_7  and  C_12
REMARK    7  A    between atoms: C_9  and  C_17
REMARK    8  A    between atoms: C_13  and  C_22
REMARK                            x       y       z     vdW  Elec       q    Type
REMARK                         _______ _______ _______ _____ _____    ______ ____
ROOT
ATOM      1  O   UNL     1      -2.466  -1.904  25.516  0.00  0.00    -0.366 OA
ATOM      6  C   UNL     1      -1.456   0.246  25.662  0.00  0.00    +0.118 C 
ATOM      7  C   UNL     1      -2.790  -0.510  25.713  0.00  0.00    +0.152 C 
ATOM      8  C   UNL     1      -0.581  -0.660  24.809  0.00  0.00    +0.165 C 
ATOM      9  C   UNL     1      -1.050  -2.030  25.283  0.00  0.00    +0.174 C 
ENDROOT
BRANCH   6   4
ATOM      4  N   UNL     1      -1.519   1.632  25.231  0.00  0.00    -0.295 NA
ATOM     10  C   UNL     1      -0.323   1.984  24.455  0.00  0.00    +0.085 C 
ATOM     11  C   UNL     1      -1.683   2.523  26.387  0.00  0.00    +0.085 C 
ATOM     13  C   UNL     1      -0.600   4.412  25.102  0.00  0.00    -0.012 C 
ATOM     14  C   UNL     1      -0.398   3.425  23.948  0.00  0.00    +0.018 C 
ATOM     15  C   UNL     1      -1.806   3.983  25.946  0.00  0.00    +0.018 C 
ATOM     22  C   UNL     1      -0.775   5.836  24.581  0.00  0.00    +0.007 C 
ENDBRANCH   6   4
BRANCH   8   2
ATOM      2  O   UNL     1      -0.854  -0.494  23.424  0.00  0.00    -0.388 OA
ATOM     25  H   UNL     1      -1.421  -1.232  23.146  0.00  0.00    +0.210 HD
ENDBRANCH   8   2
BRANCH   7  12
ATOM     12  C   UNL     1      -3.829  -0.134  24.663  0.00  0.00    +0.114 C 
BRANCH  12   5
ATOM      5  N   UNL     1      -5.002   0.464  25.283  0.00  0.00    -0.311 NA
ATOM     24  H   UNL     1      -4.857   0.502  26.292  0.00  0.00    +0.122 HD
BRANCH   5  16
ATOM     16  C   UNL     1      -5.237   1.812  24.768  0.00  0.00    +0.054 C 
ATOM     18  C   UNL     1      -5.344   2.803  25.933  0.00  0.00    +0.019 C 
ATOM     19  C   UNL     1      -4.109   2.207  23.809  0.00  0.00    +0.019 C 
ATOM     20  C   UNL     1      -5.512   4.235  25.432  0.00  0.00    +0.002 C 
ATOM     21  C   UNL     1      -4.279   3.641  23.309  0.00  0.00    +0.002 C 
ATOM     23  C   UNL     1      -4.398   4.629  24.466  0.00  0.00    +0.000 C 
ENDBRANCH   5  16
ENDBRANCH  12   5
ENDBRANCH   7  12
BRANCH   9  17
ATOM     17  C   UNL     1      -0.803  -3.175  24.316  0.00  0.00    +0.190 C 
BRANCH  17   3
ATOM      3  O   UNL     1      -1.954  -3.350  23.507  0.00  0.00    -0.392 OA
ATOM     26  H   UNL     1      -2.561  -3.934  23.993  0.00  0.00    +0.210 HD
ENDBRANCH  17   3
ENDBRANCH   9  17
TORSDOF 7
ENDMDL
MODEL 8
REMARK VINA RESULT:      -2.4      2.035      5.626
REMARK  Name = 28962402
REMARK  8 active torsions:
REMARK  status: ('A' for Active; 'I' for Inactive)
REMARK    1  A    between atoms: O_2  and  C_8
REMARK    2  A    between atoms: O_3  and  C_17
REMARK    3  A    between atoms: N_4  and  C_6
REMARK    4  A    between atoms: N_5  and  C_12
REMARK    5  A    between atoms: N_5  and  C_16
REMARK    6  A    between atoms: C_7  and  C_12
REMARK    7  A    between atoms: C_9  and  C_17
REMARK    8  A    between atoms: C_13  and  C_22
REMARK                            x       y       z     vdW  Elec       q    Type
REMARK                         _______ _______ _______ _____ _____    ______ ____
ROOT
ATOM      1  O   UNL     1      -4.245   3.295  23.747  0.00  0.00    -0.366 OA
ATOM      6  C   UNL     1      -1.897   2.971  23.964  0.00  0.00    +0.118 C 
ATOM      7  C   UNL     1      -3.149   2.536  23.190  0.00  0.00    +0.152 C 
ATOM      8  C   UNL     1      -2.463   3.435  25.298  0.00  0.00    +0.165 C 
ATOM      9  C   UNL     1      -3.756   4.097  24.838  0.00  0.00    +0.174 C 
ENDROOT
BRANCH   6   4
ATOM      4  N   UNL     1      -0.825   1.995  24.052  0.00  0.00    -0.295 NA
ATOM     10  C   UNL     1       0.472   2.631  23.791  0.00  0.00    +0.085 C 
ATOM     11  C   UNL     1      -1.066   0.881  23.123  0.00  0.00    +0.085 C 
ATOM     13  C   UNL     1       1.417   0.420  23.011  0.00  0.00    -0.012 C 
ATOM     14  C   UNL     1       1.618   1.627  23.932  0.00  0.00    +0.018 C 
ATOM     15  C   UNL     1       0.027  -0.183  23.242  0.00  0.00    +0.018 C 
ATOM     22  C   UNL     1       2.509  -0.624  23.229  0.00  0.00    +0.007 C 
ENDBRANCH   6   4
BRANCH   8   2
ATOM      2  O   UNL     1      -2.745   2.336  26.154  0.00  0.00    -0.388 OA
ATOM     25  H   UNL     1      -1.968   2.198  26.721  0.00  0.00    +0.210 HD
ENDBRANCH   8   2
BRANCH   7  12
ATOM     12  C   UNL     1      -3.528   1.062  23.277  0.00  0.00    +0.114 C 
BRANCH  12   5
ATOM      5  N   UNL     1      -4.391   0.813  24.422  0.00  0.00    -0.311 NA
ATOM     24  H   UNL     1      -5.347   1.070  24.173  0.00  0.00    +0.122 HD
BRANCH   5  16
ATOM     16  C   UNL     1      -4.346  -0.594  24.815  0.00  0.00    +0.054 C 
ATOM     18  C   UNL     1      -4.260  -1.481  23.569  0.00  0.00    +0.019 C 
ATOM     19  C   UNL     1      -3.156  -0.836  25.750  0.00  0.00    +0.019 C 
ATOM     20  C   UNL     1      -4.134  -2.956  23.943  0.00  0.00    +0.002 C 
ATOM     21  C   UNL     1      -3.032  -2.312  26.122  0.00  0.00    +0.002 C 
ATOM     23  C   UNL     1      -2.956  -3.200  24.884  0.00  0.00    +0.000 C 
ENDBRANCH   5  16
ENDBRANCH  12   5
ENDBRANCH   7  12
BRANCH   9  17
ATOM     17  C   UNL     1      -4.840   4.216  25.895  0.00  0.00    +0.190 C 
BRANCH  17   3
ATOM      3  O   UNL     1      -5.718   3.109  25.779  0.00  0.00    -0.392 OA
ATOM     26  H   UNL     1      -5.838   2.743  26.672  0.00  0.00    +0.210 HD
ENDBRANCH  17   3
ENDBRANCH   9  17
TORSDOF 7
ENDMDL
MODEL 9
REMARK VINA RESULT:      -2.1      2.072      4.505
REMARK  Name = 28962402
REMARK  8 active torsions:
REMARK  status: ('A' for Active; 'I' for Inactive)
REMARK    1  A    between atoms: O_2  and  C_8
REMARK    2  A    between atoms: O_3  and  C_17
REMARK    3  A    between atoms: N_4  and  C_6
REMARK    4  A    between atoms: N_5  and  C_12
REMARK    5  A    between atoms: N_5  and  C_16
REMARK    6  A    between atoms: C_7  and  C_12
REMARK    7  A    between atoms: C_9  and  C_17
REMARK    8  A    between atoms: C_13  and  C_22
REMARK                            x       y       z     vdW  Elec       q    Type
REMARK                         _______ _______ _______ _____ _____    ______ ____
ROOT
ATOM      1  O   UNL     1      -0.361  -1.529  23.647  0.00  0.00    -0.366 OA
ATOM      6  C   UNL     1      -1.659   0.462  23.781  0.00  0.00    +0.118 C 
ATOM      7  C   UNL     1      -0.471  -0.207  23.076  0.00  0.00    +0.152 C 
ATOM      8  C   UNL     1      -1.715  -0.261  25.117  0.00  0.00    +0.165 C 
ATOM      9  C   UNL     1      -1.348  -1.676  24.686  0.00  0.00    +0.174 C 
ENDROOT
BRANCH   6   4
ATOM      4  N   UNL     1      -1.624   1.912  23.862  0.00  0.00    -0.295 NA
ATOM     10  C   UNL     1      -0.557   2.350  24.770  0.00  0.00    +0.085 C 
ATOM     11  C   UNL     1      -2.930   2.435  24.286  0.00  0.00    +0.085 C 
ATOM     13  C   UNL     1      -1.812   4.495  25.234  0.00  0.00    -0.012 C 
ATOM     14  C   UNL     1      -0.471   3.877  24.826  0.00  0.00    +0.018 C 
ATOM     15  C   UNL     1      -2.926   3.964  24.325  0.00  0.00    +0.018 C 
ATOM     22  C   UNL     1      -1.750   6.019  25.190  0.00  0.00    +0.007 C 
ENDBRANCH   6   4
BRANCH   8   2
ATOM      2  O   UNL     1      -0.748   0.248  26.026  0.00  0.00    -0.388 OA
ATOM     25  H   UNL     1       0.081   0.373  25.534  0.00  0.00    +0.210 HD
ENDBRANCH   8   2
BRANCH   7  12
ATOM     12  C   UNL     1       0.886   0.470  23.234  0.00  0.00    +0.114 C 
BRANCH  12   5
ATOM      5  N   UNL     1       1.690   0.312  22.031  0.00  0.00    -0.311 NA
ATOM     24  H   UNL     1       1.693   1.196  21.521  0.00  0.00    +0.122 HD
BRANCH   5  16
ATOM     16  C   UNL     1       3.061  -0.070  22.364  0.00  0.00    +0.054 C 
ATOM     18  C   UNL     1       3.839   1.157  22.853  0.00  0.00    +0.019 C 
ATOM     19  C   UNL     1       3.052  -1.177  23.423  0.00  0.00    +0.019 C 
ATOM     20  C   UNL     1       5.255   0.782  23.283  0.00  0.00    +0.002 C 
ATOM     21  C   UNL     1       4.470  -1.549  23.851  0.00  0.00    +0.002 C 
ATOM     23  C   UNL     1       5.252  -0.329  24.330  0.00  0.00    +0.000 C 
ENDBRANCH   5  16
ENDBRANCH  12   5
ENDBRANCH   7  12
BRANCH   9  17
ATOM     17  C   UNL     1      -0.790  -2.568  25.782  0.00  0.00    +0.190 C 
BRANCH  17   3
ATOM      3  O   UNL     1       0.595  -2.304  25.929  0.00  0.00    -0.392 OA
ATOM     26  H   UNL     1       0.804  -2.385  26.875  0.00  0.00    +0.210 HD
ENDBRANCH  17   3
ENDBRANCH   9  17
TORSDOF 7
ENDMDL
MODEL 10
REMARK VINA RESULT:      -1.9      2.723      5.147
REMARK  Name = 28962402
REMARK  8 active torsions:
REMARK  status: ('A' for Active; 'I' for Inactive)
REMARK    1  A    between atoms: O_2  and  C_8
REMARK    2  A    between atoms: O_3  and  C_17
REMARK    3  A    between atoms: N_4  and  C_6
REMARK    4  A    between atoms: N_5  and  C_12
REMARK    5  A    between atoms: N_5  and  C_16
REMARK    6  A    between atoms: C_7  and  C_12
REMARK    7  A    between atoms: C_9  and  C_17
REMARK    8  A    between atoms: C_13  and  C_22
REMARK                            x       y       z     vdW  Elec       q    Type
REMARK                         _______ _______ _______ _____ _____    ______ ____
ROOT
ATOM      1  O   UNL     1       0.244   2.257  24.268  0.00  0.00    -0.366 OA
ATOM      6  C   UNL     1      -0.460  -0.017  24.250  0.00  0.00    +0.118 C 
ATOM      7  C   UNL     1      -0.331   1.255  23.401  0.00  0.00    +0.152 C 
ATOM      8  C   UNL     1      -0.562   0.527  25.667  0.00  0.00    +0.165 C 
ATOM      9  C   UNL     1       0.404   1.702  25.587  0.00  0.00    +0.174 C 
ENDROOT
BRANCH   6   4
ATOM      4  N   UNL     1      -1.510  -0.943  23.864  0.00  0.00    -0.295 NA
ATOM     10  C   UNL     1      -2.828  -0.406  24.228  0.00  0.00    +0.085 C 
ATOM     11  C   UNL     1      -1.286  -2.259  24.478  0.00  0.00    +0.085 C 
ATOM     13  C   UNL     1      -3.763  -2.752  24.360  0.00  0.00    -0.012 C 
ATOM     14  C   UNL     1      -3.949  -1.346  23.780  0.00  0.00    +0.018 C 
ATOM     15  C   UNL     1      -2.354  -3.262  24.039  0.00  0.00    +0.018 C 
ATOM     22  C   UNL     1      -4.827  -3.709  23.830  0.00  0.00    +0.007 C 
ENDBRANCH   6   4
BRANCH   8   2
ATOM      2  O   UNL     1      -1.877   0.984  25.955  0.00  0.00    -0.388 OA
ATOM     25  H   UNL     1      -2.457   0.683  25.237  0.00  0.00    +0.210 HD
ENDBRANCH   8   2
BRANCH   7  12
ATOM     12  C   UNL     1      -1.625   1.833  22.836  0.00  0.00    +0.114 C 
BRANCH  12   5
ATOM      5  N   UNL     1      -1.947   3.103  23.470  0.00  0.00    -0.311 NA
ATOM     24  H   UNL     1      -2.280   3.751  22.755  0.00  0.00    +0.122 HD
BRANCH   5  16
ATOM     16  C   UNL     1      -2.975   2.930  24.495  0.00  0.00    +0.054 C 
ATOM     18  C   UNL     1      -3.080   4.201  25.346  0.00  0.00    +0.019 C 
ATOM     19  C   UNL     1      -4.317   2.594  23.836  0.00  0.00    +0.019 C 
ATOM     20  C   UNL     1      -4.198   4.087  26.380  0.00  0.00    +0.002 C 
ATOM     21  C   UNL     1      -5.433   2.481  24.872  0.00  0.00    +0.002 C 
ATOM     23  C   UNL     1      -5.535   3.739  25.729  0.00  0.00    +0.000 C 
ENDBRANCH   5  16
ENDBRANCH  12   5
ENDBRANCH   7  12
BRANCH   9  17
ATOM     17  C   UNL     1       0.190   2.796  26.619  0.00  0.00    +0.190 C 
BRANCH  17   3
ATOM      3  O   UNL     1       1.155   2.653  27.647  0.00  0.00    -0.392 OA
ATOM     26  H   UNL     1       0.946   1.832  28.125  0.00  0.00    +0.210 HD
ENDBRANCH  17   3
ENDBRANCH   9  17
TORSDOF 7
ENDMDL
