MODEL 1
REMARK VINA RESULT:       0.8      0.000      0.000
REMARK  Name = 28962421
REMARK  16 active torsions:
REMARK  status: ('A' for Active; 'I' for Inactive)
REMARK    1  A    between atoms: O_1  and  C_11
REMARK    2  A    between atoms: O_4  and  C_27
REMARK    3  A    between atoms: O_4  and  C_29
REMARK    4  A    between atoms: O_5  and  C_28
REMARK    5  A    between atoms: O_5  and  C_30
REMARK    6  A    between atoms: N_6  and  C_15
REMARK    7  A    between atoms: N_7  and  C_25
REMARK    8  A    between atoms: N_7  and  C_26
REMARK    9  A    between atoms: C_8  and  C_18
REMARK   10  A    between atoms: C_10  and  C_20
REMARK   11  A    between atoms: C_13  and  C_19
REMARK   12  A    between atoms: C_19  and  C_21
REMARK   13  A    between atoms: C_19  and  C_22
REMARK   14  A    between atoms: C_23  and  C_24
REMARK   15  A    between atoms: C_25  and  C_27
REMARK   16  A    between atoms: C_26  and  C_28
REMARK                            x       y       z     vdW  Elec       q    Type
REMARK                         _______ _______ _______ _____ _____    ______ ____
ROOT
ATOM      8  C   UNL     1      -1.905  -1.164  25.064  0.00  0.00    -0.027 C 
ATOM      9  C   UNL     1      -1.772   0.099  24.150  0.00  0.00    +0.028 C 
ATOM     10  C   UNL     1      -0.274   0.558  24.043  0.00  0.00    +0.012 C 
ATOM     11  C   UNL     1      -2.782   1.207  24.569  0.00  0.00    +0.122 C 
ATOM     12  C   UNL     1      -3.372  -1.656  25.055  0.00  0.00    +0.007 C 
ATOM     13  C   UNL     1      -4.234   0.684  24.662  0.00  0.00    +0.029 C 
ATOM     14  C   UNL     1      -1.027  -2.298  24.486  0.00  0.00    +0.009 C 
ATOM     15  C   UNL     1       0.612  -0.613  23.533  0.00  0.00    +0.076 C 
ATOM     16  C   UNL     1      -4.359  -0.585  25.504  0.00  0.00    +0.007 C 
ATOM     17  C   UNL     1       0.436  -1.902  24.335  0.00  0.00    +0.023 C 
ATOM     18  C   UNL     1      -1.482  -0.886  26.528  0.00  0.00    +0.011 C 
ATOM     20  C   UNL     1      -0.068   1.782  23.135  0.00  0.00    +0.010 C 
ENDROOT
BRANCH  15   6
ATOM      3  O   UNL     1       2.306  -0.117  21.228  0.00  0.00    -0.276 OA
ATOM      6  N   UNL     1       2.017  -0.261  23.534  0.00  0.00    -0.312 N 
ATOM     23  C   UNL     1       2.740  -0.044  22.375  0.00  0.00    +0.210 C 
ATOM     24  C   UNL     1       4.170   0.331  22.660  0.00  0.00    +0.109 C 
ATOM     31  H   UNL     1       2.500  -0.232  24.427  0.00  0.00    +0.149 HD
ENDBRANCH  15   6
BRANCH  11   1
ATOM      1  O   UNL     1      -2.783   2.247  23.591  0.00  0.00    -0.391 OA
ATOM     32  H   UNL     1      -2.798   3.101  24.058  0.00  0.00    +0.210 HD
ENDBRANCH  11   1
BRANCH  13  19
ATOM     19  C   UNL     1      -5.191   1.753  25.201  0.00  0.00    +0.078 C 
ATOM     21  C   UNL     1      -6.625   1.410  24.789  0.00  0.00    +0.017 C 
BRANCH  19  22
ATOM      2  O   UNL     1      -5.077   3.449  23.513  0.00  0.00    -0.275 OA
ATOM      7  N   UNL     1      -4.066   3.972  25.528  0.00  0.00    -0.297 N 
ATOM     22  C   UNL     1      -4.782   3.130  24.671  0.00  0.00    +0.219 C 
BRANCH   7  25
ATOM     25  C   UNL     1      -3.641   5.282  25.046  0.00  0.00    +0.136 C 
BRANCH  25  27
ATOM     27  C   UNL     1      -2.397   5.183  24.182  0.00  0.00    +0.178 C 
BRANCH  27   4
ATOM      4  O   UNL     1      -1.276   5.666  24.912  0.00  0.00    -0.381 OA
ATOM     29  C   UNL     1      -0.056   5.155  24.393  0.00  0.00    +0.194 C 
ENDBRANCH  27   4
ENDBRANCH  25  27
ENDBRANCH   7  25
BRANCH   7  26
ATOM     26  C   UNL     1      -3.709   3.688  26.916  0.00  0.00    +0.136 C 
BRANCH  26  28
ATOM     28  C   UNL     1      -2.210   3.778  27.136  0.00  0.00    +0.178 C 
BRANCH  28   5
ATOM      5  O   UNL     1      -1.558   2.781  26.358  0.00  0.00    -0.381 OA
ATOM     30  C   UNL     1      -0.199   2.628  26.744  0.00  0.00    +0.194 C 
ENDBRANCH  28   5
ENDBRANCH  26  28
ENDBRANCH   7  26
ENDBRANCH  19  22
ENDBRANCH  13  19
TORSDOF 10
ENDMDL
MODEL 2
REMARK VINA RESULT:       2.8      1.256      2.046
REMARK  Name = 28962421
REMARK  16 active torsions:
REMARK  status: ('A' for Active; 'I' for Inactive)
REMARK    1  A    between atoms: O_1  and  C_11
REMARK    2  A    between atoms: O_4  and  C_27
REMARK    3  A    between atoms: O_4  and  C_29
REMARK    4  A    between atoms: O_5  and  C_28
REMARK    5  A    between atoms: O_5  and  C_30
REMARK    6  A    between atoms: N_6  and  C_15
REMARK    7  A    between atoms: N_7  and  C_25
REMARK    8  A    between atoms: N_7  and  C_26
REMARK    9  A    between atoms: C_8  and  C_18
REMARK   10  A    between atoms: C_10  and  C_20
REMARK   11  A    between atoms: C_13  and  C_19
REMARK   12  A    between atoms: C_19  and  C_21
REMARK   13  A    between atoms: C_19  and  C_22
REMARK   14  A    between atoms: C_23  and  C_24
REMARK   15  A    between atoms: C_25  and  C_27
REMARK   16  A    between atoms: C_26  and  C_28
REMARK                            x       y       z     vdW  Elec       q    Type
REMARK                         _______ _______ _______ _____ _____    ______ ____
ROOT
ATOM      8  C   UNL     1      -1.831  -1.118  24.603  0.00  0.00    -0.027 C 
ATOM      9  C   UNL     1      -1.488   0.392  24.379  0.00  0.00    +0.028 C 
ATOM     10  C   UNL     1       0.057   0.640  24.507  0.00  0.00    +0.012 C 
ATOM     11  C   UNL     1      -2.388   1.311  25.255  0.00  0.00    +0.122 C 
ATOM     12  C   UNL     1      -3.342  -1.347  24.358  0.00  0.00    +0.007 C 
ATOM     13  C   UNL     1      -3.894   1.007  25.084  0.00  0.00    +0.029 C 
ATOM     14  C   UNL     1      -1.054  -1.969  23.573  0.00  0.00    +0.009 C 
ATOM     15  C   UNL     1       0.834  -0.276  23.520  0.00  0.00    +0.076 C 
ATOM     16  C   UNL     1      -4.225  -0.477  25.243  0.00  0.00    +0.007 C 
ATOM     17  C   UNL     1       0.452  -1.751  23.633  0.00  0.00    +0.023 C 
ATOM     18  C   UNL     1      -1.481  -1.601  26.033  0.00  0.00    +0.011 C 
ATOM     20  C   UNL     1       0.468   2.104  24.269  0.00  0.00    +0.010 C 
ENDROOT
BRANCH  15   6
ATOM      3  O   UNL     1       2.828   0.171  21.458  0.00  0.00    -0.276 OA
ATOM      6  N   UNL     1       2.266  -0.158  23.693  0.00  0.00    -0.312 N 
ATOM     23  C   UNL     1       3.138   0.055  22.641  0.00  0.00    +0.210 C 
ATOM     24  C   UNL     1       4.567   0.163  23.102  0.00  0.00    +0.109 C 
ATOM     31  H   UNL     1       2.646  -0.297  24.626  0.00  0.00    +0.149 HD
ENDBRANCH  15   6
BRANCH  11   1
ATOM      1  O   UNL     1      -2.200   2.673  24.869  0.00  0.00    -0.391 OA
ATOM     32  H   UNL     1      -2.428   3.237  25.629  0.00  0.00    +0.210 HD
ENDBRANCH  11   1
BRANCH  13  19
ATOM     19  C   UNL     1      -4.755   1.830  26.050  0.00  0.00    +0.078 C 
ATOM     21  C   UNL     1      -6.232   1.500  25.825  0.00  0.00    +0.017 C 
BRANCH  19  22
ATOM      2  O   UNL     1      -4.256   4.043  26.818  0.00  0.00    -0.275 OA
ATOM      7  N   UNL     1      -4.534   3.816  24.532  0.00  0.00    -0.297 N 
ATOM     22  C   UNL     1      -4.486   3.323  25.840  0.00  0.00    +0.219 C 
BRANCH   7  25
ATOM     25  C   UNL     1      -4.305   5.238  24.300  0.00  0.00    +0.136 C 
BRANCH  25  27
ATOM     27  C   UNL     1      -2.848   5.525  23.989  0.00  0.00    +0.178 C 
BRANCH  27   4
ATOM      4  O   UNL     1      -2.078   5.398  25.177  0.00  0.00    -0.381 OA
ATOM     29  C   UNL     1      -0.687   5.328  24.893  0.00  0.00    +0.194 C 
ENDBRANCH  27   4
ENDBRANCH  25  27
ENDBRANCH   7  25
BRANCH   7  26
ATOM     26  C   UNL     1      -4.765   3.030  23.322  0.00  0.00    +0.136 C 
BRANCH  26  28
ATOM     28  C   UNL     1      -3.842   3.457  22.196  0.00  0.00    +0.178 C 
BRANCH  28   5
ATOM      5  O   UNL     1      -2.631   2.715  22.269  0.00  0.00    -0.381 OA
ATOM     30  C   UNL     1      -2.565   1.724  21.253  0.00  0.00    +0.194 C 
ENDBRANCH  28   5
ENDBRANCH  26  28
ENDBRANCH   7  26
ENDBRANCH  19  22
ENDBRANCH  13  19
TORSDOF 10
ENDMDL
MODEL 3
REMARK VINA RESULT:       2.8      1.037      1.651
REMARK  Name = 28962421
REMARK  16 active torsions:
REMARK  status: ('A' for Active; 'I' for Inactive)
REMARK    1  A    between atoms: O_1  and  C_11
REMARK    2  A    between atoms: O_4  and  C_27
REMARK    3  A    between atoms: O_4  and  C_29
REMARK    4  A    between atoms: O_5  and  C_28
REMARK    5  A    between atoms: O_5  and  C_30
REMARK    6  A    between atoms: N_6  and  C_15
REMARK    7  A    between atoms: N_7  and  C_25
REMARK    8  A    between atoms: N_7  and  C_26
REMARK    9  A    between atoms: C_8  and  C_18
REMARK   10  A    between atoms: C_10  and  C_20
REMARK   11  A    between atoms: C_13  and  C_19
REMARK   12  A    between atoms: C_19  and  C_21
REMARK   13  A    between atoms: C_19  and  C_22
REMARK   14  A    between atoms: C_23  and  C_24
REMARK   15  A    between atoms: C_25  and  C_27
REMARK   16  A    between atoms: C_26  and  C_28
REMARK                            x       y       z     vdW  Elec       q    Type
REMARK                         _______ _______ _______ _____ _____    ______ ____
ROOT
ATOM      8  C   UNL     1      -1.660  -1.286  25.153  0.00  0.00    -0.027 C 
ATOM      9  C   UNL     1      -1.391  -0.205  24.054  0.00  0.00    +0.028 C 
ATOM     10  C   UNL     1       0.130   0.184  24.012  0.00  0.00    +0.012 C 
ATOM     11  C   UNL     1      -2.383   0.988  24.182  0.00  0.00    +0.122 C 
ATOM     12  C   UNL     1      -3.141  -1.729  25.090  0.00  0.00    +0.007 C 
ATOM     13  C   UNL     1      -3.860   0.531  24.225  0.00  0.00    +0.029 C 
ATOM     14  C   UNL     1      -0.786  -2.528  24.861  0.00  0.00    +0.009 C 
ATOM     15  C   UNL     1       1.004  -1.083  23.794  0.00  0.00    +0.076 C 
ATOM     16  C   UNL     1      -4.115  -0.569  25.255  0.00  0.00    +0.007 C 
ATOM     17  C   UNL     1       0.700  -2.208  24.783  0.00  0.00    +0.023 C 
ATOM     18  C   UNL     1      -1.354  -0.771  26.581  0.00  0.00    +0.011 C 
ATOM     20  C   UNL     1       0.470   1.226  22.932  0.00  0.00    +0.010 C 
ENDROOT
BRANCH  15   6
ATOM      3  O   UNL     1       2.686  -0.009  21.685  0.00  0.00    -0.276 OA
ATOM      6  N   UNL     1       2.417  -0.777  23.867  0.00  0.00    -0.312 N 
ATOM     23  C   UNL     1       3.134  -0.266  22.800  0.00  0.00    +0.210 C 
ATOM     24  C   UNL     1       4.576  -0.017  23.152  0.00  0.00    +0.109 C 
ATOM     31  H   UNL     1       2.911  -1.006  24.725  0.00  0.00    +0.149 HD
ENDBRANCH  15   6
BRANCH  11   1
ATOM      1  O   UNL     1      -2.252   1.842  23.045  0.00  0.00    -0.391 OA
ATOM     32  H   UNL     1      -2.105   1.282  22.263  0.00  0.00    +0.210 HD
ENDBRANCH  11   1
BRANCH  13  19
ATOM     19  C   UNL     1      -4.812   1.705  24.482  0.00  0.00    +0.078 C 
ATOM     21  C   UNL     1      -6.145   1.445  23.777  0.00  0.00    +0.017 C 
BRANCH  19  22
ATOM      2  O   UNL     1      -4.251   3.308  22.792  0.00  0.00    -0.275 OA
ATOM      7  N   UNL     1      -3.505   3.801  24.927  0.00  0.00    -0.297 N 
ATOM     22  C   UNL     1      -4.174   3.007  23.989  0.00  0.00    +0.219 C 
BRANCH   7  25
ATOM     25  C   UNL     1      -2.868   5.037  24.486  0.00  0.00    +0.136 C 
BRANCH  25  27
ATOM     27  C   UNL     1      -1.460   5.167  25.038  0.00  0.00    +0.178 C 
BRANCH  27   4
ATOM      4  O   UNL     1      -0.670   4.077  24.580  0.00  0.00    -0.381 OA
ATOM     29  C   UNL     1      -0.069   3.378  25.661  0.00  0.00    +0.194 C 
ENDBRANCH  27   4
ENDBRANCH  25  27
ENDBRANCH   7  25
BRANCH   7  26
ATOM     26  C   UNL     1      -3.398   3.537  26.360  0.00  0.00    +0.136 C 
BRANCH  26  28
ATOM     28  C   UNL     1      -4.628   4.017  27.109  0.00  0.00    +0.178 C 
BRANCH  28   5
ATOM      5  O   UNL     1      -5.796   3.527  26.462  0.00  0.00    -0.381 OA
ATOM     30  C   UNL     1      -6.188   2.264  26.983  0.00  0.00    +0.194 C 
ENDBRANCH  28   5
ENDBRANCH  26  28
ENDBRANCH   7  26
ENDBRANCH  19  22
ENDBRANCH  13  19
TORSDOF 10
ENDMDL
MODEL 4
REMARK VINA RESULT:       2.8      0.915      1.896
REMARK  Name = 28962421
REMARK  16 active torsions:
REMARK  status: ('A' for Active; 'I' for Inactive)
REMARK    1  A    between atoms: O_1  and  C_11
REMARK    2  A    between atoms: O_4  and  C_27
REMARK    3  A    between atoms: O_4  and  C_29
REMARK    4  A    between atoms: O_5  and  C_28
REMARK    5  A    between atoms: O_5  and  C_30
REMARK    6  A    between atoms: N_6  and  C_15
REMARK    7  A    between atoms: N_7  and  C_25
REMARK    8  A    between atoms: N_7  and  C_26
REMARK    9  A    between atoms: C_8  and  C_18
REMARK   10  A    between atoms: C_10  and  C_20
REMARK   11  A    between atoms: C_13  and  C_19
REMARK   12  A    between atoms: C_19  and  C_21
REMARK   13  A    between atoms: C_19  and  C_22
REMARK   14  A    between atoms: C_23  and  C_24
REMARK   15  A    between atoms: C_25  and  C_27
REMARK   16  A    between atoms: C_26  and  C_28
REMARK                            x       y       z     vdW  Elec       q    Type
REMARK                         _______ _______ _______ _____ _____    ______ ____
ROOT
ATOM      8  C   UNL     1      -2.210  -1.001  24.862  0.00  0.00    -0.027 C 
ATOM      9  C   UNL     1      -1.780   0.114  23.852  0.00  0.00    +0.028 C 
ATOM     10  C   UNL     1      -0.232   0.370  23.927  0.00  0.00    +0.012 C 
ATOM     11  C   UNL     1      -2.674   1.380  23.994  0.00  0.00    +0.122 C 
ATOM     12  C   UNL     1      -3.716  -1.308  24.681  0.00  0.00    +0.007 C 
ATOM     13  C   UNL     1      -4.184   1.053  23.918  0.00  0.00    +0.029 C 
ATOM     14  C   UNL     1      -1.427  -2.296  24.546  0.00  0.00    +0.009 C 
ATOM     15  C   UNL     1       0.545  -0.954  23.683  0.00  0.00    +0.076 C 
ATOM     16  C   UNL     1      -4.597  -0.078  24.860  0.00  0.00    +0.007 C 
ATOM     17  C   UNL     1       0.084  -2.103  24.579  0.00  0.00    +0.023 C 
ATOM     18  C   UNL     1      -1.958  -0.598  26.336  0.00  0.00    +0.011 C 
ATOM     20  C   UNL     1       0.265   1.438  22.938  0.00  0.00    +0.010 C 
ENDROOT
BRANCH  15   6
ATOM      3  O   UNL     1       2.479  -0.112  21.689  0.00  0.00    -0.276 OA
ATOM      6  N   UNL     1       1.971  -0.778  23.861  0.00  0.00    -0.312 N 
ATOM     23  C   UNL     1       2.814  -0.372  22.842  0.00  0.00    +0.210 C 
ATOM     24  C   UNL     1       4.241  -0.246  23.302  0.00  0.00    +0.109 C 
ATOM     31  H   UNL     1       2.373  -1.023  24.762  0.00  0.00    +0.149 HD
ENDBRANCH  15   6
BRANCH  11   1
ATOM      1  O   UNL     1      -2.397   2.283  22.924  0.00  0.00    -0.391 OA
ATOM     32  H   UNL     1      -2.870   3.116  23.101  0.00  0.00    +0.210 HD
ENDBRANCH  11   1
BRANCH  13  19
ATOM     19  C   UNL     1      -5.049   2.289  24.191  0.00  0.00    +0.078 C 
ATOM     21  C   UNL     1      -4.802   3.334  23.100  0.00  0.00    +0.017 C 
BRANCH  19  22
ATOM      2  O   UNL     1      -5.398   2.500  26.551  0.00  0.00    -0.275 OA
ATOM      7  N   UNL     1      -3.675   3.774  25.677  0.00  0.00    -0.297 N 
ATOM     22  C   UNL     1      -4.724   2.854  25.576  0.00  0.00    +0.219 C 
BRANCH   7  25
ATOM     25  C   UNL     1      -3.355   4.347  26.979  0.00  0.00    +0.136 C 
BRANCH  25  27
ATOM     27  C   UNL     1      -2.113   3.714  27.578  0.00  0.00    +0.178 C 
BRANCH  27   4
ATOM      4  O   UNL     1      -1.519   2.844  26.623  0.00  0.00    -0.381 OA
ATOM     29  C   UNL     1      -0.133   2.658  26.878  0.00  0.00    +0.194 C 
ENDBRANCH  27   4
ENDBRANCH  25  27
ENDBRANCH   7  25
BRANCH   7  26
ATOM     26  C   UNL     1      -2.811   4.217  24.585  0.00  0.00    +0.136 C 
BRANCH  26  28
ATOM     28  C   UNL     1      -2.250   5.603  24.846  0.00  0.00    +0.178 C 
BRANCH  28   5
ATOM      5  O   UNL     1      -0.832   5.530  24.935  0.00  0.00    -0.381 OA
ATOM     30  C   UNL     1      -0.289   4.705  23.914  0.00  0.00    +0.194 C 
ENDBRANCH  28   5
ENDBRANCH  26  28
ENDBRANCH   7  26
ENDBRANCH  19  22
ENDBRANCH  13  19
TORSDOF 10
ENDMDL
MODEL 5
REMARK VINA RESULT:       3.3      2.281      4.830
REMARK  Name = 28962421
REMARK  16 active torsions:
REMARK  status: ('A' for Active; 'I' for Inactive)
REMARK    1  A    between atoms: O_1  and  C_11
REMARK    2  A    between atoms: O_4  and  C_27
REMARK    3  A    between atoms: O_4  and  C_29
REMARK    4  A    between atoms: O_5  and  C_28
REMARK    5  A    between atoms: O_5  and  C_30
REMARK    6  A    between atoms: N_6  and  C_15
REMARK    7  A    between atoms: N_7  and  C_25
REMARK    8  A    between atoms: N_7  and  C_26
REMARK    9  A    between atoms: C_8  and  C_18
REMARK   10  A    between atoms: C_10  and  C_20
REMARK   11  A    between atoms: C_13  and  C_19
REMARK   12  A    between atoms: C_19  and  C_21
REMARK   13  A    between atoms: C_19  and  C_22
REMARK   14  A    between atoms: C_23  and  C_24
REMARK   15  A    between atoms: C_25  and  C_27
REMARK   16  A    between atoms: C_26  and  C_28
REMARK                            x       y       z     vdW  Elec       q    Type
REMARK                         _______ _______ _______ _____ _____    ______ ____
ROOT
ATOM      8  C   UNL     1      -0.313   0.142  24.172  0.00  0.00    -0.027 C 
ATOM      9  C   UNL     1      -1.569   0.411  25.066  0.00  0.00    +0.028 C 
ATOM     10  C   UNL     1      -2.645  -0.716  24.869  0.00  0.00    +0.012 C 
ATOM     11  C   UNL     1      -2.087   1.868  24.888  0.00  0.00    +0.122 C 
ATOM     12  C   UNL     1       0.771   1.205  24.474  0.00  0.00    +0.007 C 
ATOM     13  C   UNL     1      -0.974   2.922  25.088  0.00  0.00    +0.029 C 
ATOM     14  C   UNL     1       0.275  -1.242  24.531  0.00  0.00    +0.009 C 
ATOM     15  C   UNL     1      -2.024  -2.111  25.159  0.00  0.00    +0.076 C 
ATOM     16  C   UNL     1       0.279   2.631  24.263  0.00  0.00    +0.007 C 
ATOM     17  C   UNL     1      -0.733  -2.374  24.385  0.00  0.00    +0.023 C 
ATOM     18  C   UNL     1      -0.640   0.182  22.659  0.00  0.00    +0.011 C 
ATOM     20  C   UNL     1      -3.899  -0.529  25.741  0.00  0.00    +0.010 C 
ENDROOT
BRANCH  15   6
ATOM      3  O   UNL     1      -4.169  -2.109  23.204  0.00  0.00    -0.276 OA
ATOM      6  N   UNL     1      -2.956  -3.182  24.875  0.00  0.00    -0.312 N 
ATOM     23  C   UNL     1      -3.949  -3.083  23.919  0.00  0.00    +0.210 C 
ATOM     24  C   UNL     1      -4.760  -4.347  23.810  0.00  0.00    +0.109 C 
ATOM     31  H   UNL     1      -2.909  -4.020  25.449  0.00  0.00    +0.149 HD
ENDBRANCH  15   6
BRANCH  11   1
ATOM      1  O   UNL     1      -3.089   2.141  25.868  0.00  0.00    -0.391 OA
ATOM     32  H   UNL     1      -2.996   3.069  26.145  0.00  0.00    +0.210 HD
ENDBRANCH  11   1
BRANCH  13  19
ATOM     19  C   UNL     1      -1.471   4.340  24.782  0.00  0.00    +0.078 C 
ATOM     21  C   UNL     1      -0.415   5.357  25.219  0.00  0.00    +0.017 C 
BRANCH  19  22
ATOM      2  O   UNL     1      -2.815   4.740  26.724  0.00  0.00    -0.275 OA
ATOM      7  N   UNL     1      -3.965   4.613  24.720  0.00  0.00    -0.297 N 
ATOM     22  C   UNL     1      -2.802   4.588  25.497  0.00  0.00    +0.219 C 
BRANCH   7  25
ATOM     25  C   UNL     1      -5.252   4.825  25.374  0.00  0.00    +0.136 C 
BRANCH  25  27
ATOM     27  C   UNL     1      -6.067   3.546  25.429  0.00  0.00    +0.178 C 
BRANCH  27   4
ATOM      4  O   UNL     1      -5.725   2.818  26.601  0.00  0.00    -0.381 OA
ATOM     29  C   UNL     1      -6.489   1.625  26.716  0.00  0.00    +0.194 C 
ENDBRANCH  27   4
ENDBRANCH  25  27
ENDBRANCH   7  25
BRANCH   7  26
ATOM     26  C   UNL     1      -4.034   4.478  23.267  0.00  0.00    +0.136 C 
BRANCH  26  28
ATOM     28  C   UNL     1      -4.369   3.056  22.854  0.00  0.00    +0.178 C 
BRANCH  28   5
ATOM      5  O   UNL     1      -3.166   2.326  22.653  0.00  0.00    -0.381 OA
ATOM     30  C   UNL     1      -2.726   2.410  21.304  0.00  0.00    +0.194 C 
ENDBRANCH  28   5
ENDBRANCH  26  28
ENDBRANCH   7  26
ENDBRANCH  19  22
ENDBRANCH  13  19
TORSDOF 10
ENDMDL
MODEL 6
REMARK VINA RESULT:       4.7      2.072      6.899
REMARK  Name = 28962421
REMARK  16 active torsions:
REMARK  status: ('A' for Active; 'I' for Inactive)
REMARK    1  A    between atoms: O_1  and  C_11
REMARK    2  A    between atoms: O_4  and  C_27
REMARK    3  A    between atoms: O_4  and  C_29
REMARK    4  A    between atoms: O_5  and  C_28
REMARK    5  A    between atoms: O_5  and  C_30
REMARK    6  A    between atoms: N_6  and  C_15
REMARK    7  A    between atoms: N_7  and  C_25
REMARK    8  A    between atoms: N_7  and  C_26
REMARK    9  A    between atoms: C_8  and  C_18
REMARK   10  A    between atoms: C_10  and  C_20
REMARK   11  A    between atoms: C_13  and  C_19
REMARK   12  A    between atoms: C_19  and  C_21
REMARK   13  A    between atoms: C_19  and  C_22
REMARK   14  A    between atoms: C_23  and  C_24
REMARK   15  A    between atoms: C_25  and  C_27
REMARK   16  A    between atoms: C_26  and  C_28
REMARK                            x       y       z     vdW  Elec       q    Type
REMARK                         _______ _______ _______ _____ _____    ______ ____
ROOT
ATOM      8  C   UNL     1      -0.807   3.630  25.169  0.00  0.00    -0.027 C 
ATOM      9  C   UNL     1      -1.553   2.833  24.047  0.00  0.00    +0.028 C 
ATOM     10  C   UNL     1      -3.107   2.872  24.273  0.00  0.00    +0.012 C 
ATOM     11  C   UNL     1      -0.939   1.415  23.860  0.00  0.00    +0.122 C 
ATOM     12  C   UNL     1       0.708   3.668  24.855  0.00  0.00    +0.007 C 
ATOM     13  C   UNL     1       0.592   1.452  23.652  0.00  0.00    +0.029 C 
ATOM     14  C   UNL     1      -1.321   5.088  25.178  0.00  0.00    +0.009 C 
ATOM     15  C   UNL     1      -3.602   4.343  24.355  0.00  0.00    +0.076 C 
ATOM     16  C   UNL     1       1.319   2.280  24.711  0.00  0.00    +0.007 C 
ATOM     17  C   UNL     1      -2.829   5.188  25.367  0.00  0.00    +0.023 C 
ATOM     18  C   UNL     1      -1.009   3.009  26.574  0.00  0.00    +0.011 C 
ATOM     20  C   UNL     1      -3.905   2.129  23.187  0.00  0.00    +0.010 C 
ENDROOT
BRANCH  15   6
ATOM      3  O   UNL     1      -4.991   2.971  26.504  0.00  0.00    -0.276 OA
ATOM      6  N   UNL     1      -5.011   4.416  24.678  0.00  0.00    -0.312 N 
ATOM     23  C   UNL     1      -5.581   3.719  25.729  0.00  0.00    +0.210 C 
ATOM     24  C   UNL     1      -7.056   3.993  25.857  0.00  0.00    +0.109 C 
ATOM     31  H   UNL     1      -5.614   4.960  24.066  0.00  0.00    +0.149 HD
ENDBRANCH  15   6
BRANCH  11   1
ATOM      1  O   UNL     1      -1.496   0.803  22.696  0.00  0.00    -0.391 OA
ATOM     32  H   UNL     1      -1.069  -0.063  22.576  0.00  0.00    +0.210 HD
ENDBRANCH  11   1
BRANCH  13  19
ATOM     19  C   UNL     1       1.194   0.043  23.601  0.00  0.00    +0.078 C 
ATOM     21  C   UNL     1       2.442   0.053  22.715  0.00  0.00    +0.017 C 
BRANCH  19  22
ATOM      2  O   UNL     1       0.010  -1.085  21.851  0.00  0.00    -0.275 OA
ATOM      7  N   UNL     1      -0.616  -1.648  24.007  0.00  0.00    -0.297 N 
ATOM     22  C   UNL     1       0.153  -0.947  23.072  0.00  0.00    +0.219 C 
BRANCH   7  25
ATOM     25  C   UNL     1      -1.632  -2.582  23.536  0.00  0.00    +0.136 C 
BRANCH  25  27
ATOM     27  C   UNL     1      -2.421  -3.177  24.688  0.00  0.00    +0.178 C 
BRANCH  27   4
ATOM      4  O   UNL     1      -3.789  -3.285  24.317  0.00  0.00    -0.381 OA
ATOM     29  C   UNL     1      -4.231  -2.133  23.612  0.00  0.00    +0.194 C 
ENDBRANCH  27   4
ENDBRANCH  25  27
ENDBRANCH   7  25
BRANCH   7  26
ATOM     26  C   UNL     1      -0.486  -1.569  25.460  0.00  0.00    +0.136 C 
BRANCH  26  28
ATOM     28  C   UNL     1      -1.319  -0.437  26.034  0.00  0.00    +0.178 C 
BRANCH  28   5
ATOM      5  O   UNL     1      -2.572  -0.947  26.472  0.00  0.00    -0.381 OA
ATOM     30  C   UNL     1      -3.655  -0.244  25.879  0.00  0.00    +0.194 C 
ENDBRANCH  28   5
ENDBRANCH  26  28
ENDBRANCH   7  26
ENDBRANCH  19  22
ENDBRANCH  13  19
TORSDOF 10
ENDMDL
MODEL 7
REMARK VINA RESULT:       4.7      1.472      2.194
REMARK  Name = 28962421
REMARK  16 active torsions:
REMARK  status: ('A' for Active; 'I' for Inactive)
REMARK    1  A    between atoms: O_1  and  C_11
REMARK    2  A    between atoms: O_4  and  C_27
REMARK    3  A    between atoms: O_4  and  C_29
REMARK    4  A    between atoms: O_5  and  C_28
REMARK    5  A    between atoms: O_5  and  C_30
REMARK    6  A    between atoms: N_6  and  C_15
REMARK    7  A    between atoms: N_7  and  C_25
REMARK    8  A    between atoms: N_7  and  C_26
REMARK    9  A    between atoms: C_8  and  C_18
REMARK   10  A    between atoms: C_10  and  C_20
REMARK   11  A    between atoms: C_13  and  C_19
REMARK   12  A    between atoms: C_19  and  C_21
REMARK   13  A    between atoms: C_19  and  C_22
REMARK   14  A    between atoms: C_23  and  C_24
REMARK   15  A    between atoms: C_25  and  C_27
REMARK   16  A    between atoms: C_26  and  C_28
REMARK                            x       y       z     vdW  Elec       q    Type
REMARK                         _______ _______ _______ _____ _____    ______ ____
ROOT
ATOM      8  C   UNL     1      -1.627  -1.352  24.889  0.00  0.00    -0.027 C 
ATOM      9  C   UNL     1      -1.111  -0.351  23.804  0.00  0.00    +0.028 C 
ATOM     10  C   UNL     1       0.421  -0.060  23.994  0.00  0.00    +0.012 C 
ATOM     11  C   UNL     1      -2.025   0.907  23.717  0.00  0.00    +0.122 C 
ATOM     12  C   UNL     1      -3.107  -1.705  24.605  0.00  0.00    +0.007 C 
ATOM     13  C   UNL     1      -3.517   0.546  23.537  0.00  0.00    +0.029 C 
ATOM     14  C   UNL     1      -0.807  -2.660  24.798  0.00  0.00    +0.009 C 
ATOM     15  C   UNL     1       1.227  -1.389  23.977  0.00  0.00    +0.076 C 
ATOM     16  C   UNL     1      -4.010  -0.479  24.559  0.00  0.00    +0.007 C 
ATOM     17  C   UNL     1       0.691  -2.437  24.950  0.00  0.00    +0.023 C 
ATOM     18  C   UNL     1      -1.519  -0.781  26.325  0.00  0.00    +0.011 C 
ATOM     20  C   UNL     1       1.001   0.899  22.940  0.00  0.00    +0.010 C 
ENDROOT
BRANCH  15   6
ATOM      3  O   UNL     1       3.268  -0.405  22.161  0.00  0.00    -0.276 OA
ATOM      6  N   UNL     1       2.629  -1.168  24.266  0.00  0.00    -0.312 N 
ATOM     23  C   UNL     1       3.527  -0.694  23.327  0.00  0.00    +0.210 C 
ATOM     24  C   UNL     1       4.911  -0.534  23.896  0.00  0.00    +0.109 C 
ATOM     31  H   UNL     1       2.973  -1.430  25.186  0.00  0.00    +0.149 HD
ENDBRANCH  15   6
BRANCH  11   1
ATOM      1  O   UNL     1      -1.654   1.689  22.581  0.00  0.00    -0.391 OA
ATOM     32  H   UNL     1      -1.754   1.135  21.787  0.00  0.00    +0.210 HD
ENDBRANCH  11   1
BRANCH  13  19
ATOM     19  C   UNL     1      -4.413   1.789  23.585  0.00  0.00    +0.078 C 
ATOM     21  C   UNL     1      -3.904   2.823  22.579  0.00  0.00    +0.017 C 
BRANCH  19  22
ATOM      2  O   UNL     1      -5.230   1.918  25.833  0.00  0.00    -0.275 OA
ATOM      7  N   UNL     1      -3.532   3.397  25.298  0.00  0.00    -0.297 N 
ATOM     22  C   UNL     1      -4.428   2.364  25.004  0.00  0.00    +0.219 C 
BRANCH   7  25
ATOM     25  C   UNL     1      -3.536   3.981  26.635  0.00  0.00    +0.136 C 
BRANCH  25  27
ATOM     27  C   UNL     1      -4.576   5.080  26.761  0.00  0.00    +0.178 C 
BRANCH  27   4
ATOM      4  O   UNL     1      -5.811   4.625  26.223  0.00  0.00    -0.381 OA
ATOM     29  C   UNL     1      -6.331   5.538  25.266  0.00  0.00    +0.194 C 
ENDBRANCH  27   4
ENDBRANCH  25  27
ENDBRANCH   7  25
BRANCH   7  26
ATOM     26  C   UNL     1      -2.532   3.955  24.391  0.00  0.00    +0.136 C 
BRANCH  26  28
ATOM     28  C   UNL     1      -1.266   4.346  25.129  0.00  0.00    +0.178 C 
BRANCH  28   5
ATOM      5  O   UNL     1      -0.307   3.303  25.008  0.00  0.00    -0.381 OA
ATOM     30  C   UNL     1      -0.059   2.676  26.259  0.00  0.00    +0.194 C 
ENDBRANCH  28   5
ENDBRANCH  26  28
ENDBRANCH   7  26
ENDBRANCH  19  22
ENDBRANCH  13  19
TORSDOF 10
ENDMDL
