MODEL 1
REMARK VINA RESULT:      10.9      0.000      0.000
REMARK  Name = 11883009
REMARK  13 active torsions:
REMARK  status: ('A' for Active; 'I' for Inactive)
REMARK    1  A    between atoms: O_2  and  C_15
REMARK    2  A    between atoms: O_3  and  C_20
REMARK    3  A    between atoms: N_8  and  C_26
REMARK    4  A    between atoms: C_10  and  C_18
REMARK    5  A    between atoms: C_12  and  C_20
REMARK    6  A    between atoms: C_12  and  C_21
REMARK    7  A    between atoms: C_13  and  C_23
REMARK    8  A    between atoms: C_23  and  C_24
REMARK    9  A    between atoms: C_26  and  C_29
REMARK   10  A    between atoms: C_27  and  C_28
REMARK   11  A    between atoms: C_28  and  C_30
REMARK   12  A    between atoms: C_28  and  C_31
REMARK   13  A    between atoms: C_28  and  C_32
REMARK                            x       y       z     vdW  Elec       q    Type
REMARK                         _______ _______ _______ _____ _____    ______ ____
ROOT
ATOM      1  S   UNL     1      -0.776  -0.866  23.789  0.00  0.00    -0.057 S 
ATOM      5  O   UNL     1       2.948   1.893  23.561  0.00  0.00    -0.275 OA
ATOM      7  N   UNL     1       0.080   1.552  24.117  0.00  0.00    -0.229 NA
ATOM      9  N   UNL     1       1.699  -0.087  23.409  0.00  0.00    -0.264 N 
ATOM     10  C   UNL     1      -3.573   2.625  24.728  0.00  0.00    -0.019 C 
ATOM     11  C   UNL     1      -3.964   1.215  25.358  0.00  0.00    +0.011 C 
ATOM     12  C   UNL     1      -5.482   0.990  25.723  0.00  0.00    +0.021 C 
ATOM     13  C   UNL     1      -1.989   2.796  24.849  0.00  0.00    +0.054 C 
ATOM     14  C   UNL     1      -4.251   3.758  25.541  0.00  0.00    +0.010 C 
ATOM     15  C   UNL     1      -6.013   2.235  26.491  0.00  0.00    +0.123 C 
ATOM     16  C   UNL     1      -3.331   0.039  24.556  0.00  0.00    +0.049 C 
ATOM     17  C   UNL     1      -5.741   3.548  25.767  0.00  0.00    +0.032 C 
ATOM     18  C   UNL     1      -3.993   2.758  23.244  0.00  0.00    +0.012 C 
ATOM     19  C   UNL     1      -1.273   1.548  24.402  0.00  0.00    +0.058 A 
ATOM     21  C   UNL     1      -5.598  -0.229  26.682  0.00  0.00    +0.016 C 
ATOM     22  C   UNL     1      -1.890   0.319  24.295  0.00  0.00    +0.015 A 
ATOM     25  C   UNL     1       0.449   0.338  23.774  0.00  0.00    +0.165 A 
ATOM     27  C   UNL     1       2.870   0.690  23.320  0.00  0.00    +0.224 C 
ATOM     39  H   UNL     1       1.754  -1.076  23.185  0.00  0.00    +0.157 HD
ENDROOT
BRANCH  27  28
ATOM     28  C   UNL     1       4.119  -0.110  22.871  0.00  0.00    +0.039 C 
ATOM     30  C   UNL     1       5.382   0.529  23.477  0.00  0.00    +0.020 C 
ATOM     31  C   UNL     1       4.246  -0.080  21.340  0.00  0.00    +0.020 C 
ATOM     32  C   UNL     1       4.026  -1.562  23.367  0.00  0.00    +0.020 C 
ENDBRANCH  27  28
BRANCH  15   2
ATOM      2  O   UNL     1      -7.416   2.119  26.724  0.00  0.00    -0.391 OA
ATOM     36  H   UNL     1      -7.636   1.172  26.733  0.00  0.00    +0.210 HD
ENDBRANCH  15   2
BRANCH  12  20
ATOM     20  C   UNL     1      -6.389   0.659  24.517  0.00  0.00    +0.165 C 
BRANCH  20   3
ATOM      3  O   UNL     1      -7.327   1.703  24.384  0.00  0.00    -0.394 OA
ATOM     37  H   UNL     1      -7.253   2.044  23.476  0.00  0.00    +0.209 HD
ENDBRANCH  20   3
ENDBRANCH  12  20
BRANCH  13  23
ATOM     23  C   UNL     1      -1.428   4.045  24.156  0.00  0.00    +0.106 C 
BRANCH  23  24
ATOM      4  O   UNL     1       0.232   5.721  24.694  0.00  0.00    -0.276 OA
ATOM      8  N   UNL     1       0.333   3.637  25.718  0.00  0.00    -0.308 N 
ATOM     24  C   UNL     1      -0.208   4.588  24.865  0.00  0.00    +0.214 C 
ATOM     38  H   UNL     1      -0.117   2.730  25.800  0.00  0.00    +0.149 HD
BRANCH   8  26
ATOM     26  C   UNL     1       1.507   3.878  26.524  0.00  0.00    +0.178 C 
BRANCH  26  29
ATOM      6  O   UNL     1       2.539   3.005  28.541  0.00  0.00    -0.466 OA
ATOM     29  C   UNL     1       1.401   3.112  27.808  0.00  0.00    +0.122 A 
ATOM     33  C   UNL     1       0.361   2.465  28.432  0.00  0.00    +0.046 A 
ATOM     34  C   UNL     1       0.894   1.925  29.628  0.00  0.00    +0.041 A 
ATOM     35  C   UNL     1       2.222   2.282  29.647  0.00  0.00    +0.195 A 
ENDBRANCH  26  29
ENDBRANCH   8  26
ENDBRANCH  23  24
ENDBRANCH  13  23
TORSDOF 8
ENDMDL
MODEL 2
REMARK VINA RESULT:      11.0      2.693      4.018
REMARK  Name = 11883009
REMARK  13 active torsions:
REMARK  status: ('A' for Active; 'I' for Inactive)
REMARK    1  A    between atoms: O_2  and  C_15
REMARK    2  A    between atoms: O_3  and  C_20
REMARK    3  A    between atoms: N_8  and  C_26
REMARK    4  A    between atoms: C_10  and  C_18
REMARK    5  A    between atoms: C_12  and  C_20
REMARK    6  A    between atoms: C_12  and  C_21
REMARK    7  A    between atoms: C_13  and  C_23
REMARK    8  A    between atoms: C_23  and  C_24
REMARK    9  A    between atoms: C_26  and  C_29
REMARK   10  A    between atoms: C_27  and  C_28
REMARK   11  A    between atoms: C_28  and  C_30
REMARK   12  A    between atoms: C_28  and  C_31
REMARK   13  A    between atoms: C_28  and  C_32
REMARK                            x       y       z     vdW  Elec       q    Type
REMARK                         _______ _______ _______ _____ _____    ______ ____
ROOT
ATOM      1  S   UNL     1       0.722   2.039  25.808  0.00  0.00    -0.057 S 
ATOM      5  O   UNL     1       2.354   0.262  21.844  0.00  0.00    -0.275 OA
ATOM      7  N   UNL     1       0.131   1.449  23.360  0.00  0.00    -0.229 NA
ATOM      9  N   UNL     1       2.378   0.962  24.083  0.00  0.00    -0.264 N 
ATOM     10  C   UNL     1      -3.518   2.419  24.143  0.00  0.00    -0.019 C 
ATOM     11  C   UNL     1      -3.080   3.507  25.221  0.00  0.00    +0.011 C 
ATOM     12  C   UNL     1      -4.232   4.215  26.033  0.00  0.00    +0.021 C 
ATOM     13  C   UNL     1      -2.279   2.167  23.166  0.00  0.00    +0.054 C 
ATOM     14  C   UNL     1      -4.700   2.971  23.304  0.00  0.00    +0.010 C 
ATOM     15  C   UNL     1      -5.351   4.662  25.048  0.00  0.00    +0.123 C 
ATOM     16  C   UNL     1      -1.913   2.988  26.112  0.00  0.00    +0.049 C 
ATOM     17  C   UNL     1      -5.837   3.538  24.141  0.00  0.00    +0.032 C 
ATOM     18  C   UNL     1      -3.948   1.076  24.785  0.00  0.00    +0.012 C 
ATOM     19  C   UNL     1      -1.002   1.984  23.944  0.00  0.00    +0.058 A 
ATOM     21  C   UNL     1      -3.666   5.499  26.703  0.00  0.00    +0.016 C 
ATOM     22  C   UNL     1      -0.855   2.375  25.259  0.00  0.00    +0.015 A 
ATOM     25  C   UNL     1       1.099   1.422  24.250  0.00  0.00    +0.165 A 
ATOM     27  C   UNL     1       2.940   0.414  22.914  0.00  0.00    +0.224 C 
ATOM     39  H   UNL     1       2.959   1.039  24.912  0.00  0.00    +0.157 HD
ENDROOT
BRANCH  27  28
ATOM     28  C   UNL     1       4.422  -0.010  23.072  0.00  0.00    +0.039 C 
ATOM     30  C   UNL     1       5.163   1.027  23.935  0.00  0.00    +0.020 C 
ATOM     31  C   UNL     1       5.106  -0.073  21.697  0.00  0.00    +0.020 C 
ATOM     32  C   UNL     1       4.512  -1.375  23.772  0.00  0.00    +0.020 C 
ENDBRANCH  27  28
BRANCH  15   2
ATOM      2  O   UNL     1      -6.467   5.191  25.764  0.00  0.00    -0.391 OA
ATOM     36  H   UNL     1      -7.116   4.475  25.867  0.00  0.00    +0.210 HD
ENDBRANCH  15   2
BRANCH  12  20
ATOM     20  C   UNL     1      -4.819   3.369  27.184  0.00  0.00    +0.165 C 
BRANCH  20   3
ATOM      3  O   UNL     1      -5.972   2.720  26.698  0.00  0.00    -0.394 OA
ATOM     37  H   UNL     1      -6.405   2.291  27.456  0.00  0.00    +0.209 HD
ENDBRANCH  20   3
ENDBRANCH  12  20
BRANCH  13  23
ATOM     23  C   UNL     1      -2.487   1.035  22.151  0.00  0.00    +0.106 C 
BRANCH  23  24
ATOM      4  O   UNL     1      -3.816  -0.808  22.983  0.00  0.00    -0.276 OA
ATOM      8  N   UNL     1      -1.507  -0.851  23.242  0.00  0.00    -0.308 N 
ATOM     24  C   UNL     1      -2.709  -0.299  22.828  0.00  0.00    +0.214 C 
ATOM     38  H   UNL     1      -0.640  -0.355  23.051  0.00  0.00    +0.149 HD
BRANCH   8  26
ATOM     26  C   UNL     1      -1.415  -2.122  23.922  0.00  0.00    +0.178 C 
BRANCH  26  29
ATOM      6  O   UNL     1      -1.540  -1.165  26.149  0.00  0.00    -0.466 OA
ATOM     29  C   UNL     1      -2.090  -2.027  25.256  0.00  0.00    +0.122 A 
ATOM     33  C   UNL     1      -3.191  -2.648  25.799  0.00  0.00    +0.046 A 
ATOM     34  C   UNL     1      -3.326  -2.134  27.111  0.00  0.00    +0.041 A 
ATOM     35  C   UNL     1      -2.298  -1.235  27.276  0.00  0.00    +0.195 A 
ENDBRANCH  26  29
ENDBRANCH   8  26
ENDBRANCH  23  24
ENDBRANCH  13  23
TORSDOF 8
ENDMDL
MODEL 3
REMARK VINA RESULT:      13.0      2.540      3.623
REMARK  Name = 11883009
REMARK  13 active torsions:
REMARK  status: ('A' for Active; 'I' for Inactive)
REMARK    1  A    between atoms: O_2  and  C_15
REMARK    2  A    between atoms: O_3  and  C_20
REMARK    3  A    between atoms: N_8  and  C_26
REMARK    4  A    between atoms: C_10  and  C_18
REMARK    5  A    between atoms: C_12  and  C_20
REMARK    6  A    between atoms: C_12  and  C_21
REMARK    7  A    between atoms: C_13  and  C_23
REMARK    8  A    between atoms: C_23  and  C_24
REMARK    9  A    between atoms: C_26  and  C_29
REMARK   10  A    between atoms: C_27  and  C_28
REMARK   11  A    between atoms: C_28  and  C_30
REMARK   12  A    between atoms: C_28  and  C_31
REMARK   13  A    between atoms: C_28  and  C_32
REMARK                            x       y       z     vdW  Elec       q    Type
REMARK                         _______ _______ _______ _____ _____    ______ ____
ROOT
ATOM      1  S   UNL     1       1.434  -1.816  23.772  0.00  0.00    -0.057 S 
ATOM      5  O   UNL     1       4.583   1.586  23.574  0.00  0.00    -0.275 OA
ATOM      7  N   UNL     1       1.772   0.748  23.782  0.00  0.00    -0.229 NA
ATOM      9  N   UNL     1       3.756  -0.609  23.604  0.00  0.00    -0.264 N 
ATOM     10  C   UNL     1      -2.064   1.125  23.688  0.00  0.00    -0.019 C 
ATOM     11  C   UNL     1      -2.296  -0.227  24.496  0.00  0.00    +0.011 C 
ATOM     12  C   UNL     1      -3.788  -0.704  24.684  0.00  0.00    +0.021 C 
ATOM     13  C   UNL     1      -0.580   1.634  23.993  0.00  0.00    +0.054 C 
ATOM     14  C   UNL     1      -3.063   2.201  24.187  0.00  0.00    +0.010 C 
ATOM     15  C   UNL     1      -4.656   0.504  25.140  0.00  0.00    +0.123 C 
ATOM     16  C   UNL     1      -1.335  -1.353  24.010  0.00  0.00    +0.049 C 
ATOM     17  C   UNL     1      -4.507   1.725  24.240  0.00  0.00    +0.032 C 
ATOM     18  C   UNL     1      -2.244   0.950  22.160  0.00  0.00    +0.012 C 
ATOM     19  C   UNL     1       0.414   0.508  23.875  0.00  0.00    +0.058 A 
ATOM     21  C   UNL     1      -3.842  -1.767  25.818  0.00  0.00    +0.016 C 
ATOM     22  C   UNL     1       0.056  -0.824  23.903  0.00  0.00    +0.015 A 
ATOM     25  C   UNL     1       2.406  -0.401  23.714  0.00  0.00    +0.165 A 
ATOM     27  C   UNL     1       4.766   0.371  23.541  0.00  0.00    +0.224 C 
ATOM     39  H   UNL     1       4.025  -1.587  23.568  0.00  0.00    +0.157 HD
ENDROOT
BRANCH  27  28
ATOM     28  C   UNL     1       6.196  -0.212  23.416  0.00  0.00    +0.039 C 
ATOM     30  C   UNL     1       6.357  -1.388  24.397  0.00  0.00    +0.020 C 
ATOM     31  C   UNL     1       7.239   0.860  23.769  0.00  0.00    +0.020 C 
ATOM     32  C   UNL     1       6.434  -0.735  21.991  0.00  0.00    +0.020 C 
ENDBRANCH  27  28
BRANCH  15   2
ATOM      2  O   UNL     1      -6.035   0.138  25.195  0.00  0.00    -0.391 OA
ATOM     36  H   UNL     1      -6.184  -0.545  24.519  0.00  0.00    +0.210 HD
ENDBRANCH  15   2
BRANCH  12  20
ATOM     20  C   UNL     1      -4.403  -1.387  23.443  0.00  0.00    +0.165 C 
BRANCH  20   3
ATOM      3  O   UNL     1      -4.437  -2.775  23.688  0.00  0.00    -0.394 OA
ATOM     37  H   UNL     1      -3.591  -3.145  23.382  0.00  0.00    +0.209 HD
ENDBRANCH  20   3
ENDBRANCH  12  20
BRANCH  13  23
ATOM     23  C   UNL     1      -0.144   2.856  23.174  0.00  0.00    +0.106 C 
BRANCH  23  24
ATOM      4  O   UNL     1      -0.235   5.261  23.425  0.00  0.00    -0.276 OA
ATOM      8  N   UNL     1      -1.492   3.912  24.840  0.00  0.00    -0.308 N 
ATOM     24  C   UNL     1      -0.607   4.152  23.800  0.00  0.00    +0.214 C 
ATOM     38  H   UNL     1      -1.749   2.955  25.062  0.00  0.00    +0.149 HD
BRANCH   8  26
ATOM     26  C   UNL     1      -2.094   4.966  25.622  0.00  0.00    +0.178 C 
BRANCH  26  29
ATOM      6  O   UNL     1      -3.947   3.872  26.748  0.00  0.00    -0.466 OA
ATOM     29  C   UNL     1      -3.566   4.716  25.754  0.00  0.00    +0.122 A 
ATOM     33  C   UNL     1      -4.663   5.172  25.061  0.00  0.00    +0.046 A 
ATOM     34  C   UNL     1      -5.791   4.569  25.667  0.00  0.00    +0.041 A 
ATOM     35  C   UNL     1      -5.302   3.788  26.689  0.00  0.00    +0.195 A 
ENDBRANCH  26  29
ENDBRANCH   8  26
ENDBRANCH  23  24
ENDBRANCH  13  23
TORSDOF 8
ENDMDL
