MODEL 1
REMARK VINA RESULT:       8.7      0.000      0.000
REMARK  Name = 11885280
REMARK  5 active torsions:
REMARK  status: ('A' for Active; 'I' for Inactive)
REMARK    1  A    between atoms: S_1  and  N_6
REMARK    2  A    between atoms: S_1  and  C_20
REMARK    3  A    between atoms: N_8  and  C_31
REMARK    4  A    between atoms: C_18  and  C_21
REMARK    5  A    between atoms: C_32  and  C_33
REMARK                            x       y       z     vdW  Elec       q    Type
REMARK                         _______ _______ _______ _____ _____    ______ ____
ROOT
ATOM      4  O   UNL     1       0.137   2.413  25.820  0.00  0.00    -0.267 OA
ATOM      6  N   UNL     1      -4.828   2.336  25.374  0.00  0.00    -0.176 NA
ATOM      7  N   UNL     1      -1.838   3.243  24.897  0.00  0.00    -0.311 N 
ATOM      9  C   UNL     1      -3.669   4.339  26.313  0.00  0.00    +0.025 C 
ATOM     10  C   UNL     1      -3.967   4.132  23.884  0.00  0.00    +0.052 C 
ATOM     11  C   UNL     1      -3.985   5.121  25.046  0.00  0.00    +0.017 C 
ATOM     12  C   UNL     1      -4.725   3.246  26.551  0.00  0.00    +0.114 C 
ATOM     13  C   UNL     1      -5.062   3.071  24.095  0.00  0.00    +0.119 C 
ATOM     14  C   UNL     1      -2.250   3.768  26.206  0.00  0.00    +0.130 C 
ATOM     15  C   UNL     1      -2.609   3.468  23.754  0.00  0.00    +0.026 A 
ATOM     16  C   UNL     1      -2.157   3.080  22.551  0.00  0.00    +0.022 A 
ATOM     17  C   UNL     1      -0.587   2.598  24.839  0.00  0.00    +0.259 A 
ATOM     18  C   UNL     1      -0.124   2.143  23.482  0.00  0.00    +0.047 A 
ATOM     19  C   UNL     1      -0.898   2.403  22.418  0.00  0.00    +0.015 A 
ENDROOT
BRANCH  18  21
ATOM     21  C   UNL     1       1.148   1.418  23.312  0.00  0.00    -0.013 A 
ATOM     24  C   UNL     1       2.340   2.126  23.150  0.00  0.00    +0.010 A 
ATOM     25  C   UNL     1       1.162   0.023  23.314  0.00  0.00    +0.010 A 
ATOM     29  C   UNL     1       3.543   1.439  22.990  0.00  0.00    +0.024 A 
ATOM     30  C   UNL     1       2.366  -0.664  23.154  0.00  0.00    +0.024 A 
ATOM     31  C   UNL     1       3.556   0.044  22.991  0.00  0.00    +0.033 A 
BRANCH  31   8
ATOM      5  O   UNL     1       6.282   0.581  24.153  0.00  0.00    -0.276 OA
ATOM      8  N   UNL     1       4.760  -0.643  22.831  0.00  0.00    -0.286 N 
ATOM     32  C   UNL     1       6.006  -0.346  23.398  0.00  0.00    +0.214 C 
ATOM     33  C   UNL     1       7.063  -1.337  22.976  0.00  0.00    +0.109 C 
ATOM     34  H   UNL     1       4.716  -1.460  22.225  0.00  0.00    +0.155 HD
ENDBRANCH  31   8
ENDBRANCH  18  21
BRANCH   6   1
ATOM      1  S   UNL     1      -5.777   0.932  25.604  0.00  0.00    +0.061 S 
ATOM      2  O   UNL     1      -6.804   0.897  24.582  0.00  0.00    -0.153 OA
ATOM      3  O   UNL     1      -6.091   0.794  27.009  0.00  0.00    -0.153 OA
BRANCH   1  20
ATOM     20  C   UNL     1      -4.738  -0.482  25.254  0.00  0.00    +0.105 A 
ATOM     22  C   UNL     1      -3.835  -0.882  26.208  0.00  0.00    +0.028 A 
ATOM     23  C   UNL     1      -4.881  -1.116  24.044  0.00  0.00    +0.028 A 
ATOM     26  C   UNL     1      -3.023  -1.984  25.935  0.00  0.00    +0.002 A 
ATOM     27  C   UNL     1      -4.071  -2.218  23.771  0.00  0.00    +0.002 A 
ATOM     28  C   UNL     1      -3.142  -2.652  24.716  0.00  0.00    +0.000 A 
ENDBRANCH   1  20
ENDBRANCH   6   1
TORSDOF 4
ENDMDL
MODEL 2
REMARK VINA RESULT:      11.3      1.962      4.329
REMARK  Name = 11885280
REMARK  5 active torsions:
REMARK  status: ('A' for Active; 'I' for Inactive)
REMARK    1  A    between atoms: S_1  and  N_6
REMARK    2  A    between atoms: S_1  and  C_20
REMARK    3  A    between atoms: N_8  and  C_31
REMARK    4  A    between atoms: C_18  and  C_21
REMARK    5  A    between atoms: C_32  and  C_33
REMARK                            x       y       z     vdW  Elec       q    Type
REMARK                         _______ _______ _______ _____ _____    ______ ____
ROOT
ATOM      4  O   UNL     1      -0.573   0.109  22.122  0.00  0.00    -0.267 OA
ATOM      6  N   UNL     1      -4.247   1.603  25.141  0.00  0.00    -0.176 NA
ATOM      7  N   UNL     1      -2.171  -0.338  23.760  0.00  0.00    -0.311 N 
ATOM      9  C   UNL     1      -4.684  -0.074  23.344  0.00  0.00    +0.025 C 
ATOM     10  C   UNL     1      -3.885  -0.825  25.542  0.00  0.00    +0.052 C 
ATOM     11  C   UNL     1      -4.830  -1.168  24.394  0.00  0.00    +0.017 C 
ATOM     12  C   UNL     1      -5.065   1.294  23.933  0.00  0.00    +0.114 C 
ATOM     13  C   UNL     1      -4.302   0.519  26.167  0.00  0.00    +0.119 C 
ATOM     14  C   UNL     1      -3.253  -0.099  22.795  0.00  0.00    +0.130 C 
ATOM     15  C   UNL     1      -2.447  -0.760  25.063  0.00  0.00    +0.026 A 
ATOM     16  C   UNL     1      -1.442  -1.084  25.892  0.00  0.00    +0.022 A 
ATOM     17  C   UNL     1      -0.854  -0.225  23.275  0.00  0.00    +0.259 A 
ATOM     18  C   UNL     1       0.252  -0.562  24.238  0.00  0.00    +0.047 A 
ATOM     19  C   UNL     1      -0.073  -0.977  25.471  0.00  0.00    +0.015 A 
ENDROOT
BRANCH  18  21
ATOM     21  C   UNL     1       1.668  -0.433  23.850  0.00  0.00    -0.013 A 
ATOM     24  C   UNL     1       2.134   0.760  23.294  0.00  0.00    +0.010 A 
ATOM     25  C   UNL     1       2.544  -1.501  24.039  0.00  0.00    +0.010 A 
ATOM     29  C   UNL     1       3.475   0.881  22.927  0.00  0.00    +0.024 A 
ATOM     30  C   UNL     1       3.885  -1.380  23.672  0.00  0.00    +0.024 A 
ATOM     31  C   UNL     1       4.350  -0.189  23.116  0.00  0.00    +0.033 A 
BRANCH  31   8
ATOM      5  O   UNL     1       6.858  -0.964  24.591  0.00  0.00    -0.276 OA
ATOM      8  N   UNL     1       5.690  -0.066  22.750  0.00  0.00    -0.286 N 
ATOM     32  C   UNL     1       6.825  -0.444  23.480  0.00  0.00    +0.214 C 
ATOM     33  C   UNL     1       8.099  -0.141  22.731  0.00  0.00    +0.109 C 
ATOM     34  H   UNL     1       5.854   0.352  21.836  0.00  0.00    +0.155 HD
ENDBRANCH  31   8
ENDBRANCH  18  21
BRANCH   6   1
ATOM      1  S   UNL     1      -4.388   3.198  25.744  0.00  0.00    +0.061 S 
ATOM      2  O   UNL     1      -4.471   3.139  27.189  0.00  0.00    -0.153 OA
ATOM      3  O   UNL     1      -5.357   3.923  24.950  0.00  0.00    -0.153 OA
BRANCH   1  20
ATOM     20  C   UNL     1      -2.843   4.037  25.409  0.00  0.00    +0.105 A 
ATOM     22  C   UNL     1      -2.860   5.402  25.257  0.00  0.00    +0.028 A 
ATOM     23  C   UNL     1      -1.697   3.286  25.317  0.00  0.00    +0.028 A 
ATOM     26  C   UNL     1      -1.656   6.057  24.995  0.00  0.00    +0.002 A 
ATOM     27  C   UNL     1      -0.493   3.940  25.055  0.00  0.00    +0.002 A 
ATOM     28  C   UNL     1      -0.473   5.326  24.894  0.00  0.00    +0.000 A 
ENDBRANCH   1  20
ENDBRANCH   6   1
TORSDOF 4
ENDMDL
