MODEL 1
REMARK VINA RESULT:      -5.1      0.000      0.000
REMARK  Name = 45784228
REMARK  5 active torsions:
REMARK  status: ('A' for Active; 'I' for Inactive)
REMARK    1  A    between atoms: O_2  and  C_25
REMARK    2  A    between atoms: N_4  and  C_12
REMARK    3  A    between atoms: C_7  and  C_11
REMARK    4  A    between atoms: C_12  and  C_13
REMARK    5  A    between atoms: C_24  and  C_25
REMARK                            x       y       z     vdW  Elec       q    Type
REMARK                         _______ _______ _______ _____ _____    ______ ____
ROOT
ATOM      4  N   UNL     1      -4.922  -9.959   9.938  0.00  0.00    -0.297 NA
ATOM      7  C   UNL     1      -7.104  -9.696  10.757  0.00  0.00    +0.070 C 
ATOM      8  C   UNL     1      -6.537  -8.325  10.352  0.00  0.00    +0.028 C 
ATOM      9  C   UNL     1      -5.878 -10.617  10.832  0.00  0.00    +0.096 C 
ATOM     10  C   UNL     1      -5.032  -8.534  10.250  0.00  0.00    +0.085 C 
ENDROOT
BRANCH   7  11
ATOM      1  F   UNL     1      -9.536  -9.584  17.600  0.00  0.00    -0.205 F 
ATOM      5  N   UNL     1      -7.324  -9.614  13.255  0.00  0.00    -0.341 N 
ATOM      6  N   UNL     1      -9.229  -9.772  12.122  0.00  0.00    -0.232 NA
ATOM     11  C   UNL     1      -7.920  -9.697  12.029  0.00  0.00    +0.113 A 
ATOM     14  C   UNL     1      -8.313  -9.639  14.204  0.00  0.00    +0.069 A 
ATOM     15  C   UNL     1      -9.492  -9.737  13.473  0.00  0.00    +0.089 A 
ATOM     18  C   UNL     1      -8.278  -9.584  15.599  0.00  0.00    +0.066 A 
ATOM     19  C   UNL     1     -10.720  -9.786  14.154  0.00  0.00    +0.032 A 
ATOM     22  C   UNL     1      -9.508  -9.633  16.261  0.00  0.00    +0.125 A 
ATOM     23  C   UNL     1     -10.710  -9.732  15.554  0.00  0.00    +0.040 A 
ATOM     26  H   UNL     1      -6.330  -9.548  13.435  0.00  0.00    +0.167 HD
ENDBRANCH   7  11
BRANCH   4  12
ATOM     12  C   UNL     1      -3.567 -10.461  10.108  0.00  0.00    +0.119 C 
BRANCH  12  13
ATOM     13  C   UNL     1      -3.147 -10.463  11.554  0.00  0.00    -0.033 A 
ATOM     16  C   UNL     1      -1.832 -10.147  11.897  0.00  0.00    +0.006 A 
ATOM     17  C   UNL     1      -4.071 -10.780  12.549  0.00  0.00    +0.006 A 
ATOM     20  C   UNL     1      -1.442 -10.148  13.237  0.00  0.00    +0.015 A 
ATOM     21  C   UNL     1      -3.681 -10.781  13.888  0.00  0.00    +0.015 A 
ATOM     24  C   UNL     1      -2.366 -10.465  14.232  0.00  0.00    +0.059 A 
BRANCH  24  25
ATOM      3  O   UNL     1      -2.699 -10.706  16.590  0.00  0.00    -0.245 OA
ATOM     25  C   UNL     1      -1.960 -10.465  15.629  0.00  0.00    +0.337 C 
BRANCH  25   2
ATOM      2  O   UNL     1      -0.642 -10.165  15.787  0.00  0.00    -0.477 OA
ATOM     27  H   UNL     1      -0.492  -9.577  16.558  0.00  0.00    +0.295 HD
ENDBRANCH  25   2
ENDBRANCH  24  25
ENDBRANCH  12  13
ENDBRANCH   4  12
TORSDOF 5
ENDMDL
MODEL 2
REMARK VINA RESULT:      -3.2      4.035      7.745
REMARK  Name = 45784228
REMARK  5 active torsions:
REMARK  status: ('A' for Active; 'I' for Inactive)
REMARK    1  A    between atoms: O_2  and  C_25
REMARK    2  A    between atoms: N_4  and  C_12
REMARK    3  A    between atoms: C_7  and  C_11
REMARK    4  A    between atoms: C_12  and  C_13
REMARK    5  A    between atoms: C_24  and  C_25
REMARK                            x       y       z     vdW  Elec       q    Type
REMARK                         _______ _______ _______ _____ _____    ______ ____
ROOT
ATOM      4  N   UNL     1      -7.638 -10.166  17.682  0.00  0.00    -0.297 NA
ATOM      7  C   UNL     1      -5.582 -10.781  16.734  0.00  0.00    +0.070 C 
ATOM      8  C   UNL     1      -5.360  -9.661  17.765  0.00  0.00    +0.028 C 
ATOM      9  C   UNL     1      -7.093 -10.761  16.459  0.00  0.00    +0.096 C 
ATOM     10  C   UNL     1      -6.738  -9.055  17.994  0.00  0.00    +0.085 C 
ENDROOT
BRANCH   7  11
ATOM      1  F   UNL     1      -3.081  -9.991   9.960  0.00  0.00    -0.205 F 
ATOM      5  N   UNL     1      -5.337 -10.442  14.259  0.00  0.00    -0.341 N 
ATOM      6  N   UNL     1      -3.446 -10.745  15.385  0.00  0.00    -0.232 NA
ATOM     11  C   UNL     1      -4.754 -10.661  15.475  0.00  0.00    +0.113 A 
ATOM     14  C   UNL     1      -4.338 -10.382  13.321  0.00  0.00    +0.069 A 
ATOM     15  C   UNL     1      -3.168 -10.573  14.048  0.00  0.00    +0.089 A 
ATOM     18  C   UNL     1      -4.359 -10.181  11.940  0.00  0.00    +0.066 A 
ATOM     19  C   UNL     1      -1.935 -10.569  13.376  0.00  0.00    +0.032 A 
ATOM     22  C   UNL     1      -3.123 -10.179  11.286  0.00  0.00    +0.125 A 
ATOM     23  C   UNL     1      -1.930 -10.369  11.989  0.00  0.00    +0.040 A 
ATOM     26  H   UNL     1      -6.327 -10.343  14.079  0.00  0.00    +0.167 HD
ENDBRANCH   7  11
BRANCH   4  12
ATOM     12  C   UNL     1      -9.018  -9.733  17.521  0.00  0.00    +0.119 C 
BRANCH  12  13
ATOM     13  C   UNL     1      -9.409  -9.634  16.070  0.00  0.00    -0.033 A 
ATOM     16  C   UNL     1      -9.729  -8.393  15.519  0.00  0.00    +0.006 A 
ATOM     17  C   UNL     1      -9.451 -10.780  15.278  0.00  0.00    +0.006 A 
ATOM     20  C   UNL     1     -10.091  -8.300  14.175  0.00  0.00    +0.015 A 
ATOM     21  C   UNL     1      -9.813 -10.688  13.935  0.00  0.00    +0.015 A 
ATOM     24  C   UNL     1     -10.133  -9.447  13.383  0.00  0.00    +0.059 A 
BRANCH  24  25
ATOM      3  O   UNL     1     -10.716  -8.299  11.366  0.00  0.00    -0.245 OA
ATOM     25  C   UNL     1     -10.510  -9.350  11.981  0.00  0.00    +0.337 C 
BRANCH  25   2
ATOM      2  O   UNL     1     -10.619 -10.570  11.387  0.00  0.00    -0.477 OA
ATOM     27  H   UNL     1     -11.267 -11.144  11.848  0.00  0.00    +0.295 HD
ENDBRANCH  25   2
ENDBRANCH  24  25
ENDBRANCH  12  13
ENDBRANCH   4  12
TORSDOF 5
ENDMDL
MODEL 3
REMARK VINA RESULT:      -3.0      4.331      7.681
REMARK  Name = 45784228
REMARK  5 active torsions:
REMARK  status: ('A' for Active; 'I' for Inactive)
REMARK    1  A    between atoms: O_2  and  C_25
REMARK    2  A    between atoms: N_4  and  C_12
REMARK    3  A    between atoms: C_7  and  C_11
REMARK    4  A    between atoms: C_12  and  C_13
REMARK    5  A    between atoms: C_24  and  C_25
REMARK                            x       y       z     vdW  Elec       q    Type
REMARK                         _______ _______ _______ _____ _____    ______ ____
ROOT
ATOM      4  N   UNL     1      -7.583 -10.418  16.089  0.00  0.00    -0.297 NA
ATOM      7  C   UNL     1      -5.445 -10.781  15.195  0.00  0.00    +0.070 C 
ATOM      8  C   UNL     1      -5.340  -9.860  16.422  0.00  0.00    +0.028 C 
ATOM      9  C   UNL     1      -6.934 -10.763  14.821  0.00  0.00    +0.096 C 
ATOM     10  C   UNL     1      -6.757  -9.352  16.658  0.00  0.00    +0.085 C 
ENDROOT
BRANCH   7  11
ATOM      1  F   UNL     1       0.094  -9.198  10.770  0.00  0.00    -0.205 F 
ATOM      5  N   UNL     1      -3.186 -10.350  14.189  0.00  0.00    -0.341 N 
ATOM      6  N   UNL     1      -4.918 -10.106  12.818  0.00  0.00    -0.232 NA
ATOM     11  C   UNL     1      -4.544 -10.407  14.040  0.00  0.00    +0.113 A 
ATOM     14  C   UNL     1      -2.649  -9.987  12.981  0.00  0.00    +0.069 A 
ATOM     15  C   UNL     1      -3.749  -9.841  12.142  0.00  0.00    +0.089 A 
ATOM     18  C   UNL     1      -1.333  -9.781  12.562  0.00  0.00    +0.066 A 
ATOM     19  C   UNL     1      -3.545  -9.467  10.803  0.00  0.00    +0.032 A 
ATOM     22  C   UNL     1      -1.148  -9.410  11.228  0.00  0.00    +0.125 A 
ATOM     23  C   UNL     1      -2.233  -9.255  10.361  0.00  0.00    +0.040 A 
ATOM     26  H   UNL     1      -2.668 -10.540  15.036  0.00  0.00    +0.167 HD
ENDBRANCH   7  11
BRANCH   4  12
ATOM     12  C   UNL     1      -8.968 -10.009  15.910  0.00  0.00    +0.119 C 
BRANCH  12  13
ATOM     13  C   UNL     1      -9.340  -9.912  14.455  0.00  0.00    -0.033 A 
ATOM     16  C   UNL     1      -8.651 -10.670  13.508  0.00  0.00    +0.006 A 
ATOM     17  C   UNL     1     -10.372  -9.065  14.053  0.00  0.00    +0.006 A 
ATOM     20  C   UNL     1      -8.996 -10.582  12.159  0.00  0.00    +0.015 A 
ATOM     21  C   UNL     1     -10.717  -8.975  12.704  0.00  0.00    +0.015 A 
ATOM     24  C   UNL     1     -10.029  -9.734  11.757  0.00  0.00    +0.059 A 
BRANCH  24  25
ATOM      3  O   UNL     1     -10.609 -10.600   9.603  0.00  0.00    -0.245 OA
ATOM     25  C   UNL     1     -10.389  -9.642  10.351  0.00  0.00    +0.337 C 
BRANCH  25   2
ATOM      2  O   UNL     1     -10.464  -8.354   9.917  0.00  0.00    -0.477 OA
ATOM     27  H   UNL     1      -9.716  -7.812  10.250  0.00  0.00    +0.295 HD
ENDBRANCH  25   2
ENDBRANCH  24  25
ENDBRANCH  12  13
ENDBRANCH   4  12
TORSDOF 5
ENDMDL
MODEL 4
REMARK VINA RESULT:      -2.0     15.706     17.965
REMARK  Name = 45784228
REMARK  5 active torsions:
REMARK  status: ('A' for Active; 'I' for Inactive)
REMARK    1  A    between atoms: O_2  and  C_25
REMARK    2  A    between atoms: N_4  and  C_12
REMARK    3  A    between atoms: C_7  and  C_11
REMARK    4  A    between atoms: C_12  and  C_13
REMARK    5  A    between atoms: C_24  and  C_25
REMARK                            x       y       z     vdW  Elec       q    Type
REMARK                         _______ _______ _______ _____ _____    ______ ____
ROOT
ATOM      4  N   UNL     1      -3.001  -0.812  24.635  0.00  0.00    -0.297 NA
ATOM      7  C   UNL     1      -0.886  -1.408  23.813  0.00  0.00    +0.070 C 
ATOM      8  C   UNL     1      -1.115  -2.075  25.179  0.00  0.00    +0.028 C 
ATOM      9  C   UNL     1      -1.961  -0.315  23.730  0.00  0.00    +0.096 C 
ATOM     10  C   UNL     1      -2.276  -1.313  25.803  0.00  0.00    +0.085 C 
ENDROOT
BRANCH   7  11
ATOM      1  F   UNL     1       6.283  -0.325  23.377  0.00  0.00    -0.205 F 
ATOM      5  N   UNL     1       1.612  -1.618  23.914  0.00  0.00    -0.341 N 
ATOM      6  N   UNL     1       0.836   0.293  23.086  0.00  0.00    -0.232 NA
ATOM     11  C   UNL     1       0.511  -0.877  23.589  0.00  0.00    +0.113 A 
ATOM     14  C   UNL     1       2.723  -0.877  23.600  0.00  0.00    +0.069 A 
ATOM     15  C   UNL     1       2.212   0.311  23.085  0.00  0.00    +0.089 A 
ATOM     18  C   UNL     1       4.089  -1.137  23.717  0.00  0.00    +0.066 A 
ATOM     19  C   UNL     1       3.102   1.311  22.658  0.00  0.00    +0.032 A 
ATOM     22  C   UNL     1       4.960  -0.131  23.287  0.00  0.00    +0.125 A 
ATOM     23  C   UNL     1       4.477   1.073  22.766  0.00  0.00    +0.040 A 
ATOM     26  H   UNL     1       1.613  -2.546  24.315  0.00  0.00    +0.167 HD
ENDBRANCH   7  11
BRANCH   4  12
ATOM     12  C   UNL     1      -3.971   0.215  24.983  0.00  0.00    +0.119 C 
BRANCH  12  13
ATOM     13  C   UNL     1      -3.354   1.588  24.997  0.00  0.00    -0.033 A 
ATOM     16  C   UNL     1      -2.072   1.769  25.516  0.00  0.00    +0.006 A 
ATOM     17  C   UNL     1      -4.063   2.677  24.494  0.00  0.00    +0.006 A 
ATOM     20  C   UNL     1      -1.498   3.040  25.529  0.00  0.00    +0.015 A 
ATOM     21  C   UNL     1      -3.491   3.949  24.507  0.00  0.00    +0.015 A 
ATOM     24  C   UNL     1      -2.208   4.131  25.026  0.00  0.00    +0.059 A 
BRANCH  24  25
ATOM      3  O   UNL     1      -2.206   6.508  25.297  0.00  0.00    -0.245 OA
ATOM     25  C   UNL     1      -1.611   5.457  25.039  0.00  0.00    +0.337 C 
BRANCH  25   2
ATOM      2  O   UNL     1      -0.285   5.433  24.730  0.00  0.00    -0.477 OA
ATOM     27  H   UNL     1       0.024   6.297  24.382  0.00  0.00    +0.295 HD
ENDBRANCH  25   2
ENDBRANCH  24  25
ENDBRANCH  12  13
ENDBRANCH   4  12
TORSDOF 5
ENDMDL
MODEL 5
REMARK VINA RESULT:      -1.4     15.138     17.672
REMARK  Name = 45784228
REMARK  5 active torsions:
REMARK  status: ('A' for Active; 'I' for Inactive)
REMARK    1  A    between atoms: O_2  and  C_25
REMARK    2  A    between atoms: N_4  and  C_12
REMARK    3  A    between atoms: C_7  and  C_11
REMARK    4  A    between atoms: C_12  and  C_13
REMARK    5  A    between atoms: C_24  and  C_25
REMARK                            x       y       z     vdW  Elec       q    Type
REMARK                         _______ _______ _______ _____ _____    ______ ____
ROOT
ATOM      4  N   UNL     1      -2.875  -1.675  24.534  0.00  0.00    -0.297 NA
ATOM      7  C   UNL     1      -0.539  -1.882  24.570  0.00  0.00    +0.070 C 
ATOM      8  C   UNL     1      -1.037  -1.418  25.949  0.00  0.00    +0.028 C 
ATOM      9  C   UNL     1      -1.725  -1.637  23.626  0.00  0.00    +0.096 C 
ATOM     10  C   UNL     1      -2.453  -0.914  25.710  0.00  0.00    +0.085 C 
ENDROOT
BRANCH   7  11
ATOM      1  F   UNL     1       6.306  -0.024  23.001  0.00  0.00    -0.205 F 
ATOM      5  N   UNL     1       1.957  -1.786  24.327  0.00  0.00    -0.341 N 
ATOM      6  N   UNL     1       0.835  -0.083  23.445  0.00  0.00    -0.232 NA
ATOM     11  C   UNL     1       0.735  -1.219  24.097  0.00  0.00    +0.113 A 
ATOM     14  C   UNL     1       2.910  -0.960  23.787  0.00  0.00    +0.069 A 
ATOM     15  C   UNL     1       2.184   0.095  23.243  0.00  0.00    +0.089 A 
ATOM     18  C   UNL     1       4.302  -1.044  23.730  0.00  0.00    +0.066 A 
ATOM     19  C   UNL     1       2.871   1.138  22.599  0.00  0.00    +0.032 A 
ATOM     22  C   UNL     1       4.969   0.002  23.086  0.00  0.00    +0.125 A 
ATOM     23  C   UNL     1       4.268   1.076  22.529  0.00  0.00    +0.040 A 
ATOM     26  H   UNL     1       2.132  -2.658  24.809  0.00  0.00    +0.167 HD
ENDBRANCH   7  11
BRANCH   4  12
ATOM     12  C   UNL     1      -4.080  -1.133  23.925  0.00  0.00    +0.119 C 
BRANCH  12  13
ATOM     13  C   UNL     1      -4.335   0.287  24.355  0.00  0.00    -0.033 A 
ATOM     16  C   UNL     1      -5.352   0.566  25.268  0.00  0.00    +0.006 A 
ATOM     17  C   UNL     1      -3.556   1.323  23.841  0.00  0.00    +0.006 A 
ATOM     20  C   UNL     1      -5.589   1.882  25.668  0.00  0.00    +0.015 A 
ATOM     21  C   UNL     1      -3.793   2.639  24.239  0.00  0.00    +0.015 A 
ATOM     24  C   UNL     1      -4.810   2.918  25.153  0.00  0.00    +0.059 A 
BRANCH  24  25
ATOM      3  O   UNL     1      -6.167   4.823  25.658  0.00  0.00    -0.245 OA
ATOM     25  C   UNL     1      -5.056   4.289  25.570  0.00  0.00    +0.337 C 
BRANCH  25   2
ATOM      2  O   UNL     1      -3.908   4.957  25.867  0.00  0.00    -0.477 OA
ATOM     27  H   UNL     1      -4.057   5.661  26.534  0.00  0.00    +0.295 HD
ENDBRANCH  25   2
ENDBRANCH  24  25
ENDBRANCH  12  13
ENDBRANCH   4  12
TORSDOF 5
ENDMDL
