MODEL 1
REMARK VINA RESULT:      -4.8      0.000      0.000
REMARK  Name = 28961662
REMARK  10 active torsions:
REMARK  status: ('A' for Active; 'I' for Inactive)
REMARK    1  A    between atoms: O_2  and  C_11
REMARK    2  A    between atoms: O_3  and  C_18
REMARK    3  A    between atoms: N_5  and  C_9
REMARK    4  A    between atoms: N_6  and  C_19
REMARK    5  A    between atoms: N_7  and  C_15
REMARK    6  A    between atoms: N_8  and  C_21
REMARK    7  A    between atoms: C_10  and  C_15
REMARK    8  A    between atoms: C_12  and  C_18
REMARK    9  A    between atoms: C_21  and  C_22
REMARK   10  A    between atoms: C_21  and  C_23
REMARK                            x       y       z     vdW  Elec       q    Type
REMARK                         _______ _______ _______ _____ _____    ______ ____
ROOT
ATOM      1  O   UNL     1      -0.465   3.433  25.506  0.00  0.00    -0.365 OA
ATOM      9  C   UNL     1      -1.921   1.549  25.509  0.00  0.00    +0.118 C 
ATOM     10  C   UNL     1      -0.476   2.006  25.275  0.00  0.00    +0.155 C 
ATOM     11  C   UNL     1      -2.728   2.805  25.216  0.00  0.00    +0.165 C 
ATOM     12  C   UNL     1      -1.807   3.873  25.792  0.00  0.00    +0.174 C 
ENDROOT
BRANCH   9   5
ATOM      5  N   UNL     1      -2.346   0.353  24.786  0.00  0.00    -0.292 NA
ATOM      6  N   UNL     1      -3.518  -2.286  24.638  0.00  0.00    -0.303 NA
ATOM     13  C   UNL     1      -1.622  -0.831  25.266  0.00  0.00    +0.100 C 
ATOM     14  C   UNL     1      -3.795   0.154  24.911  0.00  0.00    +0.100 C 
ATOM     16  C   UNL     1      -2.069  -2.088  24.512  0.00  0.00    +0.099 C 
ATOM     17  C   UNL     1      -4.240  -1.103  24.156  0.00  0.00    +0.099 C 
ATOM     19  C   UNL     1      -3.942  -3.484  23.917  0.00  0.00    +0.105 C 
ENDBRANCH   9   5
BRANCH  11   2
ATOM      2  O   UNL     1      -2.899   3.000  23.818  0.00  0.00    -0.388 OA
ATOM     24  H   UNL     1      -2.015   3.013  23.412  0.00  0.00    +0.210 HD
ENDBRANCH  11   2
BRANCH  10  15
ATOM     15  C   UNL     1       0.100   1.770  23.883  0.00  0.00    +0.139 C 
BRANCH  15   7
ATOM      4  O   UNL     1       1.704  -0.360  22.781  0.00  0.00    -0.253 OA
ATOM      7  N   UNL     1       1.526   1.653  23.928  0.00  0.00    -0.297 N 
ATOM      8  N   UNL     1       3.607   0.721  23.553  0.00  0.00    -0.297 N 
ATOM     20  C   UNL     1       2.234   0.584  23.366  0.00  0.00    +0.300 C 
ATOM     25  H   UNL     1       2.054   2.392  24.383  0.00  0.00    +0.150 HD
ATOM     27  H   UNL     1       3.952   1.573  23.984  0.00  0.00    +0.150 HD
BRANCH   8  21
ATOM     21  C   UNL     1       4.563  -0.248  23.070  0.00  0.00    +0.068 C 
ATOM     22  C   UNL     1       4.352  -1.589  23.759  0.00  0.00    +0.027 C 
ATOM     23  C   UNL     1       5.985   0.259  23.272  0.00  0.00    +0.027 C 
ENDBRANCH   8  21
ENDBRANCH  15   7
ENDBRANCH  10  15
BRANCH  12  18
ATOM     18  C   UNL     1      -2.003   5.273  25.238  0.00  0.00    +0.190 C 
BRANCH  18   3
ATOM      3  O   UNL     1      -0.768   5.735  24.712  0.00  0.00    -0.392 OA
ATOM     26  H   UNL     1      -0.837   6.701  24.625  0.00  0.00    +0.210 HD
ENDBRANCH  18   3
ENDBRANCH  12  18
TORSDOF 7
ENDMDL
MODEL 2
REMARK VINA RESULT:      -3.4      1.626      2.162
REMARK  Name = 28961662
REMARK  10 active torsions:
REMARK  status: ('A' for Active; 'I' for Inactive)
REMARK    1  A    between atoms: O_2  and  C_11
REMARK    2  A    between atoms: O_3  and  C_18
REMARK    3  A    between atoms: N_5  and  C_9
REMARK    4  A    between atoms: N_6  and  C_19
REMARK    5  A    between atoms: N_7  and  C_15
REMARK    6  A    between atoms: N_8  and  C_21
REMARK    7  A    between atoms: C_10  and  C_15
REMARK    8  A    between atoms: C_12  and  C_18
REMARK    9  A    between atoms: C_21  and  C_22
REMARK   10  A    between atoms: C_21  and  C_23
REMARK                            x       y       z     vdW  Elec       q    Type
REMARK                         _______ _______ _______ _____ _____    ______ ____
ROOT
ATOM      1  O   UNL     1      -2.681   3.868  25.614  0.00  0.00    -0.365 OA
ATOM      9  C   UNL     1      -3.120   1.528  25.612  0.00  0.00    +0.118 C 
ATOM     10  C   UNL     1      -2.054   2.595  25.336  0.00  0.00    +0.155 C 
ATOM     11  C   UNL     1      -4.423   2.281  25.393  0.00  0.00    +0.165 C 
ATOM     12  C   UNL     1      -4.060   3.645  25.967  0.00  0.00    +0.174 C 
ENDROOT
BRANCH   9   5
ATOM      5  N   UNL     1      -2.991   0.278  24.866  0.00  0.00    -0.292 NA
ATOM      6  N   UNL     1      -3.259  -2.586  24.576  0.00  0.00    -0.303 NA
ATOM     13  C   UNL     1      -2.080  -0.647  25.553  0.00  0.00    +0.100 C 
ATOM     14  C   UNL     1      -4.303  -0.349  24.666  0.00  0.00    +0.100 C 
ATOM     16  C   UNL     1      -1.946  -1.960  24.775  0.00  0.00    +0.099 C 
ATOM     17  C   UNL     1      -4.167  -1.662  23.888  0.00  0.00    +0.099 C 
ATOM     19  C   UNL     1      -3.129  -3.838  23.833  0.00  0.00    +0.105 C 
ENDBRANCH   9   5
BRANCH  11   2
ATOM      2  O   UNL     1      -4.735   2.393  24.010  0.00  0.00    -0.388 OA
ATOM     24  H   UNL     1      -4.058   2.960  23.601  0.00  0.00    +0.210 HD
ENDBRANCH  11   2
BRANCH  10  15
ATOM     15  C   UNL     1      -1.505   2.664  23.915  0.00  0.00    +0.139 C 
BRANCH  15   7
ATOM      4  O   UNL     1      -0.097   0.327  22.975  0.00  0.00    -0.253 OA
ATOM      7  N   UNL     1      -0.088   2.459  23.900  0.00  0.00    -0.297 N 
ATOM      8  N   UNL     1       1.908   1.358  23.525  0.00  0.00    -0.297 N 
ATOM     20  C   UNL     1       0.521   1.292  23.424  0.00  0.00    +0.300 C 
ATOM     25  H   UNL     1       0.508   3.206  24.242  0.00  0.00    +0.150 HD
ATOM     27  H   UNL     1       2.328   2.227  23.841  0.00  0.00    +0.150 HD
BRANCH   8  21
ATOM     21  C   UNL     1       2.776   0.283  23.104  0.00  0.00    +0.068 C 
ATOM     22  C   UNL     1       4.231   0.728  23.152  0.00  0.00    +0.027 C 
ATOM     23  C   UNL     1       2.392  -0.200  21.711  0.00  0.00    +0.027 C 
ENDBRANCH   8  21
ENDBRANCH  15   7
ENDBRANCH  10  15
BRANCH  12  18
ATOM     18  C   UNL     1      -4.898   4.809  25.468  0.00  0.00    +0.190 C 
BRANCH  18   3
ATOM      3  O   UNL     1      -6.268   4.523  25.708  0.00  0.00    -0.392 OA
ATOM     26  H   UNL     1      -6.639   4.183  24.877  0.00  0.00    +0.210 HD
ENDBRANCH  18   3
ENDBRANCH  12  18
TORSDOF 7
ENDMDL
MODEL 3
REMARK VINA RESULT:      -2.5      2.598      4.685
REMARK  Name = 28961662
REMARK  10 active torsions:
REMARK  status: ('A' for Active; 'I' for Inactive)
REMARK    1  A    between atoms: O_2  and  C_11
REMARK    2  A    between atoms: O_3  and  C_18
REMARK    3  A    between atoms: N_5  and  C_9
REMARK    4  A    between atoms: N_6  and  C_19
REMARK    5  A    between atoms: N_7  and  C_15
REMARK    6  A    between atoms: N_8  and  C_21
REMARK    7  A    between atoms: C_10  and  C_15
REMARK    8  A    between atoms: C_12  and  C_18
REMARK    9  A    between atoms: C_21  and  C_22
REMARK   10  A    between atoms: C_21  and  C_23
REMARK                            x       y       z     vdW  Elec       q    Type
REMARK                         _______ _______ _______ _____ _____    ______ ____
ROOT
ATOM      1  O   UNL     1      -1.411  -1.091  23.806  0.00  0.00    -0.365 OA
ATOM      9  C   UNL     1      -3.191   0.472  24.038  0.00  0.00    +0.118 C 
ATOM     10  C   UNL     1      -1.670   0.327  23.900  0.00  0.00    +0.155 C 
ATOM     11  C   UNL     1      -3.606  -0.853  24.659  0.00  0.00    +0.165 C 
ATOM     12  C   UNL     1      -2.652  -1.807  23.950  0.00  0.00    +0.174 C 
ENDROOT
BRANCH   9   5
ATOM      5  N   UNL     1      -3.666   1.664  24.738  0.00  0.00    -0.292 NA
ATOM      6  N   UNL     1      -5.426   3.935  25.053  0.00  0.00    -0.303 NA
ATOM     13  C   UNL     1      -3.533   2.854  23.889  0.00  0.00    +0.100 C 
ATOM     14  C   UNL     1      -5.057   1.495  25.172  0.00  0.00    +0.100 C 
ATOM     16  C   UNL     1      -4.034   4.105  24.620  0.00  0.00    +0.099 C 
ATOM     17  C   UNL     1      -5.557   2.746  25.903  0.00  0.00    +0.099 C 
ATOM     19  C   UNL     1      -5.902   5.127  25.751  0.00  0.00    +0.105 C 
ENDBRANCH   9   5
BRANCH  11   2
ATOM      2  O   UNL     1      -3.368  -0.868  26.061  0.00  0.00    -0.388 OA
ATOM     24  H   UNL     1      -3.798  -0.083  26.441  0.00  0.00    +0.210 HD
ENDBRANCH  11   2
BRANCH  10  15
ATOM     15  C   UNL     1      -0.824   0.867  25.047  0.00  0.00    +0.139 C 
BRANCH  15   7
ATOM      4  O   UNL     1       1.143  -0.439  23.388  0.00  0.00    -0.253 OA
ATOM      7  N   UNL     1       0.404   1.423  24.565  0.00  0.00    -0.297 N 
ATOM      8  N   UNL     1       2.418   1.498  23.436  0.00  0.00    -0.297 N 
ATOM     20  C   UNL     1       1.309   0.722  23.760  0.00  0.00    +0.300 C 
ATOM     25  H   UNL     1       0.626   2.383  24.811  0.00  0.00    +0.150 HD
ATOM     27  H   UNL     1       2.429   2.471  23.729  0.00  0.00    +0.150 HD
BRANCH   8  21
ATOM     21  C   UNL     1       3.503   1.011  22.615  0.00  0.00    +0.068 C 
ATOM     22  C   UNL     1       2.984   0.005  21.596  0.00  0.00    +0.027 C 
ATOM     23  C   UNL     1       4.598   0.404  23.481  0.00  0.00    +0.027 C 
ENDBRANCH   8  21
ENDBRANCH  15   7
ENDBRANCH  10  15
BRANCH  12  18
ATOM     18  C   UNL     1      -2.393  -3.122  24.662  0.00  0.00    +0.190 C 
BRANCH  18   3
ATOM      3  O   UNL     1      -3.556  -3.486  25.390  0.00  0.00    -0.392 OA
ATOM     26  H   UNL     1      -4.305  -3.448  24.772  0.00  0.00    +0.210 HD
ENDBRANCH  18   3
ENDBRANCH  12  18
TORSDOF 7
ENDMDL
MODEL 4
REMARK VINA RESULT:      -2.1      2.594      5.411
REMARK  Name = 28961662
REMARK  10 active torsions:
REMARK  status: ('A' for Active; 'I' for Inactive)
REMARK    1  A    between atoms: O_2  and  C_11
REMARK    2  A    between atoms: O_3  and  C_18
REMARK    3  A    between atoms: N_5  and  C_9
REMARK    4  A    between atoms: N_6  and  C_19
REMARK    5  A    between atoms: N_7  and  C_15
REMARK    6  A    between atoms: N_8  and  C_21
REMARK    7  A    between atoms: C_10  and  C_15
REMARK    8  A    between atoms: C_12  and  C_18
REMARK    9  A    between atoms: C_21  and  C_22
REMARK   10  A    between atoms: C_21  and  C_23
REMARK                            x       y       z     vdW  Elec       q    Type
REMARK                         _______ _______ _______ _____ _____    ______ ____
ROOT
ATOM      1  O   UNL     1       1.268   1.682  24.772  0.00  0.00    -0.365 OA
ATOM      9  C   UNL     1      -0.854   2.720  24.478  0.00  0.00    +0.118 C 
ATOM     10  C   UNL     1       0.190   2.292  25.517  0.00  0.00    +0.155 C 
ATOM     11  C   UNL     1      -0.603   1.761  23.325  0.00  0.00    +0.165 C 
ATOM     12  C   UNL     1       0.916   1.650  23.376  0.00  0.00    +0.174 C 
ENDROOT
BRANCH   9   5
ATOM      5  N   UNL     1      -2.238   2.788  24.942  0.00  0.00    -0.292 NA
ATOM      6  N   UNL     1      -4.835   4.045  25.119  0.00  0.00    -0.303 NA
ATOM     13  C   UNL     1      -2.453   3.982  25.769  0.00  0.00    +0.100 C 
ATOM     14  C   UNL     1      -3.170   2.775  23.809  0.00  0.00    +0.100 C 
ATOM     16  C   UNL     1      -3.904   4.058  26.254  0.00  0.00    +0.099 C 
ATOM     17  C   UNL     1      -4.621   2.850  24.295  0.00  0.00    +0.099 C 
ATOM     19  C   UNL     1      -6.220   4.115  25.583  0.00  0.00    +0.105 C 
ENDBRANCH   9   5
BRANCH  11   2
ATOM      2  O   UNL     1      -1.200   0.492  23.564  0.00  0.00    -0.388 OA
ATOM     24  H   UNL     1      -1.597   0.192  22.728  0.00  0.00    +0.210 HD
ENDBRANCH  11   2
BRANCH  10  15
ATOM     15  C   UNL     1      -0.263   1.282  26.566  0.00  0.00    +0.139 C 
BRANCH  15   7
ATOM      4  O   UNL     1      -0.553  -1.430  25.622  0.00  0.00    -0.253 OA
ATOM      7  N   UNL     1      -1.475   0.632  26.168  0.00  0.00    -0.297 N 
ATOM      8  N   UNL     1      -2.834  -1.070  25.398  0.00  0.00    -0.297 N 
ATOM     20  C   UNL     1      -1.533  -0.692  25.720  0.00  0.00    +0.300 C 
ATOM     25  H   UNL     1      -2.342   1.158  26.224  0.00  0.00    +0.150 HD
ATOM     27  H   UNL     1      -3.587  -0.414  25.584  0.00  0.00    +0.150 HD
BRANCH   8  21
ATOM     21  C   UNL     1      -3.169  -2.387  24.910  0.00  0.00    +0.068 C 
ATOM     22  C   UNL     1      -1.966  -3.019  24.223  0.00  0.00    +0.027 C 
ATOM     23  C   UNL     1      -4.369  -2.322  23.974  0.00  0.00    +0.027 C 
ENDBRANCH   8  21
ENDBRANCH  15   7
ENDBRANCH  10  15
BRANCH  12  18
ATOM     18  C   UNL     1       1.502   0.403  22.740  0.00  0.00    +0.190 C 
BRANCH  18   3
ATOM      3  O   UNL     1       1.286  -0.699  23.608  0.00  0.00    -0.392 OA
ATOM     26  H   UNL     1       1.569  -1.498  23.132  0.00  0.00    +0.210 HD
ENDBRANCH  18   3
ENDBRANCH  12  18
TORSDOF 7
ENDMDL
MODEL 5
REMARK VINA RESULT:      -1.8      3.035      5.300
REMARK  Name = 28961662
REMARK  10 active torsions:
REMARK  status: ('A' for Active; 'I' for Inactive)
REMARK    1  A    between atoms: O_2  and  C_11
REMARK    2  A    between atoms: O_3  and  C_18
REMARK    3  A    between atoms: N_5  and  C_9
REMARK    4  A    between atoms: N_6  and  C_19
REMARK    5  A    between atoms: N_7  and  C_15
REMARK    6  A    between atoms: N_8  and  C_21
REMARK    7  A    between atoms: C_10  and  C_15
REMARK    8  A    between atoms: C_12  and  C_18
REMARK    9  A    between atoms: C_21  and  C_22
REMARK   10  A    between atoms: C_21  and  C_23
REMARK                            x       y       z     vdW  Elec       q    Type
REMARK                         _______ _______ _______ _____ _____    ______ ____
ROOT
ATOM      1  O   UNL     1      -0.741  -0.744  23.738  0.00  0.00    -0.365 OA
ATOM      9  C   UNL     1      -2.767   0.243  24.505  0.00  0.00    +0.118 C 
ATOM     10  C   UNL     1      -1.527   0.464  23.630  0.00  0.00    +0.155 C 
ATOM     11  C   UNL     1      -2.286  -0.772  25.530  0.00  0.00    +0.165 C 
ATOM     12  C   UNL     1      -1.382  -1.642  24.664  0.00  0.00    +0.174 C 
ENDROOT
BRANCH   9   5
ATOM      5  N   UNL     1      -3.389   1.442  25.060  0.00  0.00    -0.292 NA
ATOM      6  N   UNL     1      -5.304   3.608  25.012  0.00  0.00    -0.303 NA
ATOM     13  C   UNL     1      -3.227   2.583  24.149  0.00  0.00    +0.100 C 
ATOM     14  C   UNL     1      -4.810   1.210  25.344  0.00  0.00    +0.100 C 
ATOM     16  C   UNL     1      -3.882   3.841  24.728  0.00  0.00    +0.099 C 
ATOM     17  C   UNL     1      -5.463   2.469  25.924  0.00  0.00    +0.099 C 
ATOM     19  C   UNL     1      -5.927   4.809  25.565  0.00  0.00    +0.105 C 
ENDBRANCH   9   5
BRANCH  11   2
ATOM      2  O   UNL     1      -1.532  -0.151  26.564  0.00  0.00    -0.388 OA
ATOM     24  H   UNL     1      -1.805  -0.550  27.408  0.00  0.00    +0.210 HD
ENDBRANCH  11   2
BRANCH  10  15
ATOM     15  C   UNL     1      -0.619   1.628  24.012  0.00  0.00    +0.139 C 
BRANCH  15   7
ATOM      4  O   UNL     1       0.097   3.652  25.940  0.00  0.00    -0.253 OA
ATOM      7  N   UNL     1      -0.028   1.422  25.299  0.00  0.00    -0.297 N 
ATOM      8  N   UNL     1       0.854   1.981  27.360  0.00  0.00    -0.297 N 
ATOM     20  C   UNL     1       0.290   2.461  26.181  0.00  0.00    +0.300 C 
ATOM     25  H   UNL     1       0.161   0.469  25.593  0.00  0.00    +0.150 HD
ATOM     27  H   UNL     1       0.904   0.975  27.497  0.00  0.00    +0.150 HD
BRANCH   8  21
ATOM     21  C   UNL     1       1.272   2.847  28.438  0.00  0.00    +0.068 C 
ATOM     22  C   UNL     1       2.793   2.908  28.507  0.00  0.00    +0.027 C 
ATOM     23  C   UNL     1       0.678   2.381  29.760  0.00  0.00    +0.027 C 
ENDBRANCH   8  21
ENDBRANCH  15   7
ENDBRANCH  10  15
BRANCH  12  18
ATOM     18  C   UNL     1      -0.323  -2.431  25.411  0.00  0.00    +0.190 C 
BRANCH  18   3
ATOM      3  O   UNL     1       0.879  -1.677  25.435  0.00  0.00    -0.392 OA
ATOM     26  H   UNL     1       0.770  -0.943  24.808  0.00  0.00    +0.210 HD
ENDBRANCH  18   3
ENDBRANCH  12  18
TORSDOF 7
ENDMDL
MODEL 6
REMARK VINA RESULT:      -1.3      3.107      5.167
REMARK  Name = 28961662
REMARK  10 active torsions:
REMARK  status: ('A' for Active; 'I' for Inactive)
REMARK    1  A    between atoms: O_2  and  C_11
REMARK    2  A    between atoms: O_3  and  C_18
REMARK    3  A    between atoms: N_5  and  C_9
REMARK    4  A    between atoms: N_6  and  C_19
REMARK    5  A    between atoms: N_7  and  C_15
REMARK    6  A    between atoms: N_8  and  C_21
REMARK    7  A    between atoms: C_10  and  C_15
REMARK    8  A    between atoms: C_12  and  C_18
REMARK    9  A    between atoms: C_21  and  C_22
REMARK   10  A    between atoms: C_21  and  C_23
REMARK                            x       y       z     vdW  Elec       q    Type
REMARK                         _______ _______ _______ _____ _____    ______ ____
ROOT
ATOM      1  O   UNL     1      -0.427  -0.296  23.836  0.00  0.00    -0.365 OA
ATOM      9  C   UNL     1      -2.715   0.324  23.616  0.00  0.00    +0.118 C 
ATOM     10  C   UNL     1      -1.271   0.782  23.374  0.00  0.00    +0.155 C 
ATOM     11  C   UNL     1      -2.572  -0.661  24.766  0.00  0.00    +0.165 C 
ATOM     12  C   UNL     1      -1.253  -1.331  24.401  0.00  0.00    +0.174 C 
ENDROOT
BRANCH   9   5
ATOM      5  N   UNL     1      -3.703   1.381  23.821  0.00  0.00    -0.292 NA
ATOM      6  N   UNL     1      -5.076   3.344  25.439  0.00  0.00    -0.303 NA
ATOM     13  C   UNL     1      -4.694   0.981  24.827  0.00  0.00    +0.100 C 
ATOM     14  C   UNL     1      -3.051   2.636  24.213  0.00  0.00    +0.100 C 
ATOM     16  C   UNL     1      -5.728   2.089  25.046  0.00  0.00    +0.099 C 
ATOM     17  C   UNL     1      -4.087   3.744  24.431  0.00  0.00    +0.099 C 
ATOM     19  C   UNL     1      -6.064   4.401  25.646  0.00  0.00    +0.105 C 
ENDBRANCH   9   5
BRANCH  11   2
ATOM      2  O   UNL     1      -2.457   0.009  26.015  0.00  0.00    -0.388 OA
ATOM     24  H   UNL     1      -2.821   0.904  25.903  0.00  0.00    +0.210 HD
ENDBRANCH  11   2
BRANCH  10  15
ATOM     15  C   UNL     1      -0.824   2.048  24.096  0.00  0.00    +0.139 C 
BRANCH  15   7
ATOM      4  O   UNL     1      -0.099   3.853  26.227  0.00  0.00    -0.253 OA
ATOM      7  N   UNL     1      -0.076   1.733  25.275  0.00  0.00    -0.297 N 
ATOM      8  N   UNL     1       0.970   2.097  27.302  0.00  0.00    -0.297 N 
ATOM     20  C   UNL     1       0.235   2.669  26.268  0.00  0.00    +0.300 C 
ATOM     25  H   UNL     1       0.236   0.776  25.403  0.00  0.00    +0.150 HD
ATOM     27  H   UNL     1       1.133   1.094  27.281  0.00  0.00    +0.150 HD
BRANCH   8  21
ATOM     21  C   UNL     1       1.420   2.847  28.452  0.00  0.00    +0.068 C 
ATOM     22  C   UNL     1       2.942   2.866  28.509  0.00  0.00    +0.027 C 
ATOM     23  C   UNL     1       0.827   2.271  29.731  0.00  0.00    +0.027 C 
ENDBRANCH   8  21
ENDBRANCH  15   7
ENDBRANCH  10  15
BRANCH  12  18
ATOM     18  C   UNL     1      -0.514  -1.990  25.551  0.00  0.00    +0.190 C 
BRANCH  18   3
ATOM      3  O   UNL     1      -0.204  -1.003  26.523  0.00  0.00    -0.392 OA
ATOM     26  H   UNL     1      -0.171  -0.148  26.062  0.00  0.00    +0.210 HD
ENDBRANCH  18   3
ENDBRANCH  12  18
TORSDOF 7
ENDMDL
MODEL 7
REMARK VINA RESULT:      -1.1      2.203      4.598
REMARK  Name = 28961662
REMARK  10 active torsions:
REMARK  status: ('A' for Active; 'I' for Inactive)
REMARK    1  A    between atoms: O_2  and  C_11
REMARK    2  A    between atoms: O_3  and  C_18
REMARK    3  A    between atoms: N_5  and  C_9
REMARK    4  A    between atoms: N_6  and  C_19
REMARK    5  A    between atoms: N_7  and  C_15
REMARK    6  A    between atoms: N_8  and  C_21
REMARK    7  A    between atoms: C_10  and  C_15
REMARK    8  A    between atoms: C_12  and  C_18
REMARK    9  A    between atoms: C_21  and  C_22
REMARK   10  A    between atoms: C_21  and  C_23
REMARK                            x       y       z     vdW  Elec       q    Type
REMARK                         _______ _______ _______ _____ _____    ______ ____
ROOT
ATOM      1  O   UNL     1      -1.675  -1.416  23.702  0.00  0.00    -0.365 OA
ATOM      9  C   UNL     1      -2.770   0.287  24.956  0.00  0.00    +0.118 C 
ATOM     10  C   UNL     1      -2.193  -0.072  23.581  0.00  0.00    +0.155 C 
ATOM     11  C   UNL     1      -1.970  -0.595  25.903  0.00  0.00    +0.165 C 
ATOM     12  C   UNL     1      -1.835  -1.860  25.063  0.00  0.00    +0.174 C 
ENDROOT
BRANCH   9   5
ATOM      5  N   UNL     1      -2.792   1.707  25.297  0.00  0.00    -0.292 NA
ATOM      6  N   UNL     1      -2.127   4.480  24.821  0.00  0.00    -0.303 NA
ATOM     13  C   UNL     1      -1.430   2.213  25.513  0.00  0.00    +0.100 C 
ATOM     14  C   UNL     1      -3.468   2.485  24.252  0.00  0.00    +0.100 C 
ATOM     16  C   UNL     1      -1.451   3.703  25.868  0.00  0.00    +0.099 C 
ATOM     17  C   UNL     1      -3.488   3.975  24.608  0.00  0.00    +0.099 C 
ATOM     19  C   UNL     1      -2.147   5.901  25.161  0.00  0.00    +0.105 C 
ENDBRANCH   9   5
BRANCH  11   2
ATOM      2  O   UNL     1      -0.688  -0.042  26.173  0.00  0.00    -0.388 OA
ATOM     24  H   UNL     1      -0.591   0.017  27.139  0.00  0.00    +0.210 HD
ENDBRANCH  11   2
BRANCH  10  15
ATOM     15  C   UNL     1      -1.057   0.805  23.065  0.00  0.00    +0.139 C 
BRANCH  15   7
ATOM      4  O   UNL     1       1.579   1.698  23.825  0.00  0.00    -0.253 OA
ATOM      7  N   UNL     1       0.165   0.065  22.970  0.00  0.00    -0.297 N 
ATOM      8  N   UNL     1       2.428  -0.357  23.163  0.00  0.00    -0.297 N 
ATOM     20  C   UNL     1       1.409   0.571  23.362  0.00  0.00    +0.300 C 
ATOM     25  H   UNL     1       0.124  -0.883  22.608  0.00  0.00    +0.150 HD
ATOM     27  H   UNL     1       2.177  -1.289  22.845  0.00  0.00    +0.150 HD
BRANCH   8  21
ATOM     21  C   UNL     1       3.809  -0.085  23.485  0.00  0.00    +0.068 C 
ATOM     22  C   UNL     1       4.471   0.698  22.360  0.00  0.00    +0.027 C 
ATOM     23  C   UNL     1       4.557  -1.381  23.770  0.00  0.00    +0.027 C 
ENDBRANCH   8  21
ENDBRANCH  15   7
ENDBRANCH  10  15
BRANCH  12  18
ATOM     18  C   UNL     1      -0.677  -2.769  25.433  0.00  0.00    +0.190 C 
BRANCH  18   3
ATOM      3  O   UNL     1       0.538  -2.054  25.269  0.00  0.00    -0.392 OA
ATOM     26  H   UNL     1       1.229  -2.552  25.737  0.00  0.00    +0.210 HD
ENDBRANCH  18   3
ENDBRANCH  12  18
TORSDOF 7
ENDMDL
MODEL 8
REMARK VINA RESULT:      -1.0      3.007      5.370
REMARK  Name = 28961662
REMARK  10 active torsions:
REMARK  status: ('A' for Active; 'I' for Inactive)
REMARK    1  A    between atoms: O_2  and  C_11
REMARK    2  A    between atoms: O_3  and  C_18
REMARK    3  A    between atoms: N_5  and  C_9
REMARK    4  A    between atoms: N_6  and  C_19
REMARK    5  A    between atoms: N_7  and  C_15
REMARK    6  A    between atoms: N_8  and  C_21
REMARK    7  A    between atoms: C_10  and  C_15
REMARK    8  A    between atoms: C_12  and  C_18
REMARK    9  A    between atoms: C_21  and  C_22
REMARK   10  A    between atoms: C_21  and  C_23
REMARK                            x       y       z     vdW  Elec       q    Type
REMARK                         _______ _______ _______ _____ _____    ______ ____
ROOT
ATOM      1  O   UNL     1      -0.263   3.271  23.596  0.00  0.00    -0.365 OA
ATOM      9  C   UNL     1      -0.728   1.093  24.436  0.00  0.00    +0.118 C 
ATOM     10  C   UNL     1      -0.685   1.957  23.169  0.00  0.00    +0.155 C 
ATOM     11  C   UNL     1      -0.963   2.114  25.538  0.00  0.00    +0.165 C 
ATOM     12  C   UNL     1      -0.119   3.277  25.029  0.00  0.00    +0.174 C 
ENDROOT
BRANCH   9   5
ATOM      5  N   UNL     1      -1.661  -0.032  24.420  0.00  0.00    -0.292 NA
ATOM      6  N   UNL     1      -2.611  -2.602  25.341  0.00  0.00    -0.303 NA
ATOM     13  C   UNL     1      -0.972  -1.275  24.053  0.00  0.00    +0.100 C 
ATOM     14  C   UNL     1      -2.325  -0.177  25.720  0.00  0.00    +0.100 C 
ATOM     16  C   UNL     1      -1.947  -2.457  24.040  0.00  0.00    +0.099 C 
ATOM     17  C   UNL     1      -3.301  -1.359  25.705  0.00  0.00    +0.099 C 
ATOM     19  C   UNL     1      -3.542  -3.728  25.326  0.00  0.00    +0.105 C 
ENDBRANCH   9   5
BRANCH  11   2
ATOM      2  O   UNL     1      -2.331   2.493  25.615  0.00  0.00    -0.388 OA
ATOM     24  H   UNL     1      -2.850   1.818  25.145  0.00  0.00    +0.210 HD
ENDBRANCH  11   2
BRANCH  10  15
ATOM     15  C   UNL     1      -1.997   2.127  22.411  0.00  0.00    +0.139 C 
BRANCH  15   7
ATOM      4  O   UNL     1      -3.946   3.781  23.749  0.00  0.00    -0.253 OA
ATOM      7  N   UNL     1      -3.108   1.685  23.197  0.00  0.00    -0.297 N 
ATOM      8  N   UNL     1      -4.996   1.860  24.517  0.00  0.00    -0.297 N 
ATOM     20  C   UNL     1      -4.014   2.554  23.817  0.00  0.00    +0.300 C 
ATOM     25  H   UNL     1      -3.254   0.685  23.303  0.00  0.00    +0.150 HD
ATOM     27  H   UNL     1      -5.011   0.846  24.452  0.00  0.00    +0.150 HD
BRANCH   8  21
ATOM     21  C   UNL     1      -6.053   2.521  25.247  0.00  0.00    +0.068 C 
ATOM     22  C   UNL     1      -5.611   3.915  25.671  0.00  0.00    +0.027 C 
ATOM     23  C   UNL     1      -6.477   1.686  26.448  0.00  0.00    +0.027 C 
ENDBRANCH   8  21
ENDBRANCH  15   7
ENDBRANCH  10  15
BRANCH  12  18
ATOM     18  C   UNL     1      -0.501   4.645  25.565  0.00  0.00    +0.190 C 
BRANCH  18   3
ATOM      3  O   UNL     1      -1.719   5.052  24.959  0.00  0.00    -0.392 OA
ATOM     26  H   UNL     1      -2.283   5.412  25.664  0.00  0.00    +0.210 HD
ENDBRANCH  18   3
ENDBRANCH  12  18
TORSDOF 7
ENDMDL
