MODEL 1
REMARK VINA RESULT:       0.6      0.000      0.000
REMARK  Name = 11884463
REMARK  7 active torsions:
REMARK  status: ('A' for Active; 'I' for Inactive)
REMARK    1  A    between atoms: S_1  and  N_7
REMARK    2  A    between atoms: S_1  and  C_21
REMARK    3  A    between atoms: O_6  and  C_33
REMARK    4  A    between atoms: O_6  and  C_34
REMARK    5  A    between atoms: N_9  and  C_20
REMARK    6  A    between atoms: C_28  and  C_30
REMARK    7  A    between atoms: C_30  and  C_33
REMARK                            x       y       z     vdW  Elec       q    Type
REMARK                         _______ _______ _______ _____ _____    ______ ____
ROOT
ATOM      4  O   UNL     1       0.561   2.293  25.988  0.00  0.00    -0.266 OA
ATOM      7  N   UNL     1      -4.343   2.124  25.124  0.00  0.00    -0.176 NA
ATOM      8  N   UNL     1      -1.320   2.984  24.786  0.00  0.00    -0.310 N 
ATOM     11  C   UNL     1      -3.267   4.252  25.864  0.00  0.00    +0.025 C 
ATOM     12  C   UNL     1      -3.350   3.695  23.472  0.00  0.00    +0.052 C 
ATOM     13  C   UNL     1      -3.467   4.842  24.473  0.00  0.00    +0.017 C 
ATOM     14  C   UNL     1      -4.343   3.195  26.161  0.00  0.00    +0.114 C 
ATOM     15  C   UNL     1      -4.463   2.665  23.737  0.00  0.00    +0.119 C 
ATOM     16  C   UNL     1      -1.845   3.686  25.964  0.00  0.00    +0.130 C 
ATOM     17  C   UNL     1      -1.986   3.035  23.557  0.00  0.00    +0.026 A 
ATOM     18  C   UNL     1      -1.432   2.482  22.465  0.00  0.00    +0.024 A 
ATOM     19  C   UNL     1      -0.070   2.349  24.931  0.00  0.00    +0.273 A 
ATOM     20  C   UNL     1       0.502   1.726  23.695  0.00  0.00    +0.099 A 
ATOM     22  C   UNL     1      -0.163   1.814  22.539  0.00  0.00    +0.030 A 
ENDROOT
BRANCH  20   9
ATOM      5  O   UNL     1       1.547  -0.233  21.887  0.00  0.00    -0.275 OA
ATOM      9  N   UNL     1       1.705   1.091  23.797  0.00  0.00    -0.281 N 
ATOM     28  C   UNL     1       2.157   0.146  22.884  0.00  0.00    +0.220 C 
ATOM     35  H   UNL     1       2.183   1.156  24.693  0.00  0.00    +0.155 HD
BRANCH  28  30
ATOM     30  C   UNL     1       3.532  -0.381  23.268  0.00  0.00    +0.124 C 
BRANCH  30  33
ATOM     33  C   UNL     1       4.654   0.590  22.936  0.00  0.00    +0.168 C 
BRANCH  33   6
ATOM      6  O   UNL     1       5.837   0.196  23.620  0.00  0.00    -0.382 OA
ATOM     34  C   UNL     1       5.628  -0.981  24.388  0.00  0.00    +0.194 C 
ENDBRANCH  33   6
ENDBRANCH  30  33
ENDBRANCH  28  30
ENDBRANCH  20   9
BRANCH   7   1
ATOM      1  S   UNL     1      -5.315   0.758  25.472  0.00  0.00    +0.063 S 
ATOM      2  O   UNL     1      -6.541   0.858  24.710  0.00  0.00    -0.153 OA
ATOM      3  O   UNL     1      -5.318   0.529  26.901  0.00  0.00    -0.153 OA
BRANCH   1  21
ATOM     10  N   UNL     1      -2.482  -0.052  25.923  0.00  0.00    -0.253 NA
ATOM     21  C   UNL     1      -4.480  -0.679  24.808  0.00  0.00    +0.131 A 
ATOM     23  C   UNL     1      -3.158  -0.897  25.123  0.00  0.00    +0.097 A 
ATOM     24  C   UNL     1      -5.228  -1.508  23.994  0.00  0.00    +0.031 A 
ATOM     25  C   UNL     1      -2.553  -2.045  24.570  0.00  0.00    +0.002 A 
ATOM     26  C   UNL     1      -4.625  -2.636  23.453  0.00  0.00    +0.003 A 
ATOM     27  C   UNL     1      -3.290  -2.906  23.740  0.00  0.00    +0.010 A 
ATOM     29  C   UNL     1      -1.208  -2.293  24.875  0.00  0.00    +0.011 A 
ATOM     31  C   UNL     1      -1.185  -0.327  26.192  0.00  0.00    +0.111 A 
ATOM     32  C   UNL     1      -0.507  -1.423  25.699  0.00  0.00    +0.020 A 
ENDBRANCH   1  21
ENDBRANCH   7   1
TORSDOF 6
ENDMDL
MODEL 2
REMARK VINA RESULT:       3.5      1.527      4.477
REMARK  Name = 11884463
REMARK  7 active torsions:
REMARK  status: ('A' for Active; 'I' for Inactive)
REMARK    1  A    between atoms: S_1  and  N_7
REMARK    2  A    between atoms: S_1  and  C_21
REMARK    3  A    between atoms: O_6  and  C_33
REMARK    4  A    between atoms: O_6  and  C_34
REMARK    5  A    between atoms: N_9  and  C_20
REMARK    6  A    between atoms: C_28  and  C_30
REMARK    7  A    between atoms: C_30  and  C_33
REMARK                            x       y       z     vdW  Elec       q    Type
REMARK                         _______ _______ _______ _____ _____    ______ ____
ROOT
ATOM      4  O   UNL     1      -0.378  -0.424  22.099  0.00  0.00    -0.266 OA
ATOM      7  N   UNL     1      -4.427   0.233  24.928  0.00  0.00    -0.176 NA
ATOM      8  N   UNL     1      -1.601  -0.871  24.039  0.00  0.00    -0.310 N 
ATOM     11  C   UNL     1      -3.888  -2.023  24.003  0.00  0.00    +0.025 C 
ATOM     12  C   UNL     1      -2.912  -1.319  26.145  0.00  0.00    +0.052 C 
ATOM     13  C   UNL     1      -3.508  -2.508  25.396  0.00  0.00    +0.017 C 
ATOM     14  C   UNL     1      -4.928  -0.894  24.090  0.00  0.00    +0.114 C 
ATOM     15  C   UNL     1      -3.973  -0.211  26.280  0.00  0.00    +0.119 C 
ATOM     16  C   UNL     1      -2.616  -1.593  23.261  0.00  0.00    +0.130 C 
ATOM     17  C   UNL     1      -1.681  -0.788  25.434  0.00  0.00    +0.026 A 
ATOM     18  C   UNL     1      -0.684  -0.222  26.135  0.00  0.00    +0.024 A 
ATOM     19  C   UNL     1      -0.499  -0.360  23.323  0.00  0.00    +0.273 A 
ATOM     20  C   UNL     1       0.578   0.283  24.141  0.00  0.00    +0.099 A 
ATOM     22  C   UNL     1       0.467   0.325  25.472  0.00  0.00    +0.030 A 
ENDROOT
BRANCH  20   9
ATOM      5  O   UNL     1       2.804  -1.189  23.103  0.00  0.00    -0.275 OA
ATOM      9  N   UNL     1       1.656   0.802  23.483  0.00  0.00    -0.281 N 
ATOM     28  C   UNL     1       2.709   0.032  23.003  0.00  0.00    +0.220 C 
ATOM     35  H   UNL     1       1.791   1.808  23.547  0.00  0.00    +0.155 HD
BRANCH  28  30
ATOM     30  C   UNL     1       3.758   0.895  22.318  0.00  0.00    +0.124 C 
BRANCH  30  33
ATOM     33  C   UNL     1       5.180   0.529  22.714  0.00  0.00    +0.168 C 
BRANCH  33   6
ATOM      6  O   UNL     1       5.294   0.550  24.132  0.00  0.00    -0.382 OA
ATOM     34  C   UNL     1       5.756  -0.696  24.636  0.00  0.00    +0.194 C 
ENDBRANCH  33   6
ENDBRANCH  30  33
ENDBRANCH  28  30
ENDBRANCH  20   9
BRANCH   7   1
ATOM      1  S   UNL     1      -5.377   1.656  24.897  0.00  0.00    +0.063 S 
ATOM      2  O   UNL     1      -6.410   1.543  25.904  0.00  0.00    -0.153 OA
ATOM      3  O   UNL     1      -5.681   1.995  23.522  0.00  0.00    -0.153 OA
BRANCH   1  21
ATOM     10  N   UNL     1      -2.668   2.386  23.891  0.00  0.00    -0.253 NA
ATOM     21  C   UNL     1      -4.342   3.006  25.453  0.00  0.00    +0.131 A 
ATOM     23  C   UNL     1      -3.110   3.195  24.872  0.00  0.00    +0.097 A 
ATOM     24  C   UNL     1      -4.853   3.801  26.462  0.00  0.00    +0.031 A 
ATOM     25  C   UNL     1      -2.339   4.274  25.352  0.00  0.00    +0.002 A 
ATOM     26  C   UNL     1      -4.087   4.861  26.929  0.00  0.00    +0.003 A 
ATOM     27  C   UNL     1      -2.832   5.099  26.376  0.00  0.00    +0.010 A 
ATOM     29  C   UNL     1      -1.079   4.491  24.777  0.00  0.00    +0.011 A 
ATOM     31  C   UNL     1      -1.446   2.629  23.364  0.00  0.00    +0.111 A 
ATOM     32  C   UNL     1      -0.620   3.658  23.767  0.00  0.00    +0.020 A 
ENDBRANCH   1  21
ENDBRANCH   7   1
TORSDOF 6
ENDMDL
