MODEL 1
REMARK VINA RESULT:       8.5      0.000      0.000
REMARK  Name = 25338545
REMARK  9 active torsions:
REMARK  status: ('A' for Active; 'I' for Inactive)
REMARK    1  A    between atoms: O_3  and  C_25
REMARK    2  A    between atoms: O_3  and  C_29
REMARK    3  A    between atoms: O_4  and  C_28
REMARK    4  A    between atoms: O_4  and  C_30
REMARK    5  A    between atoms: N_5  and  C_14
REMARK    6  A    between atoms: N_6  and  C_9
REMARK    7  A    between atoms: C_10  and  C_13
REMARK    8  A    between atoms: C_15  and  C_17
REMARK    9  A    between atoms: C_16  and  C_18
REMARK                            x       y       z     vdW  Elec       q    Type
REMARK                         _______ _______ _______ _____ _____    ______ ____
ROOT
ATOM      5  N   UNL     1      -2.169  -2.418  25.321  0.00  0.00    -0.293 NA
ATOM      9  C   UNL     1      -4.113  -2.016  24.099  0.00  0.00    +0.089 C 
ATOM     10  C   UNL     1      -1.701  -2.365  23.923  0.00  0.00    +0.147 C 
ATOM     11  C   UNL     1      -2.945  -1.949  23.114  0.00  0.00    +0.052 C 
ATOM     12  C   UNL     1      -3.574  -2.838  25.259  0.00  0.00    +0.107 C 
ATOM     14  C   UNL     1      -1.373  -3.306  26.160  0.00  0.00    +0.105 C 
ENDROOT
BRANCH  10  13
ATOM      1  O   UNL     1      -0.834  -0.125  23.481  0.00  0.00    -0.336 OA
ATOM      7  N   UNL     1       0.752  -1.687  23.724  0.00  0.00    -0.190 NA
ATOM      8  N   UNL     1       0.391   0.536  23.321  0.00  0.00    -0.056 NA
ATOM     13  C   UNL     1      -0.531  -1.429  23.714  0.00  0.00    +0.245 A 
ATOM     16  C   UNL     1       1.277  -0.452  23.478  0.00  0.00    +0.202 A 
BRANCH  16  18
ATOM     18  C   UNL     1       2.693  -0.238  23.398  0.00  0.00    +0.023 A 
ATOM     21  C   UNL     1       3.574  -1.215  23.862  0.00  0.00    +0.015 A 
ATOM     22  C   UNL     1       3.189   0.948  22.858  0.00  0.00    +0.015 A 
ATOM     26  C   UNL     1       4.951  -1.006  23.786  0.00  0.00    +0.046 A 
ATOM     27  C   UNL     1       4.566   1.158  22.782  0.00  0.00    +0.046 A 
ATOM     28  C   UNL     1       5.447   0.182  23.246  0.00  0.00    +0.120 A 
BRANCH  28   4
ATOM      4  O   UNL     1       6.791   0.386  23.171  0.00  0.00    -0.495 OA
ATOM     30  C   UNL     1       7.597  -0.727  22.788  0.00  0.00    +0.277 C 
ENDBRANCH  28   4
ENDBRANCH  16  18
ENDBRANCH  10  13
BRANCH   9   6
ATOM      2  O   UNL     1      -3.326   0.490  22.937  0.00  0.00    -0.270 OA
ATOM      6  N   UNL     1      -4.519  -0.699  24.531  0.00  0.00    -0.307 N 
ATOM     15  C   UNL     1      -4.084   0.458  23.903  0.00  0.00    +0.244 C 
ATOM     31  H   UNL     1      -5.057  -0.645  25.390  0.00  0.00    +0.149 HD
BRANCH  15  17
ATOM     17  C   UNL     1      -4.572   1.734  24.484  0.00  0.00    +0.037 A 
ATOM     19  C   UNL     1      -3.860   2.915  24.273  0.00  0.00    +0.016 A 
ATOM     20  C   UNL     1      -5.743   1.753  25.243  0.00  0.00    +0.016 A 
ATOM     23  C   UNL     1      -4.318   4.113  24.819  0.00  0.00    +0.046 A 
ATOM     24  C   UNL     1      -6.201   2.952  25.789  0.00  0.00    +0.046 A 
ATOM     25  C   UNL     1      -5.487   4.132  25.578  0.00  0.00    +0.120 A 
BRANCH  25   3
ATOM      3  O   UNL     1      -5.935   5.301  26.110  0.00  0.00    -0.495 OA
ATOM     29  C   UNL     1      -6.738   6.131  25.272  0.00  0.00    +0.277 C 
ENDBRANCH  25   3
ENDBRANCH  15  17
ENDBRANCH   9   6
TORSDOF 6
ENDMDL
MODEL 2
REMARK VINA RESULT:       8.8      2.032      7.578
REMARK  Name = 25338545
REMARK  9 active torsions:
REMARK  status: ('A' for Active; 'I' for Inactive)
REMARK    1  A    between atoms: O_3  and  C_25
REMARK    2  A    between atoms: O_3  and  C_29
REMARK    3  A    between atoms: O_4  and  C_28
REMARK    4  A    between atoms: O_4  and  C_30
REMARK    5  A    between atoms: N_5  and  C_14
REMARK    6  A    between atoms: N_6  and  C_9
REMARK    7  A    between atoms: C_10  and  C_13
REMARK    8  A    between atoms: C_15  and  C_17
REMARK    9  A    between atoms: C_16  and  C_18
REMARK                            x       y       z     vdW  Elec       q    Type
REMARK                         _______ _______ _______ _____ _____    ______ ____
ROOT
ATOM      5  N   UNL     1      -3.827  -2.235  23.889  0.00  0.00    -0.293 NA
ATOM      9  C   UNL     1      -2.085  -3.120  25.160  0.00  0.00    +0.089 C 
ATOM     10  C   UNL     1      -4.048  -1.666  25.232  0.00  0.00    +0.147 C 
ATOM     11  C   UNL     1      -2.822  -2.117  26.049  0.00  0.00    +0.052 C 
ATOM     12  C   UNL     1      -3.108  -3.496  24.100  0.00  0.00    +0.107 C 
ATOM     14  C   UNL     1      -5.062  -2.432  23.138  0.00  0.00    +0.105 C 
ENDROOT
BRANCH  10  13
ATOM      1  O   UNL     1      -5.460   0.301  25.552  0.00  0.00    -0.336 OA
ATOM      7  N   UNL     1      -3.353   0.775  24.957  0.00  0.00    -0.190 NA
ATOM      8  N   UNL     1      -5.379   1.698  25.481  0.00  0.00    -0.056 NA
ATOM     13  C   UNL     1      -4.225  -0.164  25.229  0.00  0.00    +0.245 A 
ATOM     16  C   UNL     1      -4.107   1.899  25.124  0.00  0.00    +0.202 A 
BRANCH  16  18
ATOM     18  C   UNL     1      -3.558   3.210  24.929  0.00  0.00    +0.023 A 
ATOM     21  C   UNL     1      -4.207   4.121  24.094  0.00  0.00    +0.015 A 
ATOM     22  C   UNL     1      -2.375   3.573  25.571  0.00  0.00    +0.015 A 
ATOM     26  C   UNL     1      -3.671   5.394  23.903  0.00  0.00    +0.046 A 
ATOM     27  C   UNL     1      -1.839   4.846  25.379  0.00  0.00    +0.046 A 
ATOM     28  C   UNL     1      -2.487   5.757  24.546  0.00  0.00    +0.120 A 
BRANCH  28   4
ATOM      4  O   UNL     1      -1.964   7.000  24.359  0.00  0.00    -0.495 OA
ATOM     30  C   UNL     1      -2.387   7.715  23.199  0.00  0.00    +0.277 C 
ENDBRANCH  28   4
ENDBRANCH  16  18
ENDBRANCH  10  13
BRANCH   9   6
ATOM      2  O   UNL     1      -0.902  -0.590  25.826  0.00  0.00    -0.270 OA
ATOM      6  N   UNL     1      -0.904  -2.537  24.569  0.00  0.00    -0.307 N 
ATOM     15  C   UNL     1      -0.406  -1.304  24.959  0.00  0.00    +0.244 C 
ATOM     31  H   UNL     1      -0.505  -3.022  23.770  0.00  0.00    +0.149 HD
BRANCH  15  17
ATOM     17  C   UNL     1       0.802  -0.833  24.235  0.00  0.00    +0.037 A 
ATOM     19  C   UNL     1       0.775   0.378  23.545  0.00  0.00    +0.016 A 
ATOM     20  C   UNL     1       1.966  -1.603  24.245  0.00  0.00    +0.016 A 
ATOM     23  C   UNL     1       1.909   0.820  22.865  0.00  0.00    +0.046 A 
ATOM     24  C   UNL     1       3.100  -1.162  23.565  0.00  0.00    +0.046 A 
ATOM     25  C   UNL     1       3.072   0.051  22.874  0.00  0.00    +0.120 A 
BRANCH  25   3
ATOM      3  O   UNL     1       4.179   0.481  22.211  0.00  0.00    -0.495 OA
ATOM     29  C   UNL     1       5.432   0.339  22.880  0.00  0.00    +0.277 C 
ENDBRANCH  25   3
ENDBRANCH  15  17
ENDBRANCH   9   6
TORSDOF 6
ENDMDL
MODEL 3
REMARK VINA RESULT:       9.2      2.512      5.506
REMARK  Name = 25338545
REMARK  9 active torsions:
REMARK  status: ('A' for Active; 'I' for Inactive)
REMARK    1  A    between atoms: O_3  and  C_25
REMARK    2  A    between atoms: O_3  and  C_29
REMARK    3  A    between atoms: O_4  and  C_28
REMARK    4  A    between atoms: O_4  and  C_30
REMARK    5  A    between atoms: N_5  and  C_14
REMARK    6  A    between atoms: N_6  and  C_9
REMARK    7  A    between atoms: C_10  and  C_13
REMARK    8  A    between atoms: C_15  and  C_17
REMARK    9  A    between atoms: C_16  and  C_18
REMARK                            x       y       z     vdW  Elec       q    Type
REMARK                         _______ _______ _______ _____ _____    ______ ____
ROOT
ATOM      5  N   UNL     1      -3.960   4.038  24.062  0.00  0.00    -0.293 NA
ATOM      9  C   UNL     1      -4.784   2.936  25.944  0.00  0.00    +0.089 C 
ATOM     10  C   UNL     1      -2.921   4.264  25.086  0.00  0.00    +0.147 C 
ATOM     11  C   UNL     1      -3.375   3.416  26.290  0.00  0.00    +0.052 C 
ATOM     12  C   UNL     1      -5.213   3.840  24.799  0.00  0.00    +0.107 C 
ATOM     14  C   UNL     1      -4.062   5.126  23.098  0.00  0.00    +0.105 C 
ENDROOT
BRANCH  10  13
ATOM      1  O   UNL     1      -0.684   4.951  24.387  0.00  0.00    -0.336 OA
ATOM      7  N   UNL     1      -0.997   2.734  24.397  0.00  0.00    -0.190 NA
ATOM      8  N   UNL     1       0.527   4.385  23.969  0.00  0.00    -0.056 NA
ATOM     13  C   UNL     1      -1.527   3.911  24.618  0.00  0.00    +0.245 A 
ATOM     16  C   UNL     1       0.263   3.075  24.001  0.00  0.00    +0.202 A 
BRANCH  16  18
ATOM     18  C   UNL     1       1.235   2.083  23.645  0.00  0.00    +0.023 A 
ATOM     21  C   UNL     1       0.894   0.730  23.671  0.00  0.00    +0.015 A 
ATOM     22  C   UNL     1       2.523   2.470  23.276  0.00  0.00    +0.015 A 
ATOM     26  C   UNL     1       1.840  -0.234  23.327  0.00  0.00    +0.046 A 
ATOM     27  C   UNL     1       3.471   1.505  22.933  0.00  0.00    +0.046 A 
ATOM     28  C   UNL     1       3.129   0.154  22.958  0.00  0.00    +0.120 A 
BRANCH  28   4
ATOM      4  O   UNL     1       4.053  -0.789  22.622  0.00  0.00    -0.495 OA
ATOM     30  C   UNL     1       5.050  -1.096  23.596  0.00  0.00    +0.277 C 
ENDBRANCH  28   4
ENDBRANCH  16  18
ENDBRANCH  10  13
BRANCH   9   6
ATOM      2  O   UNL     1      -2.512   1.187  25.791  0.00  0.00    -0.270 OA
ATOM      6  N   UNL     1      -4.789   1.547  25.548  0.00  0.00    -0.307 N 
ATOM     15  C   UNL     1      -3.635   0.781  25.506  0.00  0.00    +0.244 C 
ATOM     31  H   UNL     1      -5.665   1.175  25.194  0.00  0.00    +0.149 HD
BRANCH  15  17
ATOM     17  C   UNL     1      -3.805  -0.624  25.053  0.00  0.00    +0.037 A 
ATOM     19  C   UNL     1      -3.272  -1.669  25.807  0.00  0.00    +0.016 A 
ATOM     20  C   UNL     1      -4.496  -0.898  23.873  0.00  0.00    +0.016 A 
ATOM     23  C   UNL     1      -3.432  -2.988  25.382  0.00  0.00    +0.046 A 
ATOM     24  C   UNL     1      -4.655  -2.216  23.447  0.00  0.00    +0.046 A 
ATOM     25  C   UNL     1      -4.122  -3.262  24.202  0.00  0.00    +0.120 A 
BRANCH  25   3
ATOM      3  O   UNL     1      -4.278  -4.548  23.787  0.00  0.00    -0.495 OA
ATOM     29  C   UNL     1      -3.489  -4.971  22.676  0.00  0.00    +0.277 C 
ENDBRANCH  25   3
ENDBRANCH  15  17
ENDBRANCH   9   6
TORSDOF 6
ENDMDL
MODEL 4
REMARK VINA RESULT:       9.6      2.474      8.106
REMARK  Name = 25338545
REMARK  9 active torsions:
REMARK  status: ('A' for Active; 'I' for Inactive)
REMARK    1  A    between atoms: O_3  and  C_25
REMARK    2  A    between atoms: O_3  and  C_29
REMARK    3  A    between atoms: O_4  and  C_28
REMARK    4  A    between atoms: O_4  and  C_30
REMARK    5  A    between atoms: N_5  and  C_14
REMARK    6  A    between atoms: N_6  and  C_9
REMARK    7  A    between atoms: C_10  and  C_13
REMARK    8  A    between atoms: C_15  and  C_17
REMARK    9  A    between atoms: C_16  and  C_18
REMARK                            x       y       z     vdW  Elec       q    Type
REMARK                         _______ _______ _______ _____ _____    ______ ____
ROOT
ATOM      5  N   UNL     1      -2.322   4.061  26.148  0.00  0.00    -0.293 NA
ATOM      9  C   UNL     1      -1.244   4.848  24.237  0.00  0.00    +0.089 C 
ATOM     10  C   UNL     1      -3.330   3.898  25.082  0.00  0.00    +0.147 C 
ATOM     11  C   UNL     1      -2.585   4.271  23.786  0.00  0.00    +0.052 C 
ATOM     12  C   UNL     1      -1.450   5.157  25.712  0.00  0.00    +0.107 C 
ATOM     14  C   UNL     1      -2.907   4.319  27.458  0.00  0.00    +0.105 C 
ENDROOT
BRANCH  10  13
ATOM      1  O   UNL     1      -5.250   2.411  25.345  0.00  0.00    -0.336 OA
ATOM      7  N   UNL     1      -3.367   1.371  24.721  0.00  0.00    -0.190 NA
ATOM      8  N   UNL     1      -5.575   1.054  25.227  0.00  0.00    -0.056 NA
ATOM     13  C   UNL     1      -3.932   2.511  25.029  0.00  0.00    +0.245 A 
ATOM     16  C   UNL     1      -4.414   0.506  24.857  0.00  0.00    +0.202 A 
BRANCH  16  18
ATOM     18  C   UNL     1      -4.266  -0.899  24.612  0.00  0.00    +0.023 A 
ATOM     21  C   UNL     1      -3.480  -1.677  25.463  0.00  0.00    +0.015 A 
ATOM     22  C   UNL     1      -4.905  -1.488  23.522  0.00  0.00    +0.015 A 
ATOM     26  C   UNL     1      -3.334  -3.043  25.224  0.00  0.00    +0.046 A 
ATOM     27  C   UNL     1      -4.759  -2.855  23.282  0.00  0.00    +0.046 A 
ATOM     28  C   UNL     1      -3.975  -3.632  24.132  0.00  0.00    +0.120 A 
BRANCH  28   4
ATOM      4  O   UNL     1      -3.833  -4.966  23.899  0.00  0.00    -0.495 OA
ATOM     30  C   UNL     1      -3.314  -5.350  22.627  0.00  0.00    +0.277 C 
ENDBRANCH  28   4
ENDBRANCH  16  18
ENDBRANCH  10  13
BRANCH   9   6
ATOM      2  O   UNL     1      -1.454   2.208  23.130  0.00  0.00    -0.270 OA
ATOM      6  N   UNL     1      -0.167   3.906  24.042  0.00  0.00    -0.307 N 
ATOM     15  C   UNL     1      -0.368   2.648  23.496  0.00  0.00    +0.244 C 
ATOM     31  H   UNL     1       0.739   4.161  24.423  0.00  0.00    +0.149 HD
BRANCH  15  17
ATOM     17  C   UNL     1       0.838   1.788  23.386  0.00  0.00    +0.037 A 
ATOM     19  C   UNL     1       2.099   2.369  23.249  0.00  0.00    +0.016 A 
ATOM     20  C   UNL     1       0.710   0.399  23.418  0.00  0.00    +0.016 A 
ATOM     23  C   UNL     1       3.231   1.561  23.145  0.00  0.00    +0.046 A 
ATOM     24  C   UNL     1       1.842  -0.408  23.314  0.00  0.00    +0.046 A 
ATOM     25  C   UNL     1       3.103   0.173  23.177  0.00  0.00    +0.120 A 
BRANCH  25   3
ATOM      3  O   UNL     1       4.208  -0.615  23.076  0.00  0.00    -0.495 OA
ATOM     29  C   UNL     1       5.439  -0.069  23.546  0.00  0.00    +0.277 C 
ENDBRANCH  25   3
ENDBRANCH  15  17
ENDBRANCH   9   6
TORSDOF 6
ENDMDL
