MODEL 1
REMARK VINA RESULT:      -4.1      0.000      0.000
REMARK  Name = 75536994
REMARK  4 active torsions:
REMARK  status: ('A' for Active; 'I' for Inactive)
REMARK    1  A    between atoms: S_1  and  N_7
REMARK    2  A    between atoms: S_1  and  C_16
REMARK    3  A    between atoms: N_8  and  C_15
REMARK    4  A    between atoms: C_15  and  C_17
REMARK                            x       y       z     vdW  Elec       q    Type
REMARK                         _______ _______ _______ _____ _____    ______ ____
ROOT
ATOM      3  O   UNL     1      -0.796  -2.003  23.731  0.00  0.00    -0.252 OA
ATOM      6  N   UNL     1      -1.308   0.117  24.604  0.00  0.00    -0.278 N 
ATOM      7  N   UNL     1      -2.882   2.306  25.346  0.00  0.00    -0.178 NA
ATOM      8  N   UNL     1       0.470  -0.074  23.243  0.00  0.00    -0.279 N 
ATOM      9  C   UNL     1      -0.700   1.434  24.611  0.00  0.00    +0.111 C 
ATOM     10  C   UNL     1      -1.757   2.509  24.372  0.00  0.00    +0.133 C 
ATOM     11  C   UNL     1       0.373   1.347  23.529  0.00  0.00    +0.133 C 
ATOM     12  C   UNL     1      -2.481  -0.136  25.417  0.00  0.00    +0.127 C 
ATOM     13  C   UNL     1      -3.521   0.957  25.187  0.00  0.00    +0.128 C 
ATOM     14  C   UNL     1      -0.571  -0.805  23.848  0.00  0.00    +0.305 C 
ENDROOT
BRANCH   7   1
ATOM      1  S   UNL     1      -3.975   3.619  25.480  0.00  0.00    +0.029 S 
ATOM      4  O   UNL     1      -4.133   4.225  24.176  0.00  0.00    -0.158 OA
ATOM      5  O   UNL     1      -3.622   4.398  26.645  0.00  0.00    -0.158 OA
ATOM     16  C   UNL     1      -5.456   2.716  25.851  0.00  0.00    +0.215 C 
ENDBRANCH   7   1
BRANCH   8  15
ATOM     15  C   UNL     1       1.459  -0.606  22.333  0.00  0.00    +0.144 C 
BRANCH  15  17
ATOM      2  F   UNL     1       6.704   0.213  24.207  0.00  0.00    -0.205 F 
ATOM     17  C   UNL     1       2.858  -0.387  22.833  0.00  0.00    -0.030 A 
ATOM     18  C   UNL     1       3.509  -1.395  23.544  0.00  0.00    +0.008 A 
ATOM     19  C   UNL     1       3.505   0.823  22.586  0.00  0.00    +0.008 A 
ATOM     20  C   UNL     1       4.809  -1.193  24.008  0.00  0.00    +0.038 A 
ATOM     21  C   UNL     1       4.805   1.026  23.050  0.00  0.00    +0.038 A 
ATOM     22  C   UNL     1       5.456   0.018  23.762  0.00  0.00    +0.123 A 
ENDBRANCH  15  17
ENDBRANCH   8  15
TORSDOF 3
ENDMDL
MODEL 2
REMARK VINA RESULT:      -3.2     15.470     16.598
REMARK  Name = 75536994
REMARK  4 active torsions:
REMARK  status: ('A' for Active; 'I' for Inactive)
REMARK    1  A    between atoms: S_1  and  N_7
REMARK    2  A    between atoms: S_1  and  C_16
REMARK    3  A    between atoms: N_8  and  C_15
REMARK    4  A    between atoms: C_15  and  C_17
REMARK                            x       y       z     vdW  Elec       q    Type
REMARK                         _______ _______ _______ _____ _____    ______ ____
ROOT
ATOM      3  O   UNL     1      -7.851  -9.478  10.419  0.00  0.00    -0.252 OA
ATOM      6  N   UNL     1      -7.843 -10.063  12.694  0.00  0.00    -0.278 N 
ATOM      7  N   UNL     1      -8.297  -9.802  15.441  0.00  0.00    -0.178 NA
ATOM      8  N   UNL     1      -5.973 -10.411  11.497  0.00  0.00    -0.279 N 
ATOM      9  C   UNL     1      -6.945 -10.740  13.610  0.00  0.00    +0.111 C 
ATOM     10  C   UNL     1      -6.894 -10.005  14.946  0.00  0.00    +0.133 C 
ATOM     11  C   UNL     1      -5.618 -10.781  12.856  0.00  0.00    +0.133 C 
ATOM     12  C   UNL     1      -9.179  -9.709  13.129  0.00  0.00    +0.127 C 
ATOM     13  C   UNL     1      -9.117  -8.995  14.476  0.00  0.00    +0.128 C 
ATOM     14  C   UNL     1      -7.294  -9.930  11.410  0.00  0.00    +0.305 C 
ENDROOT
BRANCH   7   1
ATOM      1  S   UNL     1      -8.430  -9.331  17.083  0.00  0.00    +0.029 S 
ATOM      4  O   UNL     1      -9.122  -8.062  17.145  0.00  0.00    -0.158 OA
ATOM      5  O   UNL     1      -7.154  -9.536  17.729  0.00  0.00    -0.158 OA
ATOM     16  C   UNL     1      -9.542 -10.592  17.648  0.00  0.00    +0.215 C 
ENDBRANCH   7   1
BRANCH   8  15
ATOM     15  C   UNL     1      -5.007 -10.427  10.422  0.00  0.00    +0.144 C 
BRANCH  15  17
ATOM      2  F   UNL     1       0.126  -8.919  12.179  0.00  0.00    -0.205 F 
ATOM     17  C   UNL     1      -3.638 -10.025  10.891  0.00  0.00    -0.030 A 
ATOM     18  C   UNL     1      -3.157 -10.486  12.116  0.00  0.00    +0.008 A 
ATOM     19  C   UNL     1      -2.848  -9.191  10.101  0.00  0.00    +0.008 A 
ATOM     20  C   UNL     1      -1.885 -10.113  12.552  0.00  0.00    +0.038 A 
ATOM     21  C   UNL     1      -1.576  -8.817  10.536  0.00  0.00    +0.038 A 
ATOM     22  C   UNL     1      -1.095  -9.277  11.762  0.00  0.00    +0.123 A 
ENDBRANCH  15  17
ENDBRANCH   8  15
TORSDOF 3
ENDMDL
MODEL 3
REMARK VINA RESULT:      -2.5      0.977      1.554
REMARK  Name = 75536994
REMARK  4 active torsions:
REMARK  status: ('A' for Active; 'I' for Inactive)
REMARK    1  A    between atoms: S_1  and  N_7
REMARK    2  A    between atoms: S_1  and  C_16
REMARK    3  A    between atoms: N_8  and  C_15
REMARK    4  A    between atoms: C_15  and  C_17
REMARK                            x       y       z     vdW  Elec       q    Type
REMARK                         _______ _______ _______ _____ _____    ______ ____
ROOT
ATOM      3  O   UNL     1      -1.015  -2.589  23.789  0.00  0.00    -0.252 OA
ATOM      6  N   UNL     1      -1.551  -0.458  24.620  0.00  0.00    -0.278 N 
ATOM      7  N   UNL     1      -3.125   1.780  25.200  0.00  0.00    -0.178 NA
ATOM      8  N   UNL     1       0.363  -0.702  23.467  0.00  0.00    -0.279 N 
ATOM      9  C   UNL     1      -0.904   0.837  24.709  0.00  0.00    +0.111 C 
ATOM     10  C   UNL     1      -1.890   1.949  24.363  0.00  0.00    +0.133 C 
ATOM     11  C   UNL     1       0.282   0.719  23.755  0.00  0.00    +0.133 C 
ATOM     12  C   UNL     1      -2.817  -0.675  25.292  0.00  0.00    +0.127 C 
ATOM     13  C   UNL     1      -3.786   0.454  24.956  0.00  0.00    +0.128 C 
ATOM     14  C   UNL     1      -0.765  -1.401  23.943  0.00  0.00    +0.305 C 
ENDROOT
BRANCH   7   1
ATOM      1  S   UNL     1      -4.181   3.129  25.223  0.00  0.00    +0.029 S 
ATOM      4  O   UNL     1      -5.298   2.826  26.091  0.00  0.00    -0.158 OA
ATOM      5  O   UNL     1      -4.373   3.591  23.868  0.00  0.00    -0.158 OA
ATOM     16  C   UNL     1      -3.135   4.292  26.059  0.00  0.00    +0.215 C 
ENDBRANCH   7   1
BRANCH   8  15
ATOM     15  C   UNL     1       1.430  -1.262  22.670  0.00  0.00    +0.144 C 
BRANCH  15  17
ATOM      2  F   UNL     1       6.415   1.043  23.909  0.00  0.00    -0.205 F 
ATOM     17  C   UNL     1       2.760  -0.648  23.000  0.00  0.00    -0.030 A 
ATOM     18  C   UNL     1       3.042   0.659  22.602  0.00  0.00    +0.008 A 
ATOM     19  C   UNL     1       3.712  -1.383  23.705  0.00  0.00    +0.008 A 
ATOM     20  C   UNL     1       4.277   1.231  22.909  0.00  0.00    +0.038 A 
ATOM     21  C   UNL     1       4.947  -0.812  24.012  0.00  0.00    +0.038 A 
ATOM     22  C   UNL     1       5.230   0.495  23.613  0.00  0.00    +0.123 A 
ENDBRANCH  15  17
ENDBRANCH   8  15
TORSDOF 3
ENDMDL
MODEL 4
REMARK VINA RESULT:      -1.8     16.430     18.404
REMARK  Name = 75536994
REMARK  4 active torsions:
REMARK  status: ('A' for Active; 'I' for Inactive)
REMARK    1  A    between atoms: S_1  and  N_7
REMARK    2  A    between atoms: S_1  and  C_16
REMARK    3  A    between atoms: N_8  and  C_15
REMARK    4  A    between atoms: C_15  and  C_17
REMARK                            x       y       z     vdW  Elec       q    Type
REMARK                         _______ _______ _______ _____ _____    ______ ____
ROOT
ATOM      3  O   UNL     1      -8.737  -9.515   9.923  0.00  0.00    -0.252 OA
ATOM      6  N   UNL     1      -6.646  -9.125  10.921  0.00  0.00    -0.278 N 
ATOM      7  N   UNL     1      -3.878  -9.277  11.286  0.00  0.00    -0.178 NA
ATOM      8  N   UNL     1      -8.377  -9.663  12.249  0.00  0.00    -0.279 N 
ATOM      9  C   UNL     1      -6.119  -9.015  12.268  0.00  0.00    +0.111 C 
ATOM     10  C   UNL     1      -4.788  -9.751  12.381  0.00  0.00    +0.133 C 
ATOM     11  C   UNL     1      -7.235  -9.580  13.143  0.00  0.00    +0.133 C 
ATOM     12  C   UNL     1      -5.795  -8.812   9.790  0.00  0.00    +0.127 C 
ATOM     13  C   UNL     1      -4.459  -9.536   9.926  0.00  0.00    +0.128 C 
ATOM     14  C   UNL     1      -8.012  -9.440  10.907  0.00  0.00    +0.305 C 
ENDROOT
BRANCH   7   1
ATOM      1  S   UNL     1      -2.230  -9.709  11.468  0.00  0.00    +0.029 S 
ATOM      4  O   UNL     1      -1.437  -8.500  11.520  0.00  0.00    -0.158 OA
ATOM      5  O   UNL     1      -1.926 -10.780  10.547  0.00  0.00    -0.158 OA
ATOM     16  C   UNL     1      -2.297 -10.392  13.104  0.00  0.00    +0.215 C 
ENDBRANCH   7   1
BRANCH   8  15
ATOM     15  C   UNL     1      -9.687 -10.059  12.715  0.00  0.00    +0.144 C 
BRANCH  15  17
ATOM      2  F   UNL     1     -10.391  -8.973  18.194  0.00  0.00    -0.205 F 
ATOM     17  C   UNL     1      -9.875  -9.769  14.176  0.00  0.00    -0.030 A 
ATOM     18  C   UNL     1      -9.519 -10.725  15.128  0.00  0.00    +0.008 A 
ATOM     19  C   UNL     1     -10.404  -8.545  14.582  0.00  0.00    +0.008 A 
ATOM     20  C   UNL     1      -9.693 -10.456  16.486  0.00  0.00    +0.038 A 
ATOM     21  C   UNL     1     -10.579  -8.275  15.939  0.00  0.00    +0.038 A 
ATOM     22  C   UNL     1     -10.224  -9.232  16.891  0.00  0.00    +0.123 A 
ENDBRANCH  15  17
ENDBRANCH   8  15
TORSDOF 3
ENDMDL
MODEL 5
REMARK VINA RESULT:      -0.7      4.031      7.942
REMARK  Name = 75536994
REMARK  4 active torsions:
REMARK  status: ('A' for Active; 'I' for Inactive)
REMARK    1  A    between atoms: S_1  and  N_7
REMARK    2  A    between atoms: S_1  and  C_16
REMARK    3  A    between atoms: N_8  and  C_15
REMARK    4  A    between atoms: C_15  and  C_17
REMARK                            x       y       z     vdW  Elec       q    Type
REMARK                         _______ _______ _______ _____ _____    ______ ____
ROOT
ATOM      3  O   UNL     1      -2.384   2.430  25.523  0.00  0.00    -0.252 OA
ATOM      6  N   UNL     1      -0.650   0.992  24.858  0.00  0.00    -0.278 N 
ATOM      7  N   UNL     1       1.700   0.183  23.577  0.00  0.00    -0.178 NA
ATOM      8  N   UNL     1      -2.761   0.229  24.765  0.00  0.00    -0.279 N 
ATOM      9  C   UNL     1      -0.517  -0.399  24.472  0.00  0.00    +0.111 C 
ATOM     10  C   UNL     1       0.417  -0.533  23.273  0.00  0.00    +0.133 C 
ATOM     11  C   UNL     1      -1.954  -0.844  24.212  0.00  0.00    +0.133 C 
ATOM     12  C   UNL     1       0.539   1.801  25.047  0.00  0.00    +0.127 C 
ATOM     13  C   UNL     1       1.474   1.641  23.853  0.00  0.00    +0.128 C 
ATOM     14  C   UNL     1      -1.982   1.352  25.105  0.00  0.00    +0.305 C 
ENDROOT
BRANCH   7   1
ATOM      1  S   UNL     1       2.999  -0.165  22.514  0.00  0.00    +0.029 S 
ATOM      4  O   UNL     1       2.489  -0.213  21.161  0.00  0.00    -0.158 OA
ATOM      5  O   UNL     1       3.779  -1.245  23.073  0.00  0.00    -0.158 OA
ATOM     16  C   UNL     1       3.926   1.336  22.700  0.00  0.00    +0.215 C 
ENDBRANCH   7   1
BRANCH   8  15
ATOM     15  C   UNL     1      -4.204   0.153  24.818  0.00  0.00    +0.144 C 
BRANCH  15  17
ATOM      2  F   UNL     1      -6.550   5.206  25.628  0.00  0.00    -0.205 F 
ATOM     17  C   UNL     1      -4.829   1.501  25.034  0.00  0.00    -0.030 A 
ATOM     18  C   UNL     1      -4.501   2.565  24.193  0.00  0.00    +0.008 A 
ATOM     19  C   UNL     1      -5.738   1.689  26.075  0.00  0.00    +0.008 A 
ATOM     20  C   UNL     1      -5.083   3.817  24.393  0.00  0.00    +0.038 A 
ATOM     21  C   UNL     1      -6.320   2.941  26.275  0.00  0.00    +0.038 A 
ATOM     22  C   UNL     1      -5.991   4.005  25.435  0.00  0.00    +0.123 A 
ENDBRANCH  15  17
ENDBRANCH   8  15
TORSDOF 3
ENDMDL
MODEL 6
REMARK VINA RESULT:      -0.6      1.510      2.118
REMARK  Name = 75536994
REMARK  4 active torsions:
REMARK  status: ('A' for Active; 'I' for Inactive)
REMARK    1  A    between atoms: S_1  and  N_7
REMARK    2  A    between atoms: S_1  and  C_16
REMARK    3  A    between atoms: N_8  and  C_15
REMARK    4  A    between atoms: C_15  and  C_17
REMARK                            x       y       z     vdW  Elec       q    Type
REMARK                         _______ _______ _______ _____ _____    ______ ____
ROOT
ATOM      3  O   UNL     1       1.465   1.559  24.731  0.00  0.00    -0.252 OA
ATOM      6  N   UNL     1      -0.738   2.282  24.353  0.00  0.00    -0.278 N 
ATOM      7  N   UNL     1      -3.318   3.167  24.967  0.00  0.00    -0.178 NA
ATOM      8  N   UNL     1       0.017   0.513  23.191  0.00  0.00    -0.279 N 
ATOM      9  C   UNL     1      -1.814   1.964  23.435  0.00  0.00    +0.111 C 
ATOM     10  C   UNL     1      -3.146   1.903  24.176  0.00  0.00    +0.133 C 
ATOM     11  C   UNL     1      -1.377   0.644  22.804  0.00  0.00    +0.133 C 
ATOM     12  C   UNL     1      -0.872   3.413  25.250  0.00  0.00    +0.127 C 
ATOM     13  C   UNL     1      -2.216   3.353  25.969  0.00  0.00    +0.128 C 
ATOM     14  C   UNL     1       0.385   1.466  24.161  0.00  0.00    +0.305 C 
ENDROOT
BRANCH   7   1
ATOM      1  S   UNL     1      -4.901   3.444  25.564  0.00  0.00    +0.029 S 
ATOM      4  O   UNL     1      -5.418   4.653  24.960  0.00  0.00    -0.158 OA
ATOM      5  O   UNL     1      -4.897   3.249  26.995  0.00  0.00    -0.158 OA
ATOM     16  C   UNL     1      -5.728   2.061  24.822  0.00  0.00    +0.215 C 
ENDBRANCH   7   1
BRANCH   8  15
ATOM     15  C   UNL     1       0.848  -0.567  22.708  0.00  0.00    +0.144 C 
BRANCH  15  17
ATOM      2  F   UNL     1       6.322   0.463  23.523  0.00  0.00    -0.205 F 
ATOM     17  C   UNL     1       2.308  -0.292  22.925  0.00  0.00    -0.030 A 
ATOM     18  C   UNL     1       2.880   0.876  22.422  0.00  0.00    +0.008 A 
ATOM     19  C   UNL     1       3.092  -1.205  23.630  0.00  0.00    +0.008 A 
ATOM     20  C   UNL     1       4.236   1.132  22.624  0.00  0.00    +0.038 A 
ATOM     21  C   UNL     1       4.448  -0.951  23.832  0.00  0.00    +0.038 A 
ATOM     22  C   UNL     1       5.021   0.218  23.328  0.00  0.00    +0.123 A 
ENDBRANCH  15  17
ENDBRANCH   8  15
TORSDOF 3
ENDMDL
