MODEL 1
REMARK VINA RESULT:      -4.0      0.000      0.000
REMARK  Name = 45783354
REMARK  9 active torsions:
REMARK  status: ('A' for Active; 'I' for Inactive)
REMARK    1  A    between atoms: O_4  and  C_27
REMARK    2  A    between atoms: O_4  and  C_29
REMARK    3  A    between atoms: O_5  and  C_30
REMARK    4  A    between atoms: O_5  and  C_31
REMARK    5  A    between atoms: N_6  and  C_14
REMARK    6  A    between atoms: C_10  and  C_15
REMARK    7  A    between atoms: C_14  and  C_16
REMARK    8  A    between atoms: C_19  and  C_23
REMARK    9  A    between atoms: C_29  and  C_30
REMARK                            x       y       z     vdW  Elec       q    Type
REMARK                         _______ _______ _______ _____ _____    ______ ____
ROOT
ATOM      1  O   UNL     1      -2.096   2.919  25.300  0.00  0.00    -0.336 OA
ATOM      7  N   UNL     1      -2.154   1.655  23.452  0.00  0.00    -0.190 NA
ATOM      8  N   UNL     1      -0.782   2.489  25.081  0.00  0.00    -0.056 NA
ATOM     15  C   UNL     1      -2.839   2.384  24.296  0.00  0.00    +0.245 A 
ATOM     19  C   UNL     1      -0.897   1.749  23.974  0.00  0.00    +0.202 A 
ENDROOT
BRANCH  19  23
ATOM      9  N   UNL     1       2.406  -0.196  22.186  0.00  0.00    -0.221 NA
ATOM     23  C   UNL     1       0.224   1.090  23.367  0.00  0.00    +0.029 A 
ATOM     25  C   UNL     1       1.511   1.576  23.566  0.00  0.00    +0.079 A 
ATOM     26  C   UNL     1       0.026  -0.039  22.579  0.00  0.00    +0.031 A 
ATOM     27  C   UNL     1       2.559   0.904  22.958  0.00  0.00    +0.215 A 
ATOM     28  C   UNL     1       1.140  -0.640  22.017  0.00  0.00    +0.115 A 
BRANCH  27   4
ATOM      4  O   UNL     1       3.837   1.363  23.138  0.00  0.00    -0.474 OA
BRANCH   4  29
ATOM     29  C   UNL     1       4.891   0.481  22.773  0.00  0.00    +0.258 C 
BRANCH  29  30
ATOM     30  C   UNL     1       5.857   0.354  23.937  0.00  0.00    +0.200 C 
BRANCH  30   5
ATOM      5  O   UNL     1       5.493  -0.775  24.721  0.00  0.00    -0.380 OA
ATOM     31  C   UNL     1       4.832  -1.760  23.938  0.00  0.00    +0.194 C 
ENDBRANCH  30   5
ENDBRANCH  29  30
ENDBRANCH   4  29
ENDBRANCH  27   4
ENDBRANCH  19  23
BRANCH  15  10
ATOM      6  N   UNL     1      -5.048   1.990  25.372  0.00  0.00    -0.287 NA
ATOM     10  C   UNL     1      -4.319   2.705  24.306  0.00  0.00    +0.146 C 
ATOM     11  C   UNL     1      -4.603   4.195  24.569  0.00  0.00    +0.030 C 
ATOM     12  C   UNL     1      -5.546   4.217  25.763  0.00  0.00    +0.017 C 
ATOM     13  C   UNL     1      -6.181   2.841  25.740  0.00  0.00    +0.085 C 
BRANCH   6  14
ATOM     14  C   UNL     1      -5.471   0.652  24.983  0.00  0.00    +0.120 C 
BRANCH  14  16
ATOM      2  O   UNL     1      -0.996  -1.004  26.298  0.00  0.00    -0.453 OA
ATOM      3  O   UNL     1      -1.069  -2.814  24.707  0.00  0.00    -0.453 OA
ATOM     16  C   UNL     1      -4.306  -0.297  24.880  0.00  0.00    -0.030 A 
ATOM     17  C   UNL     1      -3.195  -0.122  25.709  0.00  0.00    +0.054 A 
ATOM     18  C   UNL     1      -4.347  -1.353  23.952  0.00  0.00    +0.009 A 
ATOM     20  C   UNL     1      -2.153  -1.018  25.581  0.00  0.00    +0.167 A 
ATOM     21  C   UNL     1      -3.279  -2.246  23.843  0.00  0.00    +0.050 A 
ATOM     22  C   UNL     1      -2.194  -2.050  24.673  0.00  0.00    +0.166 A 
ATOM     24  C   UNL     1      -0.314  -2.146  25.740  0.00  0.00    +0.466 C 
ENDBRANCH  14  16
ENDBRANCH   6  14
ENDBRANCH  15  10
TORSDOF 8
ENDMDL
MODEL 2
REMARK VINA RESULT:      -0.1      1.567      2.145
REMARK  Name = 45783354
REMARK  9 active torsions:
REMARK  status: ('A' for Active; 'I' for Inactive)
REMARK    1  A    between atoms: O_4  and  C_27
REMARK    2  A    between atoms: O_4  and  C_29
REMARK    3  A    between atoms: O_5  and  C_30
REMARK    4  A    between atoms: O_5  and  C_31
REMARK    5  A    between atoms: N_6  and  C_14
REMARK    6  A    between atoms: C_10  and  C_15
REMARK    7  A    between atoms: C_14  and  C_16
REMARK    8  A    between atoms: C_19  and  C_23
REMARK    9  A    between atoms: C_29  and  C_30
REMARK                            x       y       z     vdW  Elec       q    Type
REMARK                         _______ _______ _______ _____ _____    ______ ____
ROOT
ATOM      1  O   UNL     1      -0.757   3.167  25.823  0.00  0.00    -0.336 OA
ATOM      7  N   UNL     1      -1.016   2.368  23.746  0.00  0.00    -0.190 NA
ATOM      8  N   UNL     1       0.402   2.435  25.540  0.00  0.00    -0.056 NA
ATOM     15  C   UNL     1      -1.539   3.077  24.714  0.00  0.00    +0.245 A 
ATOM     19  C   UNL     1       0.175   1.995  24.298  0.00  0.00    +0.202 A 
ENDROOT
BRANCH  19  23
ATOM      9  N   UNL     1       2.947  -0.408  22.193  0.00  0.00    -0.221 NA
ATOM     23  C   UNL     1       1.115   1.180  23.583  0.00  0.00    +0.029 A 
ATOM     25  C   UNL     1       2.479   1.429  23.694  0.00  0.00    +0.079 A 
ATOM     26  C   UNL     1       0.666   0.138  22.779  0.00  0.00    +0.031 A 
ATOM     27  C   UNL     1       3.346   0.614  22.984  0.00  0.00    +0.215 A 
ATOM     28  C   UNL     1       1.613  -0.620  22.112  0.00  0.00    +0.115 A 
BRANCH  27   4
ATOM      4  O   UNL     1       4.694   0.838  23.075  0.00  0.00    -0.474 OA
BRANCH   4  29
ATOM     29  C   UNL     1       5.546  -0.275  22.832  0.00  0.00    +0.258 C 
BRANCH  29  30
ATOM     30  C   UNL     1       6.880  -0.035  23.513  0.00  0.00    +0.200 C 
BRANCH  30   5
ATOM      5  O   UNL     1       7.920  -0.541  22.686  0.00  0.00    -0.380 OA
ATOM     31  C   UNL     1       9.187  -0.023  23.068  0.00  0.00    +0.194 C 
ENDBRANCH  30   5
ENDBRANCH  29  30
ENDBRANCH   4  29
ENDBRANCH  27   4
ENDBRANCH  19  23
BRANCH  15  10
ATOM      6  N   UNL     1      -3.922   2.995  25.425  0.00  0.00    -0.287 NA
ATOM     10  C   UNL     1      -2.870   3.796  24.767  0.00  0.00    +0.146 C 
ATOM     11  C   UNL     1      -2.809   5.103  25.578  0.00  0.00    +0.030 C 
ATOM     12  C   UNL     1      -3.901   4.971  26.630  0.00  0.00    +0.017 C 
ATOM     13  C   UNL     1      -4.849   3.950  26.033  0.00  0.00    +0.085 C 
BRANCH   6  14
ATOM     14  C   UNL     1      -4.598   2.077  24.518  0.00  0.00    +0.120 C 
BRANCH  14  16
ATOM      2  O   UNL     1      -4.502  -2.730  23.342  0.00  0.00    -0.453 OA
ATOM      3  O   UNL     1      -2.884  -3.237  25.055  0.00  0.00    -0.453 OA
ATOM     16  C   UNL     1      -4.117   0.661  24.692  0.00  0.00    -0.030 A 
ATOM     17  C   UNL     1      -4.610  -0.345  23.857  0.00  0.00    +0.054 A 
ATOM     18  C   UNL     1      -3.173   0.364  25.691  0.00  0.00    +0.009 A 
ATOM     20  C   UNL     1      -4.138  -1.628  24.052  0.00  0.00    +0.167 A 
ATOM     21  C   UNL     1      -2.712  -0.942  25.868  0.00  0.00    +0.050 A 
ATOM     22  C   UNL     1      -3.214  -1.917  25.030  0.00  0.00    +0.166 A 
ATOM     24  C   UNL     1      -3.703  -3.746  23.981  0.00  0.00    +0.466 C 
ENDBRANCH  14  16
ENDBRANCH   6  14
ENDBRANCH  15  10
TORSDOF 8
ENDMDL
