MODEL 1
REMARK VINA RESULT:      -2.9      0.000      0.000
REMARK  Name = 7135373
REMARK  10 active torsions:
REMARK  status: ('A' for Active; 'I' for Inactive)
REMARK    1  A    between atoms: O_2  and  C_20
REMARK    2  A    between atoms: O_3  and  C_21
REMARK    3  A    between atoms: O_3  and  C_25
REMARK    4  A    between atoms: C_5  and  C_6
REMARK    5  A    between atoms: C_6  and  C_12
REMARK    6  A    between atoms: C_6  and  C_13
REMARK    7  A    between atoms: C_16  and  C_23
REMARK    8  A    between atoms: C_19  and  C_24
REMARK    9  A    between atoms: C_25  and  C_26
REMARK   10  A    between atoms: C_26  and  C_27
REMARK                            x       y       z     vdW  Elec       q    Type
REMARK                         _______ _______ _______ _____ _____    ______ ____
ROOT
ATOM      5  C   UNL     1      -1.268   3.453  24.857  0.00  0.00    +0.005 C 
ATOM      7  C   UNL     1      -0.476   3.468  23.547  0.00  0.00    +0.009 C 
ATOM      8  C   UNL     1      -2.038   2.131  24.984  0.00  0.00    +0.040 C 
ATOM      9  C   UNL     1       0.564   2.348  23.537  0.00  0.00    +0.036 C 
ATOM     10  C   UNL     1      -1.195   0.915  24.684  0.00  0.00    -0.037 A 
ATOM     11  C   UNL     1       0.010   1.013  23.967  0.00  0.00    -0.041 A 
ATOM     16  C   UNL     1      -1.659  -0.349  25.081  0.00  0.00    -0.005 A 
ATOM     19  C   UNL     1       0.746  -0.149  23.694  0.00  0.00    -0.044 A 
ATOM     21  C   UNL     1      -0.923  -1.498  24.795  0.00  0.00    +0.124 A 
ATOM     22  C   UNL     1       0.280  -1.398  24.104  0.00  0.00    +0.049 A 
ATOM     23  C   UNL     1      -2.958  -0.495  25.813  0.00  0.00    +0.048 C 
ATOM     24  C   UNL     1       2.053  -0.096  22.968  0.00  0.00    +0.044 C 
ENDROOT
BRANCH   5   6
ATOM      6  C   UNL     1      -2.224   4.642  24.931  0.00  0.00    +0.075 C 
ATOM     13  C   UNL     1      -1.494   5.916  25.329  0.00  0.00    +0.017 C 
BRANCH   6  12
ATOM      1  O   UNL     1      -3.154   4.713  27.109  0.00  0.00    -0.275 OA
ATOM      4  N   UNL     1      -4.437   3.685  25.467  0.00  0.00    -0.301 N 
ATOM     12  C   UNL     1      -3.308   4.354  25.938  0.00  0.00    +0.219 C 
ATOM     14  C   UNL     1      -4.665   3.280  24.075  0.00  0.00    +0.110 C 
ATOM     15  C   UNL     1      -5.532   3.366  26.386  0.00  0.00    +0.110 C 
ATOM     17  C   UNL     1      -4.971   1.783  23.990  0.00  0.00    +0.050 C 
ATOM     18  C   UNL     1      -5.857   1.873  26.350  0.00  0.00    +0.050 C 
ATOM     20  C   UNL     1      -6.117   1.384  24.924  0.00  0.00    +0.118 C 
BRANCH  20   2
ATOM      2  O   UNL     1      -7.340   1.950  24.460  0.00  0.00    -0.392 OA
ATOM     28  H   UNL     1      -7.368   2.873  24.762  0.00  0.00    +0.210 HD
ENDBRANCH  20   2
ENDBRANCH   6  12
ENDBRANCH   5   6
BRANCH  21   3
ATOM      3  O   UNL     1      -1.366  -2.728  25.182  0.00  0.00    -0.492 OA
BRANCH   3  25
ATOM     25  C   UNL     1      -2.195  -3.436  24.263  0.00  0.00    +0.229 C 
BRANCH  25  26
ATOM     26  C   UNL     1      -3.651  -3.201  24.632  0.00  0.00    +0.038 C 
ATOM     27  C   UNL     1      -4.368  -2.357  23.594  0.00  0.00    +0.007 C 
ENDBRANCH  25  26
ENDBRANCH   3  25
ENDBRANCH  21   3
TORSDOF 6
ENDMDL
MODEL 2
REMARK VINA RESULT:      -1.9     14.493     17.357
REMARK  Name = 7135373
REMARK  10 active torsions:
REMARK  status: ('A' for Active; 'I' for Inactive)
REMARK    1  A    between atoms: O_2  and  C_20
REMARK    2  A    between atoms: O_3  and  C_21
REMARK    3  A    between atoms: O_3  and  C_25
REMARK    4  A    between atoms: C_5  and  C_6
REMARK    5  A    between atoms: C_6  and  C_12
REMARK    6  A    between atoms: C_6  and  C_13
REMARK    7  A    between atoms: C_16  and  C_23
REMARK    8  A    between atoms: C_19  and  C_24
REMARK    9  A    between atoms: C_25  and  C_26
REMARK   10  A    between atoms: C_26  and  C_27
REMARK                            x       y       z     vdW  Elec       q    Type
REMARK                         _______ _______ _______ _____ _____    ______ ____
ROOT
ATOM      5  C   UNL     1      -4.571  -9.926  14.905  0.00  0.00    +0.005 C 
ATOM      7  C   UNL     1      -5.035 -10.010  16.363  0.00  0.00    +0.009 C 
ATOM      8  C   UNL     1      -5.660 -10.489  13.980  0.00  0.00    +0.040 C 
ATOM      9  C   UNL     1      -6.283  -9.155  16.578  0.00  0.00    +0.036 C 
ATOM     10  C   UNL     1      -7.040  -9.960  14.288  0.00  0.00    -0.037 A 
ATOM     11  C   UNL     1      -7.343  -9.368  15.527  0.00  0.00    -0.041 A 
ATOM     16  C   UNL     1      -8.057 -10.118  13.334  0.00  0.00    -0.005 A 
ATOM     19  C   UNL     1      -8.646  -8.913  15.773  0.00  0.00    -0.044 A 
ATOM     21  C   UNL     1      -9.352  -9.669  13.595  0.00  0.00    +0.124 A 
ATOM     22  C   UNL     1      -9.645  -9.065  14.813  0.00  0.00    +0.049 A 
ATOM     23  C   UNL     1      -7.780 -10.778  12.018  0.00  0.00    +0.048 C 
ATOM     24  C   UNL     1      -9.012  -8.243  17.060  0.00  0.00    +0.044 C 
ENDROOT
BRANCH   5   6
ATOM      6  C   UNL     1      -3.255 -10.676  14.706  0.00  0.00    +0.075 C 
ATOM     13  C   UNL     1      -2.468 -10.767  16.004  0.00  0.00    +0.017 C 
BRANCH   6  12
ATOM      1  O   UNL     1      -1.402  -9.369  14.020  0.00  0.00    -0.275 OA
ATOM      4  N   UNL     1      -2.877 -10.032  12.352  0.00  0.00    -0.301 N 
ATOM     12  C   UNL     1      -2.424  -9.966  13.668  0.00  0.00    +0.219 C 
ATOM     14  C   UNL     1      -4.066 -10.764  11.899  0.00  0.00    +0.110 C 
ATOM     15  C   UNL     1      -2.125  -9.364  11.287  0.00  0.00    +0.110 C 
ATOM     17  C   UNL     1      -5.008  -9.840  11.124  0.00  0.00    +0.050 C 
ATOM     18  C   UNL     1      -3.024  -8.412  10.498  0.00  0.00    +0.050 C 
ATOM     20  C   UNL     1      -4.283  -9.115   9.986  0.00  0.00    +0.118 C 
BRANCH  20   2
ATOM      2  O   UNL     1      -3.909 -10.050   8.976  0.00  0.00    -0.392 OA
ATOM     28  H   UNL     1      -4.034  -9.615   8.115  0.00  0.00    +0.210 HD
ENDBRANCH  20   2
ENDBRANCH   6  12
ENDBRANCH   5   6
BRANCH  21   3
ATOM      3  O   UNL     1     -10.343  -9.816  12.670  0.00  0.00    -0.492 OA
BRANCH   3  25
ATOM     25  C   UNL     1     -10.610  -8.699  11.825  0.00  0.00    +0.229 C 
BRANCH  25  26
ATOM     26  C   UNL     1     -10.456  -9.131  10.375  0.00  0.00    +0.038 C 
ATOM     27  C   UNL     1      -9.456  -8.264   9.631  0.00  0.00    +0.007 C 
ENDBRANCH  25  26
ENDBRANCH   3  25
ENDBRANCH  21   3
TORSDOF 6
ENDMDL
MODEL 3
REMARK VINA RESULT:      -1.3      1.687      3.796
REMARK  Name = 7135373
REMARK  10 active torsions:
REMARK  status: ('A' for Active; 'I' for Inactive)
REMARK    1  A    between atoms: O_2  and  C_20
REMARK    2  A    between atoms: O_3  and  C_21
REMARK    3  A    between atoms: O_3  and  C_25
REMARK    4  A    between atoms: C_5  and  C_6
REMARK    5  A    between atoms: C_6  and  C_12
REMARK    6  A    between atoms: C_6  and  C_13
REMARK    7  A    between atoms: C_16  and  C_23
REMARK    8  A    between atoms: C_19  and  C_24
REMARK    9  A    between atoms: C_25  and  C_26
REMARK   10  A    between atoms: C_26  and  C_27
REMARK                            x       y       z     vdW  Elec       q    Type
REMARK                         _______ _______ _______ _____ _____    ______ ____
ROOT
ATOM      5  C   UNL     1      -1.705   2.695  24.252  0.00  0.00    +0.005 C 
ATOM      7  C   UNL     1      -2.164   1.780  25.391  0.00  0.00    +0.009 C 
ATOM      8  C   UNL     1      -0.189   2.554  24.051  0.00  0.00    +0.040 C 
ATOM      9  C   UNL     1      -1.899   0.316  25.043  0.00  0.00    +0.036 C 
ATOM     10  C   UNL     1       0.279   1.119  24.003  0.00  0.00    -0.037 A 
ATOM     11  C   UNL     1      -0.510   0.071  24.508  0.00  0.00    -0.041 A 
ATOM     16  C   UNL     1       1.557   0.838  23.497  0.00  0.00    -0.005 A 
ATOM     19  C   UNL     1      -0.021  -1.243  24.461  0.00  0.00    -0.044 A 
ATOM     21  C   UNL     1       2.035  -0.472  23.465  0.00  0.00    +0.124 A 
ATOM     22  C   UNL     1       1.245  -1.512  23.945  0.00  0.00    +0.049 A 
ATOM     23  C   UNL     1       2.440   1.935  22.987  0.00  0.00    +0.048 C 
ATOM     24  C   UNL     1      -0.836  -2.399  24.950  0.00  0.00    +0.044 C 
ENDROOT
BRANCH   5   6
ATOM      6  C   UNL     1      -2.077   4.149  24.535  0.00  0.00    +0.075 C 
ATOM     13  C   UNL     1      -0.890   4.929  25.077  0.00  0.00    +0.017 C 
BRANCH   6  12
ATOM      1  O   UNL     1      -3.032   4.784  26.609  0.00  0.00    -0.275 OA
ATOM      4  N   UNL     1      -4.386   3.550  25.179  0.00  0.00    -0.301 N 
ATOM     12  C   UNL     1      -3.202   4.194  25.538  0.00  0.00    +0.219 C 
ATOM     14  C   UNL     1      -4.630   2.873  23.900  0.00  0.00    +0.110 C 
ATOM     15  C   UNL     1      -5.523   3.547  26.102  0.00  0.00    +0.110 C 
ATOM     17  C   UNL     1      -5.086   1.431  24.128  0.00  0.00    +0.050 C 
ATOM     18  C   UNL     1      -5.998   2.120  26.377  0.00  0.00    +0.050 C 
ATOM     20  C   UNL     1      -6.282   1.358  25.081  0.00  0.00    +0.118 C 
BRANCH  20   2
ATOM      2  O   UNL     1      -7.434   1.923  24.458  0.00  0.00    -0.392 OA
ATOM     28  H   UNL     1      -7.760   2.633  25.038  0.00  0.00    +0.210 HD
ENDBRANCH  20   2
ENDBRANCH   6  12
ENDBRANCH   5   6
BRANCH  21   3
ATOM      3  O   UNL     1       3.274  -0.753  22.970  0.00  0.00    -0.492 OA
BRANCH   3  25
ATOM     25  C   UNL     1       4.121  -1.573  23.772  0.00  0.00    +0.229 C 
BRANCH  25  26
ATOM     26  C   UNL     1       5.341  -0.764  24.184  0.00  0.00    +0.038 C 
ATOM     27  C   UNL     1       5.408   0.567  23.457  0.00  0.00    +0.007 C 
ENDBRANCH  25  26
ENDBRANCH   3  25
ENDBRANCH  21   3
TORSDOF 6
ENDMDL
MODEL 4
REMARK VINA RESULT:       0.2      1.798      5.685
REMARK  Name = 7135373
REMARK  10 active torsions:
REMARK  status: ('A' for Active; 'I' for Inactive)
REMARK    1  A    between atoms: O_2  and  C_20
REMARK    2  A    between atoms: O_3  and  C_21
REMARK    3  A    between atoms: O_3  and  C_25
REMARK    4  A    between atoms: C_5  and  C_6
REMARK    5  A    between atoms: C_6  and  C_12
REMARK    6  A    between atoms: C_6  and  C_13
REMARK    7  A    between atoms: C_16  and  C_23
REMARK    8  A    between atoms: C_19  and  C_24
REMARK    9  A    between atoms: C_25  and  C_26
REMARK   10  A    between atoms: C_26  and  C_27
REMARK                            x       y       z     vdW  Elec       q    Type
REMARK                         _______ _______ _______ _____ _____    ______ ____
ROOT
ATOM      5  C   UNL     1       0.065   1.374  23.831  0.00  0.00    +0.005 C 
ATOM      7  C   UNL     1       0.554   2.338  24.916  0.00  0.00    +0.009 C 
ATOM      8  C   UNL     1      -1.417   1.043  24.060  0.00  0.00    +0.040 C 
ATOM      9  C   UNL     1      -0.211   3.660  24.843  0.00  0.00    +0.036 C 
ATOM     10  C   UNL     1      -2.270   2.260  24.324  0.00  0.00    -0.037 A 
ATOM     11  C   UNL     1      -1.704   3.481  24.732  0.00  0.00    -0.041 A 
ATOM     16  C   UNL     1      -3.664   2.149  24.216  0.00  0.00    -0.005 A 
ATOM     19  C   UNL     1      -2.541   4.577  24.987  0.00  0.00    -0.044 A 
ATOM     21  C   UNL     1      -4.486   3.245  24.482  0.00  0.00    +0.124 A 
ATOM     22  C   UNL     1      -3.925   4.458  24.865  0.00  0.00    +0.049 A 
ATOM     23  C   UNL     1      -4.304   0.854  23.821  0.00  0.00    +0.048 C 
ATOM     24  C   UNL     1      -1.988   5.908  25.387  0.00  0.00    +0.044 C 
ENDROOT
BRANCH   5   6
ATOM      6  C   UNL     1       0.906   0.099  23.815  0.00  0.00    +0.075 C 
ATOM     13  C   UNL     1       2.135   0.257  22.935  0.00  0.00    +0.017 C 
BRANCH   6  12
ATOM      1  O   UNL     1       0.178  -1.391  22.121  0.00  0.00    -0.275 OA
ATOM      4  N   UNL     1      -0.788  -1.654  24.218  0.00  0.00    -0.301 N 
ATOM     12  C   UNL     1       0.070  -1.047  23.302  0.00  0.00    +0.219 C 
ATOM     14  C   UNL     1      -0.910  -1.293  25.635  0.00  0.00    +0.110 C 
ATOM     15  C   UNL     1      -1.634  -2.772  23.794  0.00  0.00    +0.110 C 
ATOM     17  C   UNL     1      -2.365  -0.983  25.991  0.00  0.00    +0.050 C 
ATOM     18  C   UNL     1      -3.103  -2.495  24.111  0.00  0.00    +0.050 C 
ATOM     20  C   UNL     1      -3.305  -2.120  25.581  0.00  0.00    +0.118 C 
BRANCH  20   2
ATOM      2  O   UNL     1      -3.056  -3.270  26.387  0.00  0.00    -0.392 OA
ATOM     28  H   UNL     1      -2.365  -3.032  27.029  0.00  0.00    +0.210 HD
ENDBRANCH  20   2
ENDBRANCH   6  12
ENDBRANCH   5   6
BRANCH  21   3
ATOM      3  O   UNL     1      -5.842   3.145  24.374  0.00  0.00    -0.492 OA
BRANCH   3  25
ATOM     25  C   UNL     1      -6.475   2.101  25.111  0.00  0.00    +0.229 C 
BRANCH  25  26
ATOM     26  C   UNL     1      -6.127   2.258  26.583  0.00  0.00    +0.038 C 
ATOM     27  C   UNL     1      -6.856   1.245  27.447  0.00  0.00    +0.007 C 
ENDBRANCH  25  26
ENDBRANCH   3  25
ENDBRANCH  21   3
TORSDOF 6
ENDMDL
MODEL 5
REMARK VINA RESULT:       0.4      1.658      4.847
REMARK  Name = 7135373
REMARK  10 active torsions:
REMARK  status: ('A' for Active; 'I' for Inactive)
REMARK    1  A    between atoms: O_2  and  C_20
REMARK    2  A    between atoms: O_3  and  C_21
REMARK    3  A    between atoms: O_3  and  C_25
REMARK    4  A    between atoms: C_5  and  C_6
REMARK    5  A    between atoms: C_6  and  C_12
REMARK    6  A    between atoms: C_6  and  C_13
REMARK    7  A    between atoms: C_16  and  C_23
REMARK    8  A    between atoms: C_19  and  C_24
REMARK    9  A    between atoms: C_25  and  C_26
REMARK   10  A    between atoms: C_26  and  C_27
REMARK                            x       y       z     vdW  Elec       q    Type
REMARK                         _______ _______ _______ _____ _____    ______ ____
ROOT
ATOM      5  C   UNL     1      -4.074   0.584  25.106  0.00  0.00    +0.005 C 
ATOM      7  C   UNL     1      -3.780  -0.445  26.202  0.00  0.00    +0.009 C 
ATOM      8  C   UNL     1      -2.766   1.257  24.662  0.00  0.00    +0.040 C 
ATOM      9  C   UNL     1      -2.872  -1.553  25.668  0.00  0.00    +0.036 C 
ATOM     10  C   UNL     1      -1.648   0.278  24.396  0.00  0.00    -0.037 A 
ATOM     11  C   UNL     1      -1.681  -1.033  24.904  0.00  0.00    -0.041 A 
ATOM     16  C   UNL     1      -0.525   0.709  23.674  0.00  0.00    -0.005 A 
ATOM     19  C   UNL     1      -0.607  -1.897  24.648  0.00  0.00    -0.044 A 
ATOM     21  C   UNL     1       0.541  -0.158  23.434  0.00  0.00    +0.124 A 
ATOM     22  C   UNL     1       0.499  -1.461  23.919  0.00  0.00    +0.049 A 
ATOM     23  C   UNL     1      -0.440   2.110  23.150  0.00  0.00    +0.048 C 
ATOM     24  C   UNL     1      -0.608  -3.312  25.133  0.00  0.00    +0.044 C 
ENDROOT
BRANCH   5   6
ATOM      6  C   UNL     1      -5.079   1.627  25.592  0.00  0.00    +0.075 C 
ATOM     13  C   UNL     1      -6.495   1.074  25.591  0.00  0.00    +0.017 C 
BRANCH   6  12
ATOM      1  O   UNL     1      -5.775   2.911  23.726  0.00  0.00    -0.275 OA
ATOM      4  N   UNL     1      -4.084   3.819  25.035  0.00  0.00    -0.301 N 
ATOM     12  C   UNL     1      -5.017   2.839  24.697  0.00  0.00    +0.219 C 
ATOM     14  C   UNL     1      -3.196   3.779  26.203  0.00  0.00    +0.110 C 
ATOM     15  C   UNL     1      -3.962   5.024  24.213  0.00  0.00    +0.110 C 
ATOM     17  C   UNL     1      -1.736   3.950  25.780  0.00  0.00    +0.050 C 
ATOM     18  C   UNL     1      -2.519   5.223  23.747  0.00  0.00    +0.050 C 
ATOM     20  C   UNL     1      -1.537   5.203  24.921  0.00  0.00    +0.118 C 
BRANCH  20   2
ATOM      2  O   UNL     1      -1.742   6.371  25.712  0.00  0.00    -0.392 OA
ATOM     28  H   UNL     1      -0.871   6.778  25.862  0.00  0.00    +0.210 HD
ENDBRANCH  20   2
ENDBRANCH   6  12
ENDBRANCH   5   6
BRANCH  21   3
ATOM      3  O   UNL     1       1.632   0.254  22.729  0.00  0.00    -0.492 OA
BRANCH   3  25
ATOM     25  C   UNL     1       2.886  -0.327  23.079  0.00  0.00    +0.229 C 
BRANCH  25  26
ATOM     26  C   UNL     1       3.986   0.695  22.839  0.00  0.00    +0.038 C 
ATOM     27  C   UNL     1       5.279   0.307  23.533  0.00  0.00    +0.007 C 
ENDBRANCH  25  26
ENDBRANCH   3  25
ENDBRANCH  21   3
TORSDOF 6
ENDMDL
