MODEL 1
REMARK VINA RESULT:      -3.3      0.000      0.000
REMARK  Name = 45784235
REMARK  3 active torsions:
REMARK  status: ('A' for Active; 'I' for Inactive)
REMARK    1  A    between atoms: N_4  and  C_12
REMARK    2  A    between atoms: C_7  and  C_11
REMARK    3  A    between atoms: C_12  and  C_13
REMARK                            x       y       z     vdW  Elec       q    Type
REMARK                         _______ _______ _______ _____ _____    ______ ____
ROOT
ATOM      4  N   UNL     1      -3.228  -0.612  24.533  0.00  0.00    -0.297 NA
ATOM      7  C   UNL     1      -1.058  -1.298  23.968  0.00  0.00    +0.070 C 
ATOM      8  C   UNL     1      -1.341  -1.647  25.439  0.00  0.00    +0.028 C 
ATOM      9  C   UNL     1      -2.156  -0.295  23.589  0.00  0.00    +0.096 C 
ATOM     10  C   UNL     1      -2.555  -0.808  25.818  0.00  0.00    +0.085 C 
ENDROOT
BRANCH   7  11
ATOM      1  F   UNL     1       6.100  -0.287  23.256  0.00  0.00    -0.205 F 
ATOM      5  N   UNL     1       1.441  -1.536  23.966  0.00  0.00    -0.341 N 
ATOM      6  N   UNL     1       0.653   0.392  23.191  0.00  0.00    -0.232 NA
ATOM     11  C   UNL     1       0.335  -0.780  23.694  0.00  0.00    +0.113 A 
ATOM     14  C   UNL     1       2.546  -0.804  23.615  0.00  0.00    +0.069 A 
ATOM     15  C   UNL     1       2.028   0.395  23.134  0.00  0.00    +0.089 A 
ATOM     19  C   UNL     1       3.913  -1.079  23.675  0.00  0.00    +0.066 A 
ATOM     20  C   UNL     1       2.910   1.390  22.682  0.00  0.00    +0.032 A 
ATOM     23  C   UNL     1       4.777  -0.078  23.221  0.00  0.00    +0.125 A 
ATOM     24  C   UNL     1       4.287   1.136  22.733  0.00  0.00    +0.040 A 
ATOM     26  H   UNL     1       1.446  -2.469  24.357  0.00  0.00    +0.167 HD
ENDBRANCH   7  11
BRANCH   4  12
ATOM     12  C   UNL     1      -4.242   0.430  24.593  0.00  0.00    +0.119 C 
BRANCH  12  13
ATOM      2  O   UNL     1      -0.566   3.734  24.323  0.00  0.00    -0.453 OA
ATOM      3  O   UNL     1      -1.874   5.453  25.393  0.00  0.00    -0.453 OA
ATOM     13  C   UNL     1      -3.638   1.789  24.824  0.00  0.00    -0.030 A 
ATOM     16  C   UNL     1      -2.326   2.043  24.416  0.00  0.00    +0.054 A 
ATOM     17  C   UNL     1      -4.401   2.793  25.448  0.00  0.00    +0.009 A 
ATOM     18  C   UNL     1      -1.816   3.305  24.649  0.00  0.00    +0.167 A 
ATOM     21  C   UNL     1      -3.861   4.062  25.671  0.00  0.00    +0.050 A 
ATOM     22  C   UNL     1      -2.563   4.286  25.259  0.00  0.00    +0.166 A 
ATOM     25  C   UNL     1      -0.610   5.095  24.798  0.00  0.00    +0.466 C 
ENDBRANCH  12  13
ENDBRANCH   4  12
TORSDOF 3
ENDMDL
MODEL 2
REMARK VINA RESULT:      -2.3      1.604      2.187
REMARK  Name = 45784235
REMARK  3 active torsions:
REMARK  status: ('A' for Active; 'I' for Inactive)
REMARK    1  A    between atoms: N_4  and  C_12
REMARK    2  A    between atoms: C_7  and  C_11
REMARK    3  A    between atoms: C_12  and  C_13
REMARK                            x       y       z     vdW  Elec       q    Type
REMARK                         _______ _______ _______ _____ _____    ______ ____
ROOT
ATOM      4  N   UNL     1      -2.865  -1.670  24.650  0.00  0.00    -0.297 NA
ATOM      7  C   UNL     1      -0.530  -1.878  24.656  0.00  0.00    +0.070 C 
ATOM      8  C   UNL     1      -1.007  -1.393  26.035  0.00  0.00    +0.028 C 
ATOM      9  C   UNL     1      -1.730  -1.647  23.727  0.00  0.00    +0.096 C 
ATOM     10  C   UNL     1      -2.427  -0.891  25.808  0.00  0.00    +0.085 C 
ENDROOT
BRANCH   7  11
ATOM      1  F   UNL     1       6.292  -0.064  22.941  0.00  0.00    -0.205 F 
ATOM      5  N   UNL     1       1.962  -1.797  24.363  0.00  0.00    -0.341 N 
ATOM      6  N   UNL     1       0.831  -0.091  23.496  0.00  0.00    -0.232 NA
ATOM     11  C   UNL     1       0.738  -1.225  24.156  0.00  0.00    +0.113 A 
ATOM     14  C   UNL     1       2.907  -0.979  23.800  0.00  0.00    +0.069 A 
ATOM     15  C   UNL     1       2.176   0.079  23.266  0.00  0.00    +0.089 A 
ATOM     19  C   UNL     1       4.297  -1.070  23.715  0.00  0.00    +0.066 A 
ATOM     20  C   UNL     1       2.855   1.116  22.604  0.00  0.00    +0.032 A 
ATOM     23  C   UNL     1       4.957  -0.030  23.052  0.00  0.00    +0.125 A 
ATOM     24  C   UNL     1       4.251   1.045  22.507  0.00  0.00    +0.040 A 
ATOM     26  H   UNL     1       2.141  -2.668  24.845  0.00  0.00    +0.167 HD
ENDBRANCH   7  11
BRANCH   4  12
ATOM     12  C   UNL     1      -4.079  -1.135  24.051  0.00  0.00    +0.119 C 
BRANCH  12  13
ATOM      2  O   UNL     1      -5.903   3.028  26.011  0.00  0.00    -0.453 OA
ATOM      3  O   UNL     1      -4.478   4.427  24.662  0.00  0.00    -0.453 OA
ATOM     13  C   UNL     1      -4.160   0.362  24.188  0.00  0.00    -0.030 A 
ATOM     16  C   UNL     1      -5.059   0.927  25.096  0.00  0.00    +0.054 A 
ATOM     17  C   UNL     1      -3.329   1.179  23.401  0.00  0.00    +0.009 A 
ATOM     18  C   UNL     1      -5.096   2.304  25.188  0.00  0.00    +0.167 A 
ATOM     21  C   UNL     1      -3.386   2.570  23.514  0.00  0.00    +0.050 A 
ATOM     22  C   UNL     1      -4.283   3.103  24.417  0.00  0.00    +0.166 A 
ATOM     25  C   UNL     1      -5.506   4.372  25.672  0.00  0.00    +0.466 C 
ENDBRANCH  12  13
ENDBRANCH   4  12
TORSDOF 3
ENDMDL
MODEL 3
REMARK VINA RESULT:      -2.2      3.994      7.792
REMARK  Name = 45784235
REMARK  3 active torsions:
REMARK  status: ('A' for Active; 'I' for Inactive)
REMARK    1  A    between atoms: N_4  and  C_12
REMARK    2  A    between atoms: C_7  and  C_11
REMARK    3  A    between atoms: C_12  and  C_13
REMARK                            x       y       z     vdW  Elec       q    Type
REMARK                         _______ _______ _______ _____ _____    ______ ____
ROOT
ATOM      4  N   UNL     1       0.203  -0.740  23.749  0.00  0.00    -0.297 NA
ATOM      7  C   UNL     1      -1.485  -0.007  25.202  0.00  0.00    +0.070 C 
ATOM      8  C   UNL     1      -1.712  -1.489  24.855  0.00  0.00    +0.028 C 
ATOM      9  C   UNL     1      -0.483   0.488  24.151  0.00  0.00    +0.096 C 
ATOM     10  C   UNL     1      -0.857  -1.740  23.620  0.00  0.00    +0.085 C 
ENDROOT
BRANCH   7  11
ATOM      1  F   UNL     1      -6.444   5.288  25.586  0.00  0.00    -0.205 F 
ATOM      5  N   UNL     1      -2.681   2.193  25.363  0.00  0.00    -0.341 N 
ATOM      6  N   UNL     1      -3.980   0.394  25.227  0.00  0.00    -0.232 NA
ATOM     11  C   UNL     1      -2.741   0.831  25.262  0.00  0.00    +0.113 A 
ATOM     14  C   UNL     1      -3.968   2.667  25.396  0.00  0.00    +0.069 A 
ATOM     15  C   UNL     1      -4.760   1.525  25.310  0.00  0.00    +0.089 A 
ATOM     19  C   UNL     1      -4.491   3.957  25.491  0.00  0.00    +0.066 A 
ATOM     20  C   UNL     1      -6.158   1.659  25.318  0.00  0.00    +0.032 A 
ATOM     23  C   UNL     1      -5.885   4.072  25.496  0.00  0.00    +0.125 A 
ATOM     24  C   UNL     1      -6.706   2.945  25.412  0.00  0.00    +0.040 A 
ATOM     26  H   UNL     1      -1.841   2.754  25.406  0.00  0.00    +0.167 HD
ENDBRANCH   7  11
BRANCH   4  12
ATOM     12  C   UNL     1       0.962  -0.576  22.519  0.00  0.00    +0.119 C 
BRANCH  12  13
ATOM      2  O   UNL     1       5.468  -1.695  24.235  0.00  0.00    -0.453 OA
ATOM      3  O   UNL     1       6.377   0.439  23.581  0.00  0.00    -0.453 OA
ATOM     13  C   UNL     1       2.411  -0.269  22.789  0.00  0.00    -0.030 A 
ATOM     16  C   UNL     1       3.217  -1.224  23.415  0.00  0.00    +0.054 A 
ATOM     17  C   UNL     1       2.942   0.976  22.407  0.00  0.00    +0.009 A 
ATOM     18  C   UNL     1       4.539  -0.898  23.641  0.00  0.00    +0.167 A 
ATOM     21  C   UNL     1       4.284   1.281  22.647  0.00  0.00    +0.050 A 
ATOM     22  C   UNL     1       5.058   0.321  23.267  0.00  0.00    +0.166 A 
ATOM     25  C   UNL     1       6.630  -0.842  24.193  0.00  0.00    +0.466 C 
ENDBRANCH  12  13
ENDBRANCH   4  12
TORSDOF 3
ENDMDL
MODEL 4
REMARK VINA RESULT:      -1.0      3.444      5.458
REMARK  Name = 45784235
REMARK  3 active torsions:
REMARK  status: ('A' for Active; 'I' for Inactive)
REMARK    1  A    between atoms: N_4  and  C_12
REMARK    2  A    between atoms: C_7  and  C_11
REMARK    3  A    between atoms: C_12  and  C_13
REMARK                            x       y       z     vdW  Elec       q    Type
REMARK                         _______ _______ _______ _____ _____    ______ ____
ROOT
ATOM      4  N   UNL     1      -0.119   3.580  25.147  0.00  0.00    -0.297 NA
ATOM      7  C   UNL     1      -0.044   1.238  25.057  0.00  0.00    +0.070 C 
ATOM      8  C   UNL     1       0.645   1.823  23.812  0.00  0.00    +0.028 C 
ATOM      9  C   UNL     1      -0.842   2.409  25.645  0.00  0.00    +0.096 C 
ATOM     10  C   UNL     1       0.179   3.272  23.748  0.00  0.00    +0.085 C 
ENDROOT
BRANCH   7  11
ATOM      1  F   UNL     1      -5.332  -3.514  23.566  0.00  0.00    -0.205 F 
ATOM      5  N   UNL     1      -2.218   0.126  24.479  0.00  0.00    -0.341 N 
ATOM      6  N   UNL     1      -0.502  -1.238  24.842  0.00  0.00    -0.232 NA
ATOM     11  C   UNL     1      -0.894   0.016  24.798  0.00  0.00    +0.113 A 
ATOM     14  C   UNL     1      -2.714  -1.141  24.305  0.00  0.00    +0.069 A 
ATOM     15  C   UNL     1      -1.624  -1.974  24.538  0.00  0.00    +0.089 A 
ATOM     19  C   UNL     1      -3.984  -1.615  23.974  0.00  0.00    +0.066 A 
ATOM     20  C   UNL     1      -1.791  -3.366  24.439  0.00  0.00    +0.032 A 
ATOM     23  C   UNL     1      -4.133  -3.002  23.880  0.00  0.00    +0.125 A 
ATOM     24  C   UNL     1      -3.058  -3.864  24.108  0.00  0.00    +0.040 A 
ATOM     26  H   UNL     1      -2.742   0.986  24.387  0.00  0.00    +0.167 HD
ENDBRANCH   7  11
BRANCH   4  12
ATOM     12  C   UNL     1      -0.885   4.809  25.291  0.00  0.00    +0.119 C 
BRANCH  12  13
ATOM      2  O   UNL     1      -4.983   2.153  24.482  0.00  0.00    -0.453 OA
ATOM      3  O   UNL     1      -6.365   3.686  25.727  0.00  0.00    -0.453 OA
ATOM     13  C   UNL     1      -2.360   4.539  25.427  0.00  0.00    -0.030 A 
ATOM     16  C   UNL     1      -2.915   3.403  24.834  0.00  0.00    +0.054 A 
ATOM     17  C   UNL     1      -3.167   5.433  26.154  0.00  0.00    +0.009 A 
ATOM     18  C   UNL     1      -4.271   3.197  24.987  0.00  0.00    +0.167 A 
ATOM     21  C   UNL     1      -4.537   5.202  26.295  0.00  0.00    +0.050 A 
ATOM     22  C   UNL     1      -5.060   4.073  25.698  0.00  0.00    +0.166 A 
ATOM     25  C   UNL     1      -6.308   2.469  24.955  0.00  0.00    +0.466 C 
ENDBRANCH  12  13
ENDBRANCH   4  12
TORSDOF 3
ENDMDL
MODEL 5
REMARK VINA RESULT:      -0.1      2.454      4.178
REMARK  Name = 45784235
REMARK  3 active torsions:
REMARK  status: ('A' for Active; 'I' for Inactive)
REMARK    1  A    between atoms: N_4  and  C_12
REMARK    2  A    between atoms: C_7  and  C_11
REMARK    3  A    between atoms: C_12  and  C_13
REMARK                            x       y       z     vdW  Elec       q    Type
REMARK                         _______ _______ _______ _____ _____    ______ ____
ROOT
ATOM      4  N   UNL     1      -2.958   3.776  25.880  0.00  0.00    -0.297 NA
ATOM      7  C   UNL     1      -0.722   3.280  25.376  0.00  0.00    +0.070 C 
ATOM      8  C   UNL     1      -1.130   4.588  24.676  0.00  0.00    +0.028 C 
ATOM      9  C   UNL     1      -2.050   2.632  25.790  0.00  0.00    +0.096 C 
ATOM     10  C   UNL     1      -2.653   4.594  24.705  0.00  0.00    +0.085 C 
ENDROOT
BRANCH   7  11
ATOM      1  F   UNL     1       4.632   0.027  21.698  0.00  0.00    -0.205 F 
ATOM      5  N   UNL     1       1.458   2.667  24.294  0.00  0.00    -0.341 N 
ATOM      6  N   UNL     1      -0.206   1.221  24.004  0.00  0.00    -0.232 NA
ATOM     11  C   UNL     1       0.150   2.363  24.551  0.00  0.00    +0.113 A 
ATOM     14  C   UNL     1       1.981   1.656  23.530  0.00  0.00    +0.069 A 
ATOM     15  C   UNL     1       0.923   0.766  23.362  0.00  0.00    +0.089 A 
ATOM     19  C   UNL     1       3.250   1.448  22.987  0.00  0.00    +0.066 A 
ATOM     20  C   UNL     1       1.125  -0.405  22.613  0.00  0.00    +0.032 A 
ATOM     23  C   UNL     1       3.433   0.278  22.245  0.00  0.00    +0.125 A 
ATOM     24  C   UNL     1       2.391  -0.634  22.059  0.00  0.00    +0.040 A 
ATOM     26  H   UNL     1       1.954   3.490  24.608  0.00  0.00    +0.167 HD
ENDBRANCH   7  11
BRANCH   4  12
ATOM     12  C   UNL     1      -4.356   3.374  25.926  0.00  0.00    +0.119 C 
BRANCH  12  13
ATOM      2  O   UNL     1      -2.830  -1.192  24.775  0.00  0.00    -0.453 OA
ATOM      3  O   UNL     1      -4.987  -1.820  23.902  0.00  0.00    -0.453 OA
ATOM     13  C   UNL     1      -4.560   1.989  25.374  0.00  0.00    -0.030 A 
ATOM     16  C   UNL     1      -3.500   1.079  25.374  0.00  0.00    +0.054 A 
ATOM     17  C   UNL     1      -5.819   1.621  24.865  0.00  0.00    +0.009 A 
ATOM     18  C   UNL     1      -3.737  -0.180  24.859  0.00  0.00    +0.167 A 
ATOM     21  C   UNL     1      -6.032   0.341  24.349  0.00  0.00    +0.050 A 
ATOM     22  C   UNL     1      -4.969  -0.538  24.360  0.00  0.00    +0.166 A 
ATOM     25  C   UNL     1      -3.630  -2.227  24.168  0.00  0.00    +0.466 C 
ENDBRANCH  12  13
ENDBRANCH   4  12
TORSDOF 3
ENDMDL
