MODEL 1
REMARK VINA RESULT:      -0.0      0.000      0.000
REMARK  Name = 71693181
REMARK  13 active torsions:
REMARK  status: ('A' for Active; 'I' for Inactive)
REMARK    1  A    between atoms: O_1  and  C_32
REMARK    2  A    between atoms: O_1  and  C_33
REMARK    3  A    between atoms: N_3  and  C_11
REMARK    4  A    between atoms: N_3  and  C_16
REMARK    5  A    between atoms: C_6  and  C_10
REMARK    6  A    between atoms: C_7  and  C_11
REMARK    7  A    between atoms: C_9  and  C_15
REMARK    8  A    between atoms: C_10  and  C_19
REMARK    9  A    between atoms: C_10  and  C_20
REMARK   10  A    between atoms: C_12  and  C_23
REMARK   11  A    between atoms: C_14  and  C_16
REMARK   12  A    between atoms: C_15  and  C_25
REMARK   13  A    between atoms: C_30  and  C_32
REMARK                            x       y       z     vdW  Elec       q    Type
REMARK                         _______ _______ _______ _____ _____    ______ ____
ROOT
ATOM      6  C   UNL     1      -2.297   3.590  25.694  0.00  0.00    +0.000 C 
ATOM      7  C   UNL     1      -3.669   3.867  25.036  0.00  0.00    +0.029 C 
ATOM      8  C   UNL     1      -1.749   2.229  25.242  0.00  0.00    +0.012 C 
ATOM      9  C   UNL     1      -1.618   2.101  23.709  0.00  0.00    +0.022 C 
ATOM     12  C   UNL     1      -2.778   2.736  22.957  0.00  0.00    -0.073 C 
ATOM     13  C   UNL     1      -3.690   3.512  23.570  0.00  0.00    -0.023 C 
ATOM     23  C   UNL     1      -2.845   2.517  21.470  0.00  0.00    +0.039 C 
ENDROOT
BRANCH   6  10
ATOM     10  C   UNL     1      -1.297   4.716  25.399  0.00  0.00    -0.013 C 
ATOM     19  C   UNL     1      -2.017   5.927  24.817  0.00  0.00    +0.007 C 
ATOM     20  C   UNL     1      -0.207   4.226  24.452  0.00  0.00    +0.007 C 
ENDBRANCH   6  10
BRANCH   7  11
ATOM     11  C   UNL     1      -4.800   3.122  25.750  0.00  0.00    +0.088 C 
BRANCH  11   3
ATOM      3  N   UNL     1      -5.374   2.106  24.884  0.00  0.00    -0.315 NA
ATOM     34  H   UNL     1      -4.841   2.043  24.017  0.00  0.00    +0.122 HD
BRANCH   3  16
ATOM     16  C   UNL     1      -5.399   0.807  25.543  0.00  0.00    +0.084 C 
BRANCH  16  14
ATOM     14  C   UNL     1      -4.302  -0.109  25.002  0.00  0.00    +0.003 C 
ATOM     17  C   UNL     1      -4.888  -1.140  24.028  0.00  0.00    +0.005 C 
ATOM     18  C   UNL     1      -3.559  -0.804  26.151  0.00  0.00    +0.005 C 
ATOM     21  C   UNL     1      -3.820  -2.101  23.514  0.00  0.00    +0.000 C 
ATOM     22  C   UNL     1      -2.492  -1.764  25.632  0.00  0.00    +0.000 C 
ATOM     24  C   UNL     1      -3.078  -2.783  24.658  0.00  0.00    +0.000 C 
ENDBRANCH  16  14
ENDBRANCH   3  16
ENDBRANCH  11   3
ENDBRANCH   7  11
BRANCH   9  15
ATOM     15  C   UNL     1      -1.418   0.621  23.356  0.00  0.00    +0.082 C 
BRANCH  15  25
ATOM      4  N   UNL     1       1.024   1.156  23.251  0.00  0.00    -0.342 N 
ATOM      5  N   UNL     1       0.512  -0.970  23.648  0.00  0.00    -0.232 NA
ATOM     25  C   UNL     1       0.031   0.232  23.425  0.00  0.00    +0.109 A 
ATOM     26  C   UNL     1       2.226   0.506  23.368  0.00  0.00    +0.067 A 
ATOM     27  C   UNL     1       1.879  -0.820  23.616  0.00  0.00    +0.089 A 
ATOM     28  C   UNL     1       3.546   0.950  23.282  0.00  0.00    +0.042 A 
ATOM     29  C   UNL     1       2.897  -1.773  23.791  0.00  0.00    +0.030 A 
ATOM     30  C   UNL     1       4.546  -0.012  23.459  0.00  0.00    +0.061 A 
ATOM     31  C   UNL     1       4.230  -1.349  23.709  0.00  0.00    +0.017 A 
ATOM     35  H   UNL     1       0.898   2.142  23.068  0.00  0.00    +0.167 HD
BRANCH  30  32
ATOM      2  O   UNL     1       6.427   1.356  23.984  0.00  0.00    -0.245 OA
ATOM     32  C   UNL     1       5.942   0.391  23.380  0.00  0.00    +0.339 C 
BRANCH  32   1
ATOM      1  O   UNL     1       6.656  -0.430  22.551  0.00  0.00    -0.464 OA
ATOM     33  C   UNL     1       8.061  -0.541  22.803  0.00  0.00    +0.280 C 
ENDBRANCH  32   1
ENDBRANCH  30  32
ENDBRANCH  15  25
ENDBRANCH   9  15
TORSDOF 9
ENDMDL
MODEL 2
REMARK VINA RESULT:       0.8      1.646      3.186
REMARK  Name = 71693181
REMARK  13 active torsions:
REMARK  status: ('A' for Active; 'I' for Inactive)
REMARK    1  A    between atoms: O_1  and  C_32
REMARK    2  A    between atoms: O_1  and  C_33
REMARK    3  A    between atoms: N_3  and  C_11
REMARK    4  A    between atoms: N_3  and  C_16
REMARK    5  A    between atoms: C_6  and  C_10
REMARK    6  A    between atoms: C_7  and  C_11
REMARK    7  A    between atoms: C_9  and  C_15
REMARK    8  A    between atoms: C_10  and  C_19
REMARK    9  A    between atoms: C_10  and  C_20
REMARK   10  A    between atoms: C_12  and  C_23
REMARK   11  A    between atoms: C_14  and  C_16
REMARK   12  A    between atoms: C_15  and  C_25
REMARK   13  A    between atoms: C_30  and  C_32
REMARK                            x       y       z     vdW  Elec       q    Type
REMARK                         _______ _______ _______ _____ _____    ______ ____
ROOT
ATOM      6  C   UNL     1      -4.536   2.510  25.063  0.00  0.00    +0.000 C 
ATOM      7  C   UNL     1      -4.189   3.291  23.773  0.00  0.00    +0.029 C 
ATOM      8  C   UNL     1      -3.269   2.243  25.887  0.00  0.00    +0.012 C 
ATOM      9  C   UNL     1      -2.497   3.528  26.257  0.00  0.00    +0.022 C 
ATOM     12  C   UNL     1      -2.465   4.548  25.129  0.00  0.00    -0.073 C 
ATOM     13  C   UNL     1      -3.219   4.419  24.023  0.00  0.00    -0.023 C 
ATOM     23  C   UNL     1      -1.593   5.761  25.315  0.00  0.00    +0.039 C 
ENDROOT
BRANCH   6  10
ATOM     10  C   UNL     1      -5.594   3.246  25.895  0.00  0.00    -0.013 C 
ATOM     19  C   UNL     1      -6.673   2.275  26.362  0.00  0.00    +0.007 C 
ATOM     20  C   UNL     1      -6.205   4.388  25.090  0.00  0.00    +0.007 C 
ENDBRANCH   6  10
BRANCH   7  11
ATOM     11  C   UNL     1      -3.622   2.370  22.689  0.00  0.00    +0.088 C 
BRANCH  11   3
ATOM      3  N   UNL     1      -2.980   1.211  23.284  0.00  0.00    -0.315 NA
ATOM     34  H   UNL     1      -3.045   1.257  24.300  0.00  0.00    +0.122 HD
BRANCH   3  16
ATOM     16  C   UNL     1      -3.584  -0.026  22.807  0.00  0.00    +0.084 C 
BRANCH  16  14
ATOM     14  C   UNL     1      -3.879  -0.979  23.964  0.00  0.00    +0.003 C 
ATOM     17  C   UNL     1      -3.063  -0.594  25.205  0.00  0.00    +0.005 C 
ATOM     18  C   UNL     1      -3.600  -2.432  23.555  0.00  0.00    +0.005 C 
ATOM     21  C   UNL     1      -3.300  -1.565  26.359  0.00  0.00    +0.000 C 
ATOM     22  C   UNL     1      -3.838  -3.399  24.713  0.00  0.00    +0.000 C 
ATOM     24  C   UNL     1      -3.030  -3.008  25.947  0.00  0.00    +0.000 C 
ENDBRANCH  16  14
ENDBRANCH   3  16
ENDBRANCH  11   3
ENDBRANCH   7  11
BRANCH   9  15
ATOM     15  C   UNL     1      -1.097   3.135  26.746  0.00  0.00    +0.082 C 
BRANCH  15  25
ATOM      4  N   UNL     1       0.856   2.674  25.254  0.00  0.00    -0.342 N 
ATOM      5  N   UNL     1      -0.793   1.185  25.182  0.00  0.00    -0.232 NA
ATOM     25  C   UNL     1      -0.373   2.305  25.726  0.00  0.00    +0.109 A 
ATOM     26  C   UNL     1       1.256   1.728  24.344  0.00  0.00    +0.067 A 
ATOM     27  C   UNL     1       0.209   0.810  24.317  0.00  0.00    +0.089 A 
ATOM     28  C   UNL     1       2.407   1.601  23.566  0.00  0.00    +0.042 A 
ATOM     29  C   UNL     1       0.300  -0.308  23.470  0.00  0.00    +0.030 A 
ATOM     30  C   UNL     1       2.481   0.482  22.729  0.00  0.00    +0.061 A 
ATOM     31  C   UNL     1       1.447  -0.455  22.681  0.00  0.00    +0.017 A 
ATOM     35  H   UNL     1       1.380   3.495  25.525  0.00  0.00    +0.167 HD
BRANCH  30  32
ATOM      2  O   UNL     1       3.625   0.102  20.672  0.00  0.00    -0.245 OA
ATOM     32  C   UNL     1       3.657   0.295  21.894  0.00  0.00    +0.339 C 
BRANCH  32   1
ATOM      1  O   UNL     1       4.810   0.358  22.628  0.00  0.00    -0.464 OA
ATOM     33  C   UNL     1       5.007  -0.663  23.611  0.00  0.00    +0.280 C 
ENDBRANCH  32   1
ENDBRANCH  30  32
ENDBRANCH  15  25
ENDBRANCH   9  15
TORSDOF 9
ENDMDL
MODEL 3
REMARK VINA RESULT:       1.4      1.731      3.419
REMARK  Name = 71693181
REMARK  13 active torsions:
REMARK  status: ('A' for Active; 'I' for Inactive)
REMARK    1  A    between atoms: O_1  and  C_32
REMARK    2  A    between atoms: O_1  and  C_33
REMARK    3  A    between atoms: N_3  and  C_11
REMARK    4  A    between atoms: N_3  and  C_16
REMARK    5  A    between atoms: C_6  and  C_10
REMARK    6  A    between atoms: C_7  and  C_11
REMARK    7  A    between atoms: C_9  and  C_15
REMARK    8  A    between atoms: C_10  and  C_19
REMARK    9  A    between atoms: C_10  and  C_20
REMARK   10  A    between atoms: C_12  and  C_23
REMARK   11  A    between atoms: C_14  and  C_16
REMARK   12  A    between atoms: C_15  and  C_25
REMARK   13  A    between atoms: C_30  and  C_32
REMARK                            x       y       z     vdW  Elec       q    Type
REMARK                         _______ _______ _______ _____ _____    ______ ____
ROOT
ATOM      6  C   UNL     1      -4.830   1.253  25.618  0.00  0.00    +0.000 C 
ATOM      7  C   UNL     1      -4.923   0.951  24.104  0.00  0.00    +0.029 C 
ATOM      8  C   UNL     1      -3.526   1.995  25.939  0.00  0.00    +0.012 C 
ATOM      9  C   UNL     1      -3.357   3.308  25.143  0.00  0.00    +0.022 C 
ATOM     12  C   UNL     1      -3.827   3.193  23.701  0.00  0.00    -0.073 C 
ATOM     13  C   UNL     1      -4.515   2.127  23.253  0.00  0.00    -0.023 C 
ATOM     23  C   UNL     1      -3.547   4.354  22.785  0.00  0.00    +0.039 C 
ENDROOT
BRANCH   6  10
ATOM     10  C   UNL     1      -6.053   2.041  26.108  0.00  0.00    -0.013 C 
ATOM     19  C   UNL     1      -6.675   1.357  27.320  0.00  0.00    +0.007 C 
ATOM     20  C   UNL     1      -7.074   2.190  24.986  0.00  0.00    +0.007 C 
ENDBRANCH   6  10
BRANCH   7  11
ATOM     11  C   UNL     1      -4.080  -0.267  23.717  0.00  0.00    +0.088 C 
BRANCH  11   3
ATOM      3  N   UNL     1      -4.839  -1.494  23.893  0.00  0.00    -0.315 NA
ATOM     34  H   UNL     1      -5.524  -1.593  23.144  0.00  0.00    +0.122 HD
BRANCH   3  16
ATOM     16  C   UNL     1      -3.960  -2.657  23.914  0.00  0.00    +0.084 C 
BRANCH  16  14
ATOM     14  C   UNL     1      -2.860  -2.499  24.963  0.00  0.00    +0.003 C 
ATOM     17  C   UNL     1      -3.237  -1.418  25.985  0.00  0.00    +0.005 C 
ATOM     18  C   UNL     1      -1.516  -2.175  24.295  0.00  0.00    +0.005 C 
ATOM     21  C   UNL     1      -2.130  -1.204  27.014  0.00  0.00    +0.000 C 
ATOM     22  C   UNL     1      -0.412  -1.961  25.328  0.00  0.00    +0.000 C 
ATOM     24  C   UNL     1      -0.794  -0.891  26.347  0.00  0.00    +0.000 C 
ENDBRANCH  16  14
ENDBRANCH   3  16
ENDBRANCH  11   3
ENDBRANCH   7  11
BRANCH   9  15
ATOM     15  C   UNL     1      -1.898   3.767  25.260  0.00  0.00    +0.082 C 
BRANCH  15  25
ATOM      4  N   UNL     1       0.394   2.927  24.711  0.00  0.00    -0.342 N 
ATOM      5  N   UNL     1      -1.297   1.755  23.869  0.00  0.00    -0.232 NA
ATOM     25  C   UNL     1      -0.963   2.796  24.599  0.00  0.00    +0.109 A 
ATOM     26  C   UNL     1       0.973   1.902  24.007  0.00  0.00    +0.067 A 
ATOM     27  C   UNL     1      -0.103   1.185  23.491  0.00  0.00    +0.089 A 
ATOM     28  C   UNL     1       2.305   1.553  23.784  0.00  0.00    +0.042 A 
ATOM     29  C   UNL     1       0.146   0.048  22.704  0.00  0.00    +0.030 A 
ATOM     30  C   UNL     1       2.534   0.418  22.998  0.00  0.00    +0.061 A 
ATOM     31  C   UNL     1       1.476  -0.321  22.467  0.00  0.00    +0.017 A 
ATOM     35  H   UNL     1       0.884   3.649  25.222  0.00  0.00    +0.167 HD
BRANCH  30  32
ATOM      2  O   UNL     1       4.618   0.481  21.840  0.00  0.00    -0.245 OA
ATOM     32  C   UNL     1       3.903   0.003  22.730  0.00  0.00    +0.339 C 
BRANCH  32   1
ATOM      1  O   UNL     1       4.306  -0.985  23.587  0.00  0.00    -0.464 OA
ATOM     33  C   UNL     1       5.528  -0.766  24.298  0.00  0.00    +0.280 C 
ENDBRANCH  32   1
ENDBRANCH  30  32
ENDBRANCH  15  25
ENDBRANCH   9  15
TORSDOF 9
ENDMDL
MODEL 4
REMARK VINA RESULT:       2.3      0.987      4.006
REMARK  Name = 71693181
REMARK  13 active torsions:
REMARK  status: ('A' for Active; 'I' for Inactive)
REMARK    1  A    between atoms: O_1  and  C_32
REMARK    2  A    between atoms: O_1  and  C_33
REMARK    3  A    between atoms: N_3  and  C_11
REMARK    4  A    between atoms: N_3  and  C_16
REMARK    5  A    between atoms: C_6  and  C_10
REMARK    6  A    between atoms: C_7  and  C_11
REMARK    7  A    between atoms: C_9  and  C_15
REMARK    8  A    between atoms: C_10  and  C_19
REMARK    9  A    between atoms: C_10  and  C_20
REMARK   10  A    between atoms: C_12  and  C_23
REMARK   11  A    between atoms: C_14  and  C_16
REMARK   12  A    between atoms: C_15  and  C_25
REMARK   13  A    between atoms: C_30  and  C_32
REMARK                            x       y       z     vdW  Elec       q    Type
REMARK                         _______ _______ _______ _____ _____    ______ ____
ROOT
ATOM      6  C   UNL     1      -4.284  -0.855  23.990  0.00  0.00    +0.000 C 
ATOM      7  C   UNL     1      -4.547   0.039  25.225  0.00  0.00    +0.029 C 
ATOM      8  C   UNL     1      -3.146  -0.275  23.139  0.00  0.00    +0.012 C 
ATOM      9  C   UNL     1      -1.830  -0.085  23.925  0.00  0.00    +0.022 C 
ATOM     12  C   UNL     1      -2.051   0.425  25.341  0.00  0.00    -0.073 C 
ATOM     13  C   UNL     1      -3.274   0.484  25.899  0.00  0.00    -0.023 C 
ATOM     23  C   UNL     1      -0.835   0.814  26.137  0.00  0.00    +0.039 C 
ENDROOT
BRANCH   6  10
ATOM     10  C   UNL     1      -3.987  -2.304  24.401  0.00  0.00    -0.013 C 
ATOM     19  C   UNL     1      -2.483  -2.544  24.455  0.00  0.00    +0.007 C 
ATOM     20  C   UNL     1      -4.658  -3.277  23.438  0.00  0.00    +0.007 C 
ENDBRANCH   6  10
BRANCH   7  11
ATOM     11  C   UNL     1      -5.382   1.271  24.864  0.00  0.00    +0.088 C 
BRANCH  11   3
ATOM      3  N   UNL     1      -5.415   2.212  25.970  0.00  0.00    -0.315 NA
ATOM     34  H   UNL     1      -4.573   2.117  26.536  0.00  0.00    +0.122 HD
BRANCH   3  16
ATOM     16  C   UNL     1      -5.536   3.583  25.490  0.00  0.00    +0.084 C 
BRANCH  16  14
ATOM     14  C   UNL     1      -4.177   4.142  25.070  0.00  0.00    +0.003 C 
ATOM     17  C   UNL     1      -3.626   3.375  23.861  0.00  0.00    +0.005 C 
ATOM     18  C   UNL     1      -3.187   4.100  26.242  0.00  0.00    +0.005 C 
ATOM     21  C   UNL     1      -2.243   3.880  23.455  0.00  0.00    +0.000 C 
ATOM     22  C   UNL     1      -1.806   4.606  25.831  0.00  0.00    +0.000 C 
ATOM     24  C   UNL     1      -1.265   3.845  24.624  0.00  0.00    +0.000 C 
ENDBRANCH  16  14
ENDBRANCH   3  16
ENDBRANCH  11   3
ENDBRANCH   7  11
BRANCH   9  15
ATOM     15  C   UNL     1      -0.896   0.815  23.106  0.00  0.00    +0.082 C 
BRANCH  15  25
ATOM      4  N   UNL     1       1.565   1.262  23.079  0.00  0.00    -0.342 N 
ATOM      5  N   UNL     1       0.965  -0.840  23.481  0.00  0.00    -0.232 NA
ATOM     25  C   UNL     1       0.535   0.376  23.229  0.00  0.00    +0.109 A 
ATOM     26  C   UNL     1       2.739   0.571  23.244  0.00  0.00    +0.067 A 
ATOM     27  C   UNL     1       2.337  -0.738  23.495  0.00  0.00    +0.089 A 
ATOM     28  C   UNL     1       4.075   0.967  23.198  0.00  0.00    +0.042 A 
ATOM     29  C   UNL     1       3.314  -1.724  23.715  0.00  0.00    +0.030 A 
ATOM     30  C   UNL     1       5.035  -0.027  23.420  0.00  0.00    +0.061 A 
ATOM     31  C   UNL     1       4.662  -1.348  23.673  0.00  0.00    +0.017 A 
ATOM     35  H   UNL     1       1.480   2.250  22.881  0.00  0.00    +0.167 HD
BRANCH  30  32
ATOM      2  O   UNL     1       6.949   1.264  24.014  0.00  0.00    -0.245 OA
ATOM     32  C   UNL     1       6.446   0.326  23.384  0.00  0.00    +0.339 C 
BRANCH  32   1
ATOM      1  O   UNL     1       7.152  -0.510  22.563  0.00  0.00    -0.464 OA
ATOM     33  C   UNL     1       8.568  -0.568  22.762  0.00  0.00    +0.280 C 
ENDBRANCH  32   1
ENDBRANCH  30  32
ENDBRANCH  15  25
ENDBRANCH   9  15
TORSDOF 9
ENDMDL
MODEL 5
REMARK VINA RESULT:       2.4      1.235      3.732
REMARK  Name = 71693181
REMARK  13 active torsions:
REMARK  status: ('A' for Active; 'I' for Inactive)
REMARK    1  A    between atoms: O_1  and  C_32
REMARK    2  A    between atoms: O_1  and  C_33
REMARK    3  A    between atoms: N_3  and  C_11
REMARK    4  A    between atoms: N_3  and  C_16
REMARK    5  A    between atoms: C_6  and  C_10
REMARK    6  A    between atoms: C_7  and  C_11
REMARK    7  A    between atoms: C_9  and  C_15
REMARK    8  A    between atoms: C_10  and  C_19
REMARK    9  A    between atoms: C_10  and  C_20
REMARK   10  A    between atoms: C_12  and  C_23
REMARK   11  A    between atoms: C_14  and  C_16
REMARK   12  A    between atoms: C_15  and  C_25
REMARK   13  A    between atoms: C_30  and  C_32
REMARK                            x       y       z     vdW  Elec       q    Type
REMARK                         _______ _______ _______ _____ _____    ______ ____
ROOT
ATOM      6  C   UNL     1      -3.646   2.454  23.767  0.00  0.00    +0.000 C 
ATOM      7  C   UNL     1      -4.985   2.046  24.425  0.00  0.00    +0.029 C 
ATOM      8  C   UNL     1      -2.522   1.502  24.199  0.00  0.00    +0.012 C 
ATOM      9  C   UNL     1      -2.820   0.020  23.883  0.00  0.00    +0.022 C 
ATOM     12  C   UNL     1      -4.271  -0.361  24.131  0.00  0.00    -0.073 C 
ATOM     13  C   UNL     1      -5.221   0.557  24.383  0.00  0.00    -0.023 C 
ATOM     23  C   UNL     1      -4.634  -1.818  24.026  0.00  0.00    +0.039 C 
ENDROOT
BRANCH   6  10
ATOM     10  C   UNL     1      -3.768   2.509  22.237  0.00  0.00    -0.013 C 
ATOM     19  C   UNL     1      -2.447   2.121  21.584  0.00  0.00    +0.007 C 
ATOM     20  C   UNL     1      -4.207   3.899  21.789  0.00  0.00    +0.007 C 
ENDBRANCH   6  10
BRANCH   7  11
ATOM     11  C   UNL     1      -5.072   2.529  25.876  0.00  0.00    +0.088 C 
BRANCH  11   3
ATOM      3  N   UNL     1      -4.489   3.853  26.013  0.00  0.00    -0.315 NA
ATOM     34  H   UNL     1      -5.219   4.539  26.201  0.00  0.00    +0.122 HD
BRANCH   3  16
ATOM     16  C   UNL     1      -3.497   3.882  27.080  0.00  0.00    +0.084 C 
BRANCH  16  14
ATOM     14  C   UNL     1      -2.101   4.167  26.528  0.00  0.00    +0.003 C 
ATOM     17  C   UNL     1      -2.187   4.963  25.218  0.00  0.00    +0.005 C 
ATOM     18  C   UNL     1      -1.321   2.860  26.323  0.00  0.00    +0.005 C 
ATOM     21  C   UNL     1      -0.806   5.213  24.619  0.00  0.00    +0.000 C 
ATOM     22  C   UNL     1       0.059   3.116  25.723  0.00  0.00    +0.000 C 
ATOM     24  C   UNL     1      -0.031   3.914  24.425  0.00  0.00    +0.000 C 
ENDBRANCH  16  14
ENDBRANCH   3  16
ENDBRANCH  11   3
ENDBRANCH   7  11
BRANCH   9  15
ATOM     15  C   UNL     1      -1.831  -0.855  24.664  0.00  0.00    +0.082 C 
BRANCH  15  25
ATOM      4  N   UNL     1       0.601  -1.437  24.595  0.00  0.00    -0.342 N 
ATOM      5  N   UNL     1       0.016   0.421  23.524  0.00  0.00    -0.232 NA
ATOM     25  C   UNL     1      -0.414  -0.592  24.242  0.00  0.00    +0.109 A 
ATOM     26  C   UNL     1       1.765  -0.936  24.070  0.00  0.00    +0.067 A 
ATOM     27  C   UNL     1       1.373   0.224  23.406  0.00  0.00    +0.089 A 
ATOM     28  C   UNL     1       3.085  -1.384  24.117  0.00  0.00    +0.042 A 
ATOM     29  C   UNL     1       2.344   0.994  22.744  0.00  0.00    +0.030 A 
ATOM     30  C   UNL     1       4.038  -0.605  23.452  0.00  0.00    +0.061 A 
ATOM     31  C   UNL     1       3.676   0.563  22.778  0.00  0.00    +0.017 A 
ATOM     35  H   UNL     1       0.512  -2.282  25.144  0.00  0.00    +0.167 HD
BRANCH  30  32
ATOM      2  O   UNL     1       5.823  -2.147  23.798  0.00  0.00    -0.245 OA
ATOM     32  C   UNL     1       5.432  -1.021  23.466  0.00  0.00    +0.339 C 
BRANCH  32   1
ATOM      1  O   UNL     1       6.263  -0.010  23.067  0.00  0.00    -0.464 OA
ATOM     33  C   UNL     1       7.664  -0.298  23.038  0.00  0.00    +0.280 C 
ENDBRANCH  32   1
ENDBRANCH  30  32
ENDBRANCH  15  25
ENDBRANCH   9  15
TORSDOF 9
ENDMDL
