MODEL 1
REMARK VINA RESULT:      -2.8      0.000      0.000
REMARK  Name = 38027816
REMARK  13 active torsions:
REMARK  status: ('A' for Active; 'I' for Inactive)
REMARK    1  A    between atoms: O_3  and  C_31
REMARK    2  A    between atoms: O_3  and  C_33
REMARK    3  A    between atoms: N_4  and  C_15
REMARK    4  A    between atoms: N_5  and  C_22
REMARK    5  A    between atoms: C_8  and  C_12
REMARK    6  A    between atoms: C_9  and  C_15
REMARK    7  A    between atoms: C_11  and  C_16
REMARK    8  A    between atoms: C_12  and  C_17
REMARK    9  A    between atoms: C_12  and  C_18
REMARK   10  A    between atoms: C_13  and  C_19
REMARK   11  A    between atoms: C_16  and  C_20
REMARK   12  A    between atoms: C_21  and  C_23
REMARK   13  A    between atoms: C_22  and  C_24
REMARK                            x       y       z     vdW  Elec       q    Type
REMARK                         _______ _______ _______ _____ _____    ______ ____
ROOT
ATOM      8  C   UNL     1      -1.900   0.342  24.875  0.00  0.00    +0.000 C 
ATOM      9  C   UNL     1      -0.917  -0.823  24.598  0.00  0.00    +0.032 C 
ATOM     10  C   UNL     1      -2.985  -0.097  25.869  0.00  0.00    +0.012 C 
ATOM     11  C   UNL     1      -3.793  -1.304  25.355  0.00  0.00    +0.023 C 
ATOM     13  C   UNL     1      -2.891  -2.394  24.812  0.00  0.00    -0.073 C 
ATOM     14  C   UNL     1      -1.605  -2.163  24.492  0.00  0.00    -0.022 C 
ATOM     19  C   UNL     1      -3.489  -3.768  24.689  0.00  0.00    +0.039 C 
ENDROOT
BRANCH   8  12
ATOM     12  C   UNL     1      -1.176   1.580  25.411  0.00  0.00    -0.013 C 
ATOM     17  C   UNL     1      -0.360   2.241  24.306  0.00  0.00    +0.007 C 
ATOM     18  C   UNL     1      -0.284   1.206  26.591  0.00  0.00    +0.007 C 
ENDBRANCH   8  12
BRANCH   9  15
ATOM     15  C   UNL     1      -0.100  -0.566  23.326  0.00  0.00    +0.112 C 
BRANCH  15   4
ATOM      2  O   UNL     1       2.035  -0.165  21.450  0.00  0.00    -0.270 OA
ATOM      4  N   UNL     1       1.295  -0.497  23.624  0.00  0.00    -0.311 N 
ATOM     21  C   UNL     1       2.271  -0.299  22.647  0.00  0.00    +0.247 C 
ATOM     34  H   UNL     1       1.569  -0.595  24.597  0.00  0.00    +0.149 HD
BRANCH  21  23
ATOM      6  N   UNL     1       5.770   0.885  23.384  0.00  0.00    -0.243 NA
ATOM      7  N   UNL     1       5.543  -1.382  24.167  0.00  0.00    -0.243 NA
ATOM     23  C   UNL     1       3.680  -0.278  23.117  0.00  0.00    +0.073 A 
ATOM     25  C   UNL     1       4.487   0.831  22.970  0.00  0.00    +0.127 A 
ATOM     26  C   UNL     1       4.267  -1.367  23.730  0.00  0.00    +0.127 A 
ATOM     32  C   UNL     1       6.227  -0.240  23.966  0.00  0.00    +0.221 A 
ENDBRANCH  21  23
ENDBRANCH  15   4
ENDBRANCH   9  15
BRANCH  11  16
ATOM     16  C   UNL     1      -4.824  -0.873  24.307  0.00  0.00    +0.103 C 
BRANCH  16  20
ATOM      1  O   UNL     1      -4.299   1.278  23.333  0.00  0.00    -0.276 OA
ATOM      5  N   UNL     1      -5.760   1.165  25.136  0.00  0.00    -0.311 N 
ATOM     20  C   UNL     1      -4.910   0.631  24.179  0.00  0.00    +0.214 C 
ATOM     35  H   UNL     1      -6.225   0.546  25.795  0.00  0.00    +0.149 HD
BRANCH   5  22
ATOM     22  C   UNL     1      -6.031   2.580  25.251  0.00  0.00    +0.139 C 
BRANCH  22  24
ATOM     24  C   UNL     1      -4.771   3.396  25.258  0.00  0.00    -0.030 A 
ATOM     27  C   UNL     1      -4.300   3.965  24.075  0.00  0.00    +0.009 A 
ATOM     28  C   UNL     1      -4.071   3.586  26.449  0.00  0.00    +0.009 A 
ATOM     29  C   UNL     1      -3.131   4.724  24.082  0.00  0.00    +0.046 A 
ATOM     30  C   UNL     1      -2.900   4.346  26.457  0.00  0.00    +0.046 A 
ATOM     31  C   UNL     1      -2.430   4.914  25.273  0.00  0.00    +0.120 A 
BRANCH  31   3
ATOM      3  O   UNL     1      -1.289   5.656  25.282  0.00  0.00    -0.495 OA
ATOM     33  C   UNL     1      -0.246   5.253  24.396  0.00  0.00    +0.277 C 
ENDBRANCH  31   3
ENDBRANCH  22  24
ENDBRANCH   5  22
ENDBRANCH  16  20
ENDBRANCH  11  16
TORSDOF 9
ENDMDL
MODEL 2
REMARK VINA RESULT:      -0.5      1.873      5.416
REMARK  Name = 38027816
REMARK  13 active torsions:
REMARK  status: ('A' for Active; 'I' for Inactive)
REMARK    1  A    between atoms: O_3  and  C_31
REMARK    2  A    between atoms: O_3  and  C_33
REMARK    3  A    between atoms: N_4  and  C_15
REMARK    4  A    between atoms: N_5  and  C_22
REMARK    5  A    between atoms: C_8  and  C_12
REMARK    6  A    between atoms: C_9  and  C_15
REMARK    7  A    between atoms: C_11  and  C_16
REMARK    8  A    between atoms: C_12  and  C_17
REMARK    9  A    between atoms: C_12  and  C_18
REMARK   10  A    between atoms: C_13  and  C_19
REMARK   11  A    between atoms: C_16  and  C_20
REMARK   12  A    between atoms: C_21  and  C_23
REMARK   13  A    between atoms: C_22  and  C_24
REMARK                            x       y       z     vdW  Elec       q    Type
REMARK                         _______ _______ _______ _____ _____    ______ ____
ROOT
ATOM      8  C   UNL     1      -2.783   2.092  24.215  0.00  0.00    +0.000 C 
ATOM      9  C   UNL     1      -1.753   2.090  23.058  0.00  0.00    +0.032 C 
ATOM     10  C   UNL     1      -3.053   3.528  24.689  0.00  0.00    +0.012 C 
ATOM     11  C   UNL     1      -1.773   4.233  25.174  0.00  0.00    +0.023 C 
ATOM     13  C   UNL     1      -0.625   4.046  24.203  0.00  0.00    -0.073 C 
ATOM     14  C   UNL     1      -0.639   3.091  23.255  0.00  0.00    -0.022 C 
ATOM     19  C   UNL     1       0.523   5.011  24.316  0.00  0.00    +0.039 C 
ENDROOT
BRANCH   8  12
ATOM     12  C   UNL     1      -4.098   1.425  23.806  0.00  0.00    -0.013 C 
ATOM     17  C   UNL     1      -5.056   1.366  24.991  0.00  0.00    +0.007 C 
ATOM     18  C   UNL     1      -3.837   0.028  23.252  0.00  0.00    +0.007 C 
ENDBRANCH   8  12
BRANCH   9  15
ATOM     15  C   UNL     1      -1.153   0.694  22.854  0.00  0.00    +0.112 C 
BRANCH  15   4
ATOM      2  O   UNL     1       0.899  -0.693  21.402  0.00  0.00    -0.270 OA
ATOM      4  N   UNL     1       0.246   0.695  23.144  0.00  0.00    -0.311 N 
ATOM     21  C   UNL     1       1.179  -0.010  22.383  0.00  0.00    +0.247 C 
ATOM     34  H   UNL     1       0.556   1.241  23.941  0.00  0.00    +0.149 HD
BRANCH  21  23
ATOM      6  N   UNL     1       4.537  -0.974  23.790  0.00  0.00    -0.243 NA
ATOM      7  N   UNL     1       4.615   1.342  23.129  0.00  0.00    -0.243 NA
ATOM     23  C   UNL     1       2.593   0.071  22.831  0.00  0.00    +0.073 A 
ATOM     25  C   UNL     1       3.255  -1.011  23.373  0.00  0.00    +0.127 A 
ATOM     26  C   UNL     1       3.330   1.233  22.731  0.00  0.00    +0.127 A 
ATOM     32  C   UNL     1       5.149   0.217  23.640  0.00  0.00    +0.221 A 
ENDBRANCH  21  23
ENDBRANCH  15   4
ENDBRANCH   9  15
BRANCH  11  16
ATOM     16  C   UNL     1      -1.383   3.765  26.580  0.00  0.00    +0.103 C 
BRANCH  16  20
ATOM      1  O   UNL     1       0.775   2.672  26.534  0.00  0.00    -0.276 OA
ATOM      5  N   UNL     1      -1.160   1.386  26.525  0.00  0.00    -0.311 N 
ATOM     20  C   UNL     1      -0.449   2.576  26.545  0.00  0.00    +0.214 C 
ATOM     35  H   UNL     1      -2.177   1.408  26.539  0.00  0.00    +0.149 HD
BRANCH   5  22
ATOM     22  C   UNL     1      -0.526   0.088  26.489  0.00  0.00    +0.139 C 
BRANCH  22  24
ATOM     24  C   UNL     1      -1.411  -0.955  25.870  0.00  0.00    -0.030 A 
ATOM     27  C   UNL     1      -2.749  -1.053  26.253  0.00  0.00    +0.009 A 
ATOM     28  C   UNL     1      -0.895  -1.825  24.909  0.00  0.00    +0.009 A 
ATOM     29  C   UNL     1      -3.570  -2.020  25.676  0.00  0.00    +0.046 A 
ATOM     30  C   UNL     1      -1.718  -2.793  24.332  0.00  0.00    +0.046 A 
ATOM     31  C   UNL     1      -3.055  -2.891  24.716  0.00  0.00    +0.120 A 
BRANCH  31   3
ATOM      3  O   UNL     1      -3.856  -3.835  24.152  0.00  0.00    -0.495 OA
ATOM     33  C   UNL     1      -4.861  -3.379  23.248  0.00  0.00    +0.277 C 
ENDBRANCH  31   3
ENDBRANCH  22  24
ENDBRANCH   5  22
ENDBRANCH  16  20
ENDBRANCH  11  16
TORSDOF 9
ENDMDL
MODEL 3
REMARK VINA RESULT:      -0.2      1.808      4.713
REMARK  Name = 38027816
REMARK  13 active torsions:
REMARK  status: ('A' for Active; 'I' for Inactive)
REMARK    1  A    between atoms: O_3  and  C_31
REMARK    2  A    between atoms: O_3  and  C_33
REMARK    3  A    between atoms: N_4  and  C_15
REMARK    4  A    between atoms: N_5  and  C_22
REMARK    5  A    between atoms: C_8  and  C_12
REMARK    6  A    between atoms: C_9  and  C_15
REMARK    7  A    between atoms: C_11  and  C_16
REMARK    8  A    between atoms: C_12  and  C_17
REMARK    9  A    between atoms: C_12  and  C_18
REMARK   10  A    between atoms: C_13  and  C_19
REMARK   11  A    between atoms: C_16  and  C_20
REMARK   12  A    between atoms: C_21  and  C_23
REMARK   13  A    between atoms: C_22  and  C_24
REMARK                            x       y       z     vdW  Elec       q    Type
REMARK                         _______ _______ _______ _____ _____    ______ ____
ROOT
ATOM      8  C   UNL     1      -2.793   2.435  23.833  0.00  0.00    +0.000 C 
ATOM      9  C   UNL     1      -1.505   2.585  24.680  0.00  0.00    +0.032 C 
ATOM     10  C   UNL     1      -3.579   3.755  23.814  0.00  0.00    +0.012 C 
ATOM     11  C   UNL     1      -3.977   4.217  25.229  0.00  0.00    +0.023 C 
ATOM     13  C   UNL     1      -2.813   4.136  26.195  0.00  0.00    -0.073 C 
ATOM     14  C   UNL     1      -1.711   3.412  25.927  0.00  0.00    -0.022 C 
ATOM     19  C   UNL     1      -2.924   4.943  27.459  0.00  0.00    +0.039 C 
ENDROOT
BRANCH   8  12
ATOM     12  C   UNL     1      -2.483   1.997  22.399  0.00  0.00    -0.013 C 
ATOM     17  C   UNL     1      -3.182   2.911  21.399  0.00  0.00    +0.007 C 
ATOM     18  C   UNL     1      -2.897   0.544  22.186  0.00  0.00    +0.007 C 
ENDBRANCH   8  12
BRANCH   9  15
ATOM     15  C   UNL     1      -0.934   1.215  25.065  0.00  0.00    +0.112 C 
BRANCH  15   4
ATOM      2  O   UNL     1       0.125  -0.431  22.965  0.00  0.00    -0.270 OA
ATOM      4  N   UNL     1       0.436   1.109  24.673  0.00  0.00    -0.311 N 
ATOM     21  C   UNL     1       0.866   0.280  23.637  0.00  0.00    +0.247 C 
ATOM     34  H   UNL     1       1.111   1.671  25.181  0.00  0.00    +0.149 HD
BRANCH  21  23
ATOM      6  N   UNL     1       4.320   1.371  22.603  0.00  0.00    -0.243 NA
ATOM      7  N   UNL     1       4.435  -0.902  23.393  0.00  0.00    -0.243 NA
ATOM     23  C   UNL     1       2.328   0.261  23.371  0.00  0.00    +0.073 A 
ATOM     25  C   UNL     1       2.995   1.353  22.858  0.00  0.00    +0.127 A 
ATOM     26  C   UNL     1       3.107  -0.851  23.623  0.00  0.00    +0.127 A 
ATOM     32  C   UNL     1       4.969   0.227  22.891  0.00  0.00    +0.221 A 
ENDBRANCH  21  23
ENDBRANCH  15   4
ENDBRANCH   9  15
BRANCH  11  16
ATOM     16  C   UNL     1      -5.179   3.424  25.751  0.00  0.00    +0.103 C 
BRANCH  16  20
ATOM      1  O   UNL     1      -5.999   2.320  23.761  0.00  0.00    -0.276 OA
ATOM      5  N   UNL     1      -5.149   1.046  25.508  0.00  0.00    -0.311 N 
ATOM     20  C   UNL     1      -5.497   2.231  24.878  0.00  0.00    +0.214 C 
ATOM     35  H   UNL     1      -4.735   1.074  26.435  0.00  0.00    +0.149 HD
BRANCH   5  22
ATOM     22  C   UNL     1      -5.341  -0.254  24.906  0.00  0.00    +0.139 C 
BRANCH  22  24
ATOM     24  C   UNL     1      -4.080  -1.068  24.909  0.00  0.00    -0.030 A 
ATOM     27  C   UNL     1      -3.952  -2.160  24.051  0.00  0.00    +0.009 A 
ATOM     28  C   UNL     1      -3.035  -0.731  25.769  0.00  0.00    +0.009 A 
ATOM     29  C   UNL     1      -2.780  -2.915  24.054  0.00  0.00    +0.046 A 
ATOM     30  C   UNL     1      -1.862  -1.486  25.771  0.00  0.00    +0.046 A 
ATOM     31  C   UNL     1      -1.735  -2.579  24.913  0.00  0.00    +0.120 A 
BRANCH  31   3
ATOM      3  O   UNL     1      -0.590  -3.315  24.916  0.00  0.00    -0.495 OA
ATOM     33  C   UNL     1       0.541  -2.755  25.580  0.00  0.00    +0.277 C 
ENDBRANCH  31   3
ENDBRANCH  22  24
ENDBRANCH   5  22
ENDBRANCH  16  20
ENDBRANCH  11  16
TORSDOF 9
ENDMDL
MODEL 4
REMARK VINA RESULT:      -0.1      1.811      4.905
REMARK  Name = 38027816
REMARK  13 active torsions:
REMARK  status: ('A' for Active; 'I' for Inactive)
REMARK    1  A    between atoms: O_3  and  C_31
REMARK    2  A    between atoms: O_3  and  C_33
REMARK    3  A    between atoms: N_4  and  C_15
REMARK    4  A    between atoms: N_5  and  C_22
REMARK    5  A    between atoms: C_8  and  C_12
REMARK    6  A    between atoms: C_9  and  C_15
REMARK    7  A    between atoms: C_11  and  C_16
REMARK    8  A    between atoms: C_12  and  C_17
REMARK    9  A    between atoms: C_12  and  C_18
REMARK   10  A    between atoms: C_13  and  C_19
REMARK   11  A    between atoms: C_16  and  C_20
REMARK   12  A    between atoms: C_21  and  C_23
REMARK   13  A    between atoms: C_22  and  C_24
REMARK                            x       y       z     vdW  Elec       q    Type
REMARK                         _______ _______ _______ _____ _____    ______ ____
ROOT
ATOM      8  C   UNL     1      -2.582   2.597  23.470  0.00  0.00    +0.000 C 
ATOM      9  C   UNL     1      -1.057   2.334  23.395  0.00  0.00    +0.032 C 
ATOM     10  C   UNL     1      -2.863   4.105  23.550  0.00  0.00    +0.012 C 
ATOM     11  C   UNL     1      -2.194   4.758  24.774  0.00  0.00    +0.023 C 
ATOM     13  C   UNL     1      -0.748   4.330  24.921  0.00  0.00    -0.073 C 
ATOM     14  C   UNL     1      -0.255   3.251  24.286  0.00  0.00    -0.022 C 
ATOM     19  C   UNL     1       0.131   5.197  25.779  0.00  0.00    +0.039 C 
ENDROOT
BRANCH   8  12
ATOM     12  C   UNL     1      -3.322   1.995  22.272  0.00  0.00    -0.013 C 
ATOM     17  C   UNL     1      -2.329   1.457  21.248  0.00  0.00    +0.007 C 
ATOM     18  C   UNL     1      -4.243   3.034  21.639  0.00  0.00    +0.007 C 
ENDBRANCH   8  12
BRANCH   9  15
ATOM     15  C   UNL     1      -0.730   0.876  23.736  0.00  0.00    +0.112 C 
BRANCH  15   4
ATOM      2  O   UNL     1       0.982  -0.364  21.794  0.00  0.00    -0.270 OA
ATOM      4  N   UNL     1       0.682   0.683  23.843  0.00  0.00    -0.311 N 
ATOM     21  C   UNL     1       1.441   0.068  22.847  0.00  0.00    +0.247 C 
ATOM     34  H   UNL     1       1.135   1.020  24.686  0.00  0.00    +0.149 HD
BRANCH  21  23
ATOM      6  N   UNL     1       4.742  -1.416  23.890  0.00  0.00    -0.243 NA
ATOM      7  N   UNL     1       5.118   0.837  23.122  0.00  0.00    -0.243 NA
ATOM     23  C   UNL     1       2.893  -0.080  23.122  0.00  0.00    +0.073 A 
ATOM     25  C   UNL     1       3.429  -1.246  23.629  0.00  0.00    +0.127 A 
ATOM     26  C   UNL     1       3.794   0.938  22.884  0.00  0.00    +0.127 A 
ATOM     32  C   UNL     1       5.519  -0.349  23.617  0.00  0.00    +0.221 A 
ENDBRANCH  21  23
ENDBRANCH  15   4
ENDBRANCH   9  15
BRANCH  11  16
ATOM     16  C   UNL     1      -2.984   4.469  26.055  0.00  0.00    +0.103 C 
BRANCH  16  20
ATOM      1  O   UNL     1      -5.331   4.177  25.544  0.00  0.00    -0.276 OA
ATOM      5  N   UNL     1      -3.983   2.308  25.839  0.00  0.00    -0.311 N 
ATOM     20  C   UNL     1      -4.238   3.669  25.782  0.00  0.00    +0.214 C 
ATOM     35  H   UNL     1      -3.041   1.982  26.041  0.00  0.00    +0.149 HD
BRANCH   5  22
ATOM     22  C   UNL     1      -4.998   1.304  25.619  0.00  0.00    +0.139 C 
BRANCH  22  24
ATOM     24  C   UNL     1      -4.409  -0.012  25.201  0.00  0.00    -0.030 A 
ATOM     27  C   UNL     1      -4.869  -0.649  24.049  0.00  0.00    +0.009 A 
ATOM     28  C   UNL     1      -3.398  -0.597  25.965  0.00  0.00    +0.009 A 
ATOM     29  C   UNL     1      -4.321  -1.870  23.661  0.00  0.00    +0.046 A 
ATOM     30  C   UNL     1      -2.849  -1.819  25.576  0.00  0.00    +0.046 A 
ATOM     31  C   UNL     1      -3.311  -2.456  24.424  0.00  0.00    +0.120 A 
BRANCH  31   3
ATOM      3  O   UNL     1      -2.774  -3.648  24.045  0.00  0.00    -0.495 OA
ATOM     33  C   UNL     1      -1.457  -3.622  23.498  0.00  0.00    +0.277 C 
ENDBRANCH  31   3
ENDBRANCH  22  24
ENDBRANCH   5  22
ENDBRANCH  16  20
ENDBRANCH  11  16
TORSDOF 9
ENDMDL
MODEL 5
REMARK VINA RESULT:       0.3      2.239      7.076
REMARK  Name = 38027816
REMARK  13 active torsions:
REMARK  status: ('A' for Active; 'I' for Inactive)
REMARK    1  A    between atoms: O_3  and  C_31
REMARK    2  A    between atoms: O_3  and  C_33
REMARK    3  A    between atoms: N_4  and  C_15
REMARK    4  A    between atoms: N_5  and  C_22
REMARK    5  A    between atoms: C_8  and  C_12
REMARK    6  A    between atoms: C_9  and  C_15
REMARK    7  A    between atoms: C_11  and  C_16
REMARK    8  A    between atoms: C_12  and  C_17
REMARK    9  A    between atoms: C_12  and  C_18
REMARK   10  A    between atoms: C_13  and  C_19
REMARK   11  A    between atoms: C_16  and  C_20
REMARK   12  A    between atoms: C_21  and  C_23
REMARK   13  A    between atoms: C_22  and  C_24
REMARK                            x       y       z     vdW  Elec       q    Type
REMARK                         _______ _______ _______ _____ _____    ______ ____
ROOT
ATOM      8  C   UNL     1      -3.829   3.268  25.697  0.00  0.00    +0.000 C 
ATOM      9  C   UNL     1      -3.745   3.883  24.278  0.00  0.00    +0.032 C 
ATOM     10  C   UNL     1      -3.009   4.102  26.692  0.00  0.00    +0.012 C 
ATOM     11  C   UNL     1      -1.526   4.198  26.290  0.00  0.00    +0.023 C 
ATOM     13  C   UNL     1      -1.361   4.541  24.823  0.00  0.00    -0.073 C 
ATOM     14  C   UNL     1      -2.368   4.406  23.941  0.00  0.00    -0.022 C 
ATOM     19  C   UNL     1      -0.025   5.085  24.401  0.00  0.00    +0.039 C 
ENDROOT
BRANCH   8  12
ATOM     12  C   UNL     1      -5.277   3.157  26.183  0.00  0.00    -0.013 C 
ATOM     17  C   UNL     1      -5.845   1.781  25.854  0.00  0.00    +0.007 C 
ATOM     18  C   UNL     1      -6.133   4.258  25.562  0.00  0.00    +0.007 C 
ENDBRANCH   8  12
BRANCH   9  15
ATOM     15  C   UNL     1      -4.182   2.873  23.211  0.00  0.00    +0.112 C 
BRANCH  15   4
ATOM      2  O   UNL     1      -2.513   0.858  22.028  0.00  0.00    -0.270 OA
ATOM      4  N   UNL     1      -4.002   1.534  23.675  0.00  0.00    -0.311 N 
ATOM     21  C   UNL     1      -3.168   0.615  23.038  0.00  0.00    +0.247 C 
ATOM     34  H   UNL     1      -4.509   1.259  24.510  0.00  0.00    +0.149 HD
BRANCH  21  23
ATOM      6  N   UNL     1      -4.226  -2.756  24.346  0.00  0.00    -0.243 NA
ATOM      7  N   UNL     1      -1.836  -2.555  24.575  0.00  0.00    -0.243 NA
ATOM     23  C   UNL     1      -3.111  -0.746  23.630  0.00  0.00    +0.073 A 
ATOM     25  C   UNL     1      -4.241  -1.517  23.811  0.00  0.00    +0.127 A 
ATOM     26  C   UNL     1      -1.924  -1.323  24.034  0.00  0.00    +0.127 A 
ATOM     32  C   UNL     1      -3.007  -3.207  24.700  0.00  0.00    +0.221 A 
ENDBRANCH  21  23
ENDBRANCH  15   4
ENDBRANCH   9  15
BRANCH  11  16
ATOM     16  C   UNL     1      -0.774   2.909  26.640  0.00  0.00    +0.103 C 
BRANCH  16  20
ATOM      1  O   UNL     1      -1.815   1.086  25.437  0.00  0.00    -0.276 OA
ATOM      5  N   UNL     1       0.212   1.941  24.689  0.00  0.00    -0.311 N 
ATOM     20  C   UNL     1      -0.880   1.874  25.542  0.00  0.00    +0.214 C 
ATOM     35  H   UNL     1       0.937   2.633  24.856  0.00  0.00    +0.149 HD
BRANCH   5  22
ATOM     22  C   UNL     1       0.377   1.068  23.549  0.00  0.00    +0.139 C 
BRANCH  22  24
ATOM     24  C   UNL     1       1.812   0.680  23.341  0.00  0.00    -0.030 A 
ATOM     27  C   UNL     1       2.206  -0.649  23.500  0.00  0.00    +0.009 A 
ATOM     28  C   UNL     1       2.751   1.648  22.985  0.00  0.00    +0.009 A 
ATOM     29  C   UNL     1       3.538  -1.009  23.305  0.00  0.00    +0.046 A 
ATOM     30  C   UNL     1       4.085   1.287  22.790  0.00  0.00    +0.046 A 
ATOM     31  C   UNL     1       4.478  -0.042  22.950  0.00  0.00    +0.120 A 
BRANCH  31   3
ATOM      3  O   UNL     1       5.779  -0.393  22.759  0.00  0.00    -0.495 OA
ATOM     33  C   UNL     1       6.699  -0.069  23.800  0.00  0.00    +0.277 C 
ENDBRANCH  31   3
ENDBRANCH  22  24
ENDBRANCH   5  22
ENDBRANCH  16  20
ENDBRANCH  11  16
TORSDOF 9
ENDMDL
MODEL 6
REMARK VINA RESULT:       0.4      1.862      3.500
REMARK  Name = 38027816
REMARK  13 active torsions:
REMARK  status: ('A' for Active; 'I' for Inactive)
REMARK    1  A    between atoms: O_3  and  C_31
REMARK    2  A    between atoms: O_3  and  C_33
REMARK    3  A    between atoms: N_4  and  C_15
REMARK    4  A    between atoms: N_5  and  C_22
REMARK    5  A    between atoms: C_8  and  C_12
REMARK    6  A    between atoms: C_9  and  C_15
REMARK    7  A    between atoms: C_11  and  C_16
REMARK    8  A    between atoms: C_12  and  C_17
REMARK    9  A    between atoms: C_12  and  C_18
REMARK   10  A    between atoms: C_13  and  C_19
REMARK   11  A    between atoms: C_16  and  C_20
REMARK   12  A    between atoms: C_21  and  C_23
REMARK   13  A    between atoms: C_22  and  C_24
REMARK                            x       y       z     vdW  Elec       q    Type
REMARK                         _______ _______ _______ _____ _____    ______ ____
ROOT
ATOM      8  C   UNL     1      -3.804  -0.653  25.155  0.00  0.00    +0.000 C 
ATOM      9  C   UNL     1      -2.580   0.007  24.473  0.00  0.00    +0.032 C 
ATOM     10  C   UNL     1      -5.085  -0.352  24.364  0.00  0.00    +0.012 C 
ATOM     11  C   UNL     1      -5.353   1.160  24.241  0.00  0.00    +0.023 C 
ATOM     13  C   UNL     1      -4.108   1.920  23.828  0.00  0.00    -0.073 C 
ATOM     14  C   UNL     1      -2.878   1.383  23.927  0.00  0.00    -0.022 C 
ATOM     19  C   UNL     1      -4.313   3.295  23.256  0.00  0.00    +0.039 C 
ENDROOT
BRANCH   8  12
ATOM     12  C   UNL     1      -3.627  -2.168  25.297  0.00  0.00    -0.013 C 
ATOM     17  C   UNL     1      -2.163  -2.511  25.553  0.00  0.00    +0.007 C 
ATOM     18  C   UNL     1      -4.139  -2.883  24.051  0.00  0.00    +0.007 C 
ENDBRANCH   8  12
BRANCH   9  15
ATOM     15  C   UNL     1      -1.388   0.087  25.434  0.00  0.00    +0.112 C 
BRANCH  15   4
ATOM      2  O   UNL     1      -0.348  -1.319  23.157  0.00  0.00    -0.270 OA
ATOM      4  N   UNL     1      -0.183   0.384  24.725  0.00  0.00    -0.311 N 
ATOM     21  C   UNL     1       0.251  -0.354  23.624  0.00  0.00    +0.247 C 
ATOM     34  H   UNL     1       0.366   1.174  25.050  0.00  0.00    +0.149 HD
BRANCH  21  23
ATOM      6  N   UNL     1       3.594   1.313  23.137  0.00  0.00    -0.243 NA
ATOM      7  N   UNL     1       3.097  -0.003  21.181  0.00  0.00    -0.243 NA
ATOM     23  C   UNL     1       1.539   0.066  23.014  0.00  0.00    +0.073 A 
ATOM     25  C   UNL     1       2.417   0.911  23.660  0.00  0.00    +0.127 A 
ATOM     26  C   UNL     1       1.936  -0.365  21.764  0.00  0.00    +0.127 A 
ATOM     32  C   UNL     1       3.867   0.824  21.912  0.00  0.00    +0.221 A 
ENDBRANCH  21  23
ENDBRANCH  15   4
ENDBRANCH   9  15
BRANCH  11  16
ATOM     16  C   UNL     1      -5.934   1.726  25.541  0.00  0.00    +0.103 C 
BRANCH  16  20
ATOM      1  O   UNL     1      -5.939   4.143  25.648  0.00  0.00    -0.276 OA
ATOM      5  N   UNL     1      -4.111   2.965  26.465  0.00  0.00    -0.311 N 
ATOM     20  C   UNL     1      -5.361   3.084  25.876  0.00  0.00    +0.214 C 
ATOM     35  H   UNL     1      -3.714   2.041  26.616  0.00  0.00    +0.149 HD
BRANCH   5  22
ATOM     22  C   UNL     1      -3.326   4.102  26.889  0.00  0.00    +0.139 C 
BRANCH  22  24
ATOM     24  C   UNL     1      -2.190   4.385  25.950  0.00  0.00    -0.030 A 
ATOM     27  C   UNL     1      -1.181   3.439  25.770  0.00  0.00    +0.009 A 
ATOM     28  C   UNL     1      -2.146   5.593  25.254  0.00  0.00    +0.009 A 
ATOM     29  C   UNL     1      -0.127   3.702  24.896  0.00  0.00    +0.046 A 
ATOM     30  C   UNL     1      -1.091   5.856  24.379  0.00  0.00    +0.046 A 
ATOM     31  C   UNL     1      -0.081   4.910  24.201  0.00  0.00    +0.120 A 
BRANCH  31   3
ATOM      3  O   UNL     1       0.947   5.167  23.347  0.00  0.00    -0.495 OA
ATOM     33  C   UNL     1       0.605   5.581  22.025  0.00  0.00    +0.277 C 
ENDBRANCH  31   3
ENDBRANCH  22  24
ENDBRANCH   5  22
ENDBRANCH  16  20
ENDBRANCH  11  16
TORSDOF 9
ENDMDL
