MODEL 1
REMARK VINA RESULT:       7.5      0.000      0.000
REMARK  Name = 45361713
REMARK  7 active torsions:
REMARK  status: ('A' for Active; 'I' for Inactive)
REMARK    1  A    between atoms: N_9  and  C_24
REMARK    2  A    between atoms: C_12  and  C_18
REMARK    3  A    between atoms: C_13  and  C_22
REMARK    4  A    between atoms: C_23  and  C_26
REMARK    5  A    between atoms: C_24  and  C_25
REMARK    6  A    between atoms: C_24  and  C_28
REMARK    7  A    between atoms: C_25  and  C_27
REMARK                            x       y       z     vdW  Elec       q    Type
REMARK                         _______ _______ _______ _____ _____    ______ ____
ROOT
ATOM      2  O   UNL     1      -3.460   1.115  23.006  0.00  0.00    -0.275 OA
ATOM      4  O   UNL     1       2.513  -2.283  25.063  0.00  0.00    -0.270 OA
ATOM      6  N   UNL     1      -1.755  -0.149  23.959  0.00  0.00    -0.287 N 
ATOM      7  N   UNL     1       0.853  -1.276  23.762  0.00  0.00    -0.294 N 
ATOM     13  C   UNL     1      -0.702   0.585  23.243  0.00  0.00    +0.179 C 
ATOM     16  C   UNL     1      -1.303  -1.167  24.923  0.00  0.00    +0.127 C 
ATOM     17  C   UNL     1       0.430  -0.310  22.740  0.00  0.00    +0.140 C 
ATOM     18  C   UNL     1      -3.084   0.262  23.814  0.00  0.00    +0.219 C 
ATOM     19  C   UNL     1      -0.233  -2.071  24.325  0.00  0.00    +0.127 C 
ATOM     23  C   UNL     1       2.161  -1.473  24.207  0.00  0.00    +0.247 C 
ENDROOT
BRANCH  23  26
ATOM      1  F   UNL     1       6.848  -0.337  23.710  0.00  0.00    -0.205 F 
ATOM     26  C   UNL     1       3.225  -0.655  23.612  0.00  0.00    +0.040 A 
ATOM     31  C   UNL     1       4.557  -0.889  23.951  0.00  0.00    +0.051 A 
ATOM     32  C   UNL     1       2.902   0.357  22.708  0.00  0.00    +0.013 A 
ATOM     35  C   UNL     1       5.568  -0.112  23.385  0.00  0.00    +0.124 A 
ATOM     36  C   UNL     1       3.913   1.136  22.143  0.00  0.00    +0.004 A 
ATOM     38  C   UNL     1       5.245   0.900  22.481  0.00  0.00    +0.038 A 
ENDBRANCH  23  26
BRANCH  18  12
ATOM      8  N   UNL     1      -3.823  -3.314  24.588  0.00  0.00    -0.316 NA
ATOM     12  C   UNL     1      -4.095  -0.397  24.710  0.00  0.00    +0.078 C 
ATOM     14  C   UNL     1      -5.047  -1.278  23.900  0.00  0.00    +0.028 C 
ATOM     15  C   UNL     1      -3.405  -1.205  25.810  0.00  0.00    +0.028 C 
ATOM     20  C   UNL     1      -4.389  -2.586  23.454  0.00  0.00    +0.081 C 
ATOM     21  C   UNL     1      -2.816  -2.515  25.284  0.00  0.00    +0.081 C 
ATOM     41  H   UNL     1      -3.397  -4.179  24.255  0.00  0.00    +0.122 HD
ENDBRANCH  18  12
BRANCH  13  22
ATOM      3  O   UNL     1       0.931   1.583  24.675  0.00  0.00    -0.274 OA
ATOM      9  N   UNL     1      -1.143   2.613  24.441  0.00  0.00    -0.302 N 
ATOM     22  C   UNL     1      -0.196   1.636  24.189  0.00  0.00    +0.236 C 
ATOM     42  H   UNL     1      -2.033   2.581  23.952  0.00  0.00    +0.150 HD
BRANCH   9  24
ATOM     24  C   UNL     1      -0.913   3.725  25.335  0.00  0.00    +0.163 C 
BRANCH  24  28
ATOM      5  O   UNL     1       0.413   4.689  23.540  0.00  0.00    -0.274 OA
ATOM     11  N   UNL     1      -0.784   6.100  24.903  0.00  0.00    -0.328 N 
ATOM     28  C   UNL     1      -0.336   4.859  24.500  0.00  0.00    +0.231 C 
ATOM     44  H   UNL     1      -0.484   6.941  24.422  0.00  0.00    +0.145 HD
ATOM     45  H   UNL     1      -1.419   6.224  25.684  0.00  0.00    +0.145 HD
ENDBRANCH  24  28
BRANCH  24  25
ATOM     25  C   UNL     1      -2.197   4.180  26.038  0.00  0.00    +0.069 C 
BRANCH  25  27
ATOM     10  N   UNL     1      -4.944   3.677  23.637  0.00  0.00    -0.360 N 
ATOM     27  C   UNL     1      -3.443   3.822  25.265  0.00  0.00    -0.020 A 
ATOM     29  C   UNL     1      -4.535   3.038  25.735  0.00  0.00    +0.003 A 
ATOM     30  C   UNL     1      -3.725   4.200  23.973  0.00  0.00    +0.087 A 
ATOM     33  C   UNL     1      -5.463   2.964  24.694  0.00  0.00    +0.047 A 
ATOM     34  C   UNL     1      -4.823   2.384  26.948  0.00  0.00    +0.010 A 
ATOM     37  C   UNL     1      -6.669   2.263  24.805  0.00  0.00    +0.026 A 
ATOM     39  C   UNL     1      -6.026   1.680  27.075  0.00  0.00    +0.001 A 
ATOM     40  C   UNL     1      -6.934   1.622  26.020  0.00  0.00    +0.002 A 
ATOM     43  H   UNL     1      -5.400   3.799  22.743  0.00  0.00    +0.165 HD
ENDBRANCH  25  27
ENDBRANCH  24  25
ENDBRANCH   9  24
ENDBRANCH  13  22
TORSDOF 7
ENDMDL
MODEL 2
REMARK VINA RESULT:       8.4      0.961      1.005
REMARK  Name = 45361713
REMARK  7 active torsions:
REMARK  status: ('A' for Active; 'I' for Inactive)
REMARK    1  A    between atoms: N_9  and  C_24
REMARK    2  A    between atoms: C_12  and  C_18
REMARK    3  A    between atoms: C_13  and  C_22
REMARK    4  A    between atoms: C_23  and  C_26
REMARK    5  A    between atoms: C_24  and  C_25
REMARK    6  A    between atoms: C_24  and  C_28
REMARK    7  A    between atoms: C_25  and  C_27
REMARK                            x       y       z     vdW  Elec       q    Type
REMARK                         _______ _______ _______ _____ _____    ______ ____
ROOT
ATOM      2  O   UNL     1      -3.590   1.102  23.107  0.00  0.00    -0.275 OA
ATOM      4  O   UNL     1       2.373  -2.427  24.964  0.00  0.00    -0.270 OA
ATOM      6  N   UNL     1      -1.890  -0.225  23.980  0.00  0.00    -0.287 N 
ATOM      7  N   UNL     1       0.722  -1.330  23.725  0.00  0.00    -0.294 N 
ATOM     13  C   UNL     1      -0.833   0.561  23.330  0.00  0.00    +0.179 C 
ATOM     16  C   UNL     1      -1.445  -1.310  24.871  0.00  0.00    +0.127 C 
ATOM     17  C   UNL     1       0.306  -0.292  22.773  0.00  0.00    +0.140 C 
ATOM     18  C   UNL     1      -3.220   0.193  23.854  0.00  0.00    +0.219 C 
ATOM     19  C   UNL     1      -0.367  -2.166  24.218  0.00  0.00    +0.127 C 
ATOM     23  C   UNL     1       2.027  -1.556  24.167  0.00  0.00    +0.247 C 
ENDROOT
BRANCH  23  26
ATOM      1  F   UNL     1       6.713  -0.371  23.807  0.00  0.00    -0.205 F 
ATOM     26  C   UNL     1       3.093  -0.694  23.644  0.00  0.00    +0.040 A 
ATOM     31  C   UNL     1       4.423  -0.947  23.981  0.00  0.00    +0.051 A 
ATOM     32  C   UNL     1       2.777   0.378  22.809  0.00  0.00    +0.013 A 
ATOM     35  C   UNL     1       5.437  -0.128  23.483  0.00  0.00    +0.124 A 
ATOM     36  C   UNL     1       3.790   1.197  22.312  0.00  0.00    +0.004 A 
ATOM     38  C   UNL     1       5.120   0.944  22.649  0.00  0.00    +0.038 A 
ENDBRANCH  23  26
BRANCH  18  12
ATOM      8  N   UNL     1      -3.746  -3.422  24.620  0.00  0.00    -0.316 NA
ATOM     12  C   UNL     1      -4.237  -0.532  24.689  0.00  0.00    +0.078 C 
ATOM     14  C   UNL     1      -5.067  -1.487  23.828  0.00  0.00    +0.028 C 
ATOM     15  C   UNL     1      -3.564  -1.279  25.841  0.00  0.00    +0.028 C 
ATOM     20  C   UNL     1      -4.287  -2.746  23.443  0.00  0.00    +0.081 C 
ATOM     21  C   UNL     1      -2.848  -2.546  25.371  0.00  0.00    +0.081 C 
ATOM     41  H   UNL     1      -3.238  -4.256  24.326  0.00  0.00    +0.122 HD
ENDBRANCH  18  12
BRANCH  13  22
ATOM      3  O   UNL     1       0.806   1.986  24.328  0.00  0.00    -0.274 OA
ATOM      9  N   UNL     1      -1.303   1.839  25.303  0.00  0.00    -0.302 N 
ATOM     22  C   UNL     1      -0.339   1.541  24.355  0.00  0.00    +0.236 C 
ATOM     42  H   UNL     1      -2.234   1.443  25.206  0.00  0.00    +0.150 HD
BRANCH   9  24
ATOM     24  C   UNL     1      -1.072   2.739  26.410  0.00  0.00    +0.163 C 
BRANCH  24  28
ATOM      5  O   UNL     1       0.781   4.076  25.579  0.00  0.00    -0.274 OA
ATOM     11  N   UNL     1       1.195   2.523  27.221  0.00  0.00    -0.328 N 
ATOM     28  C   UNL     1       0.380   3.187  26.327  0.00  0.00    +0.231 C 
ATOM     44  H   UNL     1       2.185   2.736  27.277  0.00  0.00    +0.145 HD
ATOM     45  H   UNL     1       0.847   1.807  27.848  0.00  0.00    +0.145 HD
ENDBRANCH  24  28
BRANCH  24  25
ATOM     25  C   UNL     1      -2.007   3.953  26.375  0.00  0.00    +0.069 C 
BRANCH  25  27
ATOM     10  N   UNL     1      -4.379   3.921  23.558  0.00  0.00    -0.360 N 
ATOM     27  C   UNL     1      -3.145   3.786  25.397  0.00  0.00    -0.020 A 
ATOM     29  C   UNL     1      -4.364   3.086  25.627  0.00  0.00    +0.003 A 
ATOM     30  C   UNL     1      -3.185   4.287  24.117  0.00  0.00    +0.087 A 
ATOM     33  C   UNL     1      -5.119   3.188  24.457  0.00  0.00    +0.047 A 
ATOM     34  C   UNL     1      -4.897   2.375  26.720  0.00  0.00    +0.010 A 
ATOM     37  C   UNL     1      -6.388   2.610  24.325  0.00  0.00    +0.026 A 
ATOM     39  C   UNL     1      -6.163   1.793  26.603  0.00  0.00    +0.001 A 
ATOM     40  C   UNL     1      -6.896   1.910  25.423  0.00  0.00    +0.002 A 
ATOM     43  H   UNL     1      -4.677   4.157  22.621  0.00  0.00    +0.165 HD
ENDBRANCH  25  27
ENDBRANCH  24  25
ENDBRANCH   9  24
ENDBRANCH  13  22
TORSDOF 7
ENDMDL
MODEL 3
REMARK VINA RESULT:       8.6      0.724      1.042
REMARK  Name = 45361713
REMARK  7 active torsions:
REMARK  status: ('A' for Active; 'I' for Inactive)
REMARK    1  A    between atoms: N_9  and  C_24
REMARK    2  A    between atoms: C_12  and  C_18
REMARK    3  A    between atoms: C_13  and  C_22
REMARK    4  A    between atoms: C_23  and  C_26
REMARK    5  A    between atoms: C_24  and  C_25
REMARK    6  A    between atoms: C_24  and  C_28
REMARK    7  A    between atoms: C_25  and  C_27
REMARK                            x       y       z     vdW  Elec       q    Type
REMARK                         _______ _______ _______ _____ _____    ______ ____
ROOT
ATOM      2  O   UNL     1      -3.403   1.158  22.877  0.00  0.00    -0.275 OA
ATOM      4  O   UNL     1       2.346  -2.446  25.205  0.00  0.00    -0.270 OA
ATOM      6  N   UNL     1      -1.790  -0.169  23.902  0.00  0.00    -0.287 N 
ATOM      7  N   UNL     1       0.790  -1.373  23.830  0.00  0.00    -0.294 N 
ATOM     13  C   UNL     1      -0.679   0.541  23.254  0.00  0.00    +0.179 C 
ATOM     16  C   UNL     1      -1.422  -1.211  24.876  0.00  0.00    +0.127 C 
ATOM     17  C   UNL     1       0.451  -0.383  22.801  0.00  0.00    +0.140 C 
ATOM     18  C   UNL     1      -3.097   0.285  23.692  0.00  0.00    +0.219 C 
ATOM     19  C   UNL     1      -0.349  -2.140  24.324  0.00  0.00    +0.127 C 
ATOM     23  C   UNL     1       2.065  -1.615  24.343  0.00  0.00    +0.247 C 
ENDROOT
BRANCH  23  26
ATOM      1  F   UNL     1       3.767   2.327  22.092  0.00  0.00    -0.205 F 
ATOM     26  C   UNL     1       3.183  -0.823  23.817  0.00  0.00    +0.040 A 
ATOM     31  C   UNL     1       2.939   0.399  23.191  0.00  0.00    +0.051 A 
ATOM     32  C   UNL     1       4.491  -1.293  23.943  0.00  0.00    +0.013 A 
ATOM     35  C   UNL     1       4.001   1.153  22.692  0.00  0.00    +0.124 A 
ATOM     36  C   UNL     1       5.554  -0.541  23.443  0.00  0.00    +0.004 A 
ATOM     38  C   UNL     1       5.309   0.682  22.818  0.00  0.00    +0.038 A 
ENDBRANCH  23  26
BRANCH  18  12
ATOM      8  N   UNL     1      -3.733  -3.245  24.727  0.00  0.00    -0.316 NA
ATOM     12  C   UNL     1      -4.175  -0.353  24.523  0.00  0.00    +0.078 C 
ATOM     14  C   UNL     1      -4.970  -1.366  23.698  0.00  0.00    +0.028 C 
ATOM     15  C   UNL     1      -3.583  -1.008  25.772  0.00  0.00    +0.028 C 
ATOM     20  C   UNL     1      -4.193  -2.663  23.467  0.00  0.00    +0.081 C 
ATOM     21  C   UNL     1      -2.864  -2.321  25.454  0.00  0.00    +0.081 C 
ATOM     41  H   UNL     1      -3.223  -4.107  24.534  0.00  0.00    +0.122 HD
ENDBRANCH  18  12
BRANCH  13  22
ATOM      3  O   UNL     1       0.891   1.456  24.806  0.00  0.00    -0.274 OA
ATOM      9  N   UNL     1      -1.108   2.586  24.427  0.00  0.00    -0.302 N 
ATOM     22  C   UNL     1      -0.193   1.565  24.240  0.00  0.00    +0.236 C 
ATOM     42  H   UNL     1      -1.960   2.598  23.874  0.00  0.00    +0.150 HD
BRANCH   9  24
ATOM     24  C   UNL     1      -0.890   3.684  25.341  0.00  0.00    +0.163 C 
BRANCH  24  28
ATOM      5  O   UNL     1       0.438   4.703  23.579  0.00  0.00    -0.274 OA
ATOM     11  N   UNL     1      -0.826   6.066  24.929  0.00  0.00    -0.328 N 
ATOM     28  C   UNL     1      -0.333   4.842  24.526  0.00  0.00    +0.231 C 
ATOM     44  H   UNL     1      -0.543   6.919  24.460  0.00  0.00    +0.145 HD
ATOM     45  H   UNL     1      -1.479   6.164  25.699  0.00  0.00    +0.145 HD
ENDBRANCH  24  28
BRANCH  24  25
ATOM     25  C   UNL     1      -2.178   4.108  26.056  0.00  0.00    +0.069 C 
BRANCH  25  27
ATOM     10  N   UNL     1      -4.906   3.642  23.626  0.00  0.00    -0.360 N 
ATOM     27  C   UNL     1      -3.421   3.767  25.270  0.00  0.00    -0.020 A 
ATOM     29  C   UNL     1      -4.531   3.002  25.729  0.00  0.00    +0.003 A 
ATOM     30  C   UNL     1      -3.682   4.146  23.974  0.00  0.00    +0.087 A 
ATOM     33  C   UNL     1      -5.447   2.939  24.678  0.00  0.00    +0.047 A 
ATOM     34  C   UNL     1      -4.843   2.355  26.941  0.00  0.00    +0.010 A 
ATOM     37  C   UNL     1      -6.666   2.258  24.778  0.00  0.00    +0.026 A 
ATOM     39  C   UNL     1      -6.057   1.670  27.056  0.00  0.00    +0.001 A 
ATOM     40  C   UNL     1      -6.954   1.624  25.990  0.00  0.00    +0.002 A 
ATOM     43  H   UNL     1      -5.350   3.769  22.726  0.00  0.00    +0.165 HD
ENDBRANCH  25  27
ENDBRANCH  24  25
ENDBRANCH   9  24
ENDBRANCH  13  22
TORSDOF 7
ENDMDL
MODEL 4
REMARK VINA RESULT:       9.1      1.929      4.306
REMARK  Name = 45361713
REMARK  7 active torsions:
REMARK  status: ('A' for Active; 'I' for Inactive)
REMARK    1  A    between atoms: N_9  and  C_24
REMARK    2  A    between atoms: C_12  and  C_18
REMARK    3  A    between atoms: C_13  and  C_22
REMARK    4  A    between atoms: C_23  and  C_26
REMARK    5  A    between atoms: C_24  and  C_25
REMARK    6  A    between atoms: C_24  and  C_28
REMARK    7  A    between atoms: C_25  and  C_27
REMARK                            x       y       z     vdW  Elec       q    Type
REMARK                         _______ _______ _______ _____ _____    ______ ____
ROOT
ATOM      2  O   UNL     1      -2.195   5.054  24.039  0.00  0.00    -0.275 OA
ATOM      4  O   UNL     1       0.654  -1.392  22.699  0.00  0.00    -0.270 OA
ATOM      6  N   UNL     1      -1.644   2.825  23.659  0.00  0.00    -0.287 N 
ATOM      7  N   UNL     1       0.202   0.901  22.659  0.00  0.00    -0.294 N 
ATOM     13  C   UNL     1      -0.202   3.079  23.775  0.00  0.00    +0.179 C 
ATOM     16  C   UNL     1      -2.050   1.421  23.479  0.00  0.00    +0.127 C 
ATOM     17  C   UNL     1       0.637   2.299  22.763  0.00  0.00    +0.140 C 
ATOM     18  C   UNL     1      -2.537   3.878  23.888  0.00  0.00    +0.219 C 
ATOM     19  C   UNL     1      -1.224   0.732  22.400  0.00  0.00    +0.127 C 
ATOM     23  C   UNL     1       1.022  -0.221  22.787  0.00  0.00    +0.247 C 
ENDROOT
BRANCH  23  26
ATOM      1  F   UNL     1       5.330  -1.828  24.322  0.00  0.00    -0.205 F 
ATOM     26  C   UNL     1       2.451  -0.007  23.045  0.00  0.00    +0.040 A 
ATOM     31  C   UNL     1       3.227  -1.040  23.572  0.00  0.00    +0.051 A 
ATOM     32  C   UNL     1       3.033   1.229  22.762  0.00  0.00    +0.013 A 
ATOM     35  C   UNL     1       4.585  -0.837  23.816  0.00  0.00    +0.124 A 
ATOM     36  C   UNL     1       4.391   1.432  23.008  0.00  0.00    +0.004 A 
ATOM     38  C   UNL     1       5.167   0.399  23.534  0.00  0.00    +0.038 A 
ENDBRANCH  23  26
BRANCH  18  12
ATOM      8  N   UNL     1      -4.913   3.389  26.725  0.00  0.00    -0.316 NA
ATOM     12  C   UNL     1      -3.997   3.525  23.943  0.00  0.00    +0.078 C 
ATOM     14  C   UNL     1      -4.209   2.199  24.674  0.00  0.00    +0.028 C 
ATOM     15  C   UNL     1      -4.804   4.647  24.599  0.00  0.00    +0.028 C 
ATOM     20  C   UNL     1      -4.047   2.340  26.189  0.00  0.00    +0.081 C 
ATOM     21  C   UNL     1      -4.617   4.686  26.116  0.00  0.00    +0.081 C 
ATOM     41  H   UNL     1      -4.781   3.452  27.734  0.00  0.00    +0.122 HD
ENDBRANCH  18  12
BRANCH  13  22
ATOM      3  O   UNL     1       0.866   3.490  25.873  0.00  0.00    -0.274 OA
ATOM      9  N   UNL     1      -0.311   1.504  25.579  0.00  0.00    -0.302 N 
ATOM     22  C   UNL     1       0.179   2.737  25.187  0.00  0.00    +0.236 C 
ATOM     42  H   UNL     1      -0.905   0.980  24.941  0.00  0.00    +0.150 HD
BRANCH   9  24
ATOM     24  C   UNL     1      -0.067   0.933  26.884  0.00  0.00    +0.163 C 
BRANCH  24  28
ATOM      5  O   UNL     1      -1.082   2.840  27.998  0.00  0.00    -0.274 OA
ATOM     11  N   UNL     1       0.984   2.126  28.705  0.00  0.00    -0.328 N 
ATOM     28  C   UNL     1      -0.127   2.074  27.889  0.00  0.00    +0.231 C 
ATOM     44  H   UNL     1       1.064   2.833  29.428  0.00  0.00    +0.145 HD
ATOM     45  H   UNL     1       1.755   1.473  28.619  0.00  0.00    +0.145 HD
ENDBRANCH  24  28
BRANCH  24  25
ATOM     25  C   UNL     1      -1.089  -0.151  27.244  0.00  0.00    +0.069 C 
BRANCH  25  27
ATOM     10  N   UNL     1      -0.886  -2.771  24.663  0.00  0.00    -0.360 N 
ATOM     27  C   UNL     1      -1.281  -1.162  26.139  0.00  0.00    -0.020 A 
ATOM     29  C   UNL     1      -2.481  -1.403  25.412  0.00  0.00    +0.003 A 
ATOM     30  C   UNL     1      -0.319  -2.017  25.656  0.00  0.00    +0.087 A 
ATOM     33  C   UNL     1      -2.205  -2.417  24.492  0.00  0.00    +0.047 A 
ATOM     34  C   UNL     1      -3.779  -0.856  25.449  0.00  0.00    +0.010 A 
ATOM     37  C   UNL     1      -3.165  -2.913  23.603  0.00  0.00    +0.026 A 
ATOM     39  C   UNL     1      -4.750  -1.341  24.566  0.00  0.00    +0.001 A 
ATOM     40  C   UNL     1      -4.446  -2.354  23.658  0.00  0.00    +0.002 A 
ATOM     43  H   UNL     1      -0.405  -3.482  24.130  0.00  0.00    +0.165 HD
ENDBRANCH  25  27
ENDBRANCH  24  25
ENDBRANCH   9  24
ENDBRANCH  13  22
TORSDOF 7
ENDMDL
MODEL 5
REMARK VINA RESULT:      10.5      2.249      7.394
REMARK  Name = 45361713
REMARK  7 active torsions:
REMARK  status: ('A' for Active; 'I' for Inactive)
REMARK    1  A    between atoms: N_9  and  C_24
REMARK    2  A    between atoms: C_12  and  C_18
REMARK    3  A    between atoms: C_13  and  C_22
REMARK    4  A    between atoms: C_23  and  C_26
REMARK    5  A    between atoms: C_24  and  C_25
REMARK    6  A    between atoms: C_24  and  C_28
REMARK    7  A    between atoms: C_25  and  C_27
REMARK                            x       y       z     vdW  Elec       q    Type
REMARK                         _______ _______ _______ _____ _____    ______ ____
ROOT
ATOM      2  O   UNL     1      -3.597   4.106  22.399  0.00  0.00    -0.275 OA
ATOM      4  O   UNL     1      -3.887  -1.672  26.640  0.00  0.00    -0.270 OA
ATOM      6  N   UNL     1      -3.639   2.493  24.075  0.00  0.00    -0.287 N 
ATOM      7  N   UNL     1      -4.264  -0.161  24.897  0.00  0.00    -0.294 N 
ATOM     13  C   UNL     1      -3.479   1.385  23.124  0.00  0.00    +0.179 C 
ATOM     16  C   UNL     1      -3.648   2.133  25.503  0.00  0.00    +0.127 C 
ATOM     17  C   UNL     1      -4.328   0.161  23.466  0.00  0.00    +0.140 C 
ATOM     18  C   UNL     1      -3.605   3.807  23.595  0.00  0.00    +0.219 C 
ATOM     19  C   UNL     1      -4.576   0.958  25.780  0.00  0.00    +0.127 C 
ATOM     23  C   UNL     1      -3.940  -1.405  25.440  0.00  0.00    +0.247 C 
ENDROOT
BRANCH  23  26
ATOM      1  F   UNL     1      -0.748  -4.140  23.025  0.00  0.00    -0.205 F 
ATOM     26  C   UNL     1      -3.636  -2.505  24.517  0.00  0.00    +0.040 A 
ATOM     31  C   UNL     1      -2.310  -2.805  24.203  0.00  0.00    +0.051 A 
ATOM     32  C   UNL     1      -4.672  -3.249  23.953  0.00  0.00    +0.013 A 
ATOM     35  C   UNL     1      -2.021  -3.851  23.326  0.00  0.00    +0.124 A 
ATOM     36  C   UNL     1      -4.383  -4.294  23.075  0.00  0.00    +0.004 A 
ATOM     38  C   UNL     1      -3.058  -4.595  22.762  0.00  0.00    +0.038 A 
ENDBRANCH  23  26
BRANCH  18  12
ATOM      8  N   UNL     1      -0.866   5.274  25.664  0.00  0.00    -0.316 NA
ATOM     12  C   UNL     1      -3.582   4.901  24.626  0.00  0.00    +0.078 C 
ATOM     14  C   UNL     1      -3.141   4.359  25.986  0.00  0.00    +0.028 C 
ATOM     15  C   UNL     1      -2.682   6.053  24.177  0.00  0.00    +0.028 C 
ATOM     20  C   UNL     1      -1.636   4.090  26.042  0.00  0.00    +0.081 C 
ATOM     21  C   UNL     1      -1.196   5.713  24.309  0.00  0.00    +0.081 C 
ATOM     41  H   UNL     1       0.130   5.059  25.716  0.00  0.00    +0.122 HD
ENDBRANCH  18  12
BRANCH  13  22
ATOM      3  O   UNL     1      -1.335   1.194  22.086  0.00  0.00    -0.274 OA
ATOM      9  N   UNL     1      -1.568   0.562  24.314  0.00  0.00    -0.302 N 
ATOM     22  C   UNL     1      -2.015   1.051  23.099  0.00  0.00    +0.236 C 
ATOM     42  H   UNL     1      -2.210   0.523  25.100  0.00  0.00    +0.150 HD
BRANCH   9  24
ATOM     24  C   UNL     1      -0.203   0.147  24.545  0.00  0.00    +0.163 C 
BRANCH  24  28
ATOM      5  O   UNL     1       0.327  -2.095  25.320  0.00  0.00    -0.274 OA
ATOM     11  N   UNL     1      -0.969  -0.748  26.656  0.00  0.00    -0.328 N 
ATOM     28  C   UNL     1      -0.250  -1.027  25.512  0.00  0.00    +0.231 C 
ATOM     44  H   UNL     1      -1.068  -1.442  27.389  0.00  0.00    +0.145 HD
ATOM     45  H   UNL     1      -1.422   0.146  26.811  0.00  0.00    +0.145 HD
ENDBRANCH  24  28
BRANCH  24  25
ATOM     25  C   UNL     1       0.508  -0.257  23.249  0.00  0.00    +0.069 C 
BRANCH  25  27
ATOM     10  N   UNL     1       3.538   1.781  22.773  0.00  0.00    -0.360 N 
ATOM     27  C   UNL     1       1.889   0.340  23.130  0.00  0.00    -0.020 A 
ATOM     29  C   UNL     1       3.124  -0.326  23.377  0.00  0.00    +0.003 A 
ATOM     30  C   UNL     1       2.178   1.632  22.760  0.00  0.00    +0.087 A 
ATOM     33  C   UNL     1       4.141   0.601  23.145  0.00  0.00    +0.047 A 
ATOM     34  C   UNL     1       3.473  -1.631  23.777  0.00  0.00    +0.010 A 
ATOM     37  C   UNL     1       5.497   0.288  23.294  0.00  0.00    +0.026 A 
ATOM     39  C   UNL     1       4.824  -1.959  23.930  0.00  0.00    +0.001 A 
ATOM     40  C   UNL     1       5.819  -1.013  23.691  0.00  0.00    +0.002 A 
ATOM     43  H   UNL     1       4.030   2.633  22.540  0.00  0.00    +0.165 HD
ENDBRANCH  25  27
ENDBRANCH  24  25
ENDBRANCH   9  24
ENDBRANCH  13  22
TORSDOF 7
ENDMDL
MODEL 6
REMARK VINA RESULT:      11.1      2.713      4.380
REMARK  Name = 45361713
REMARK  7 active torsions:
REMARK  status: ('A' for Active; 'I' for Inactive)
REMARK    1  A    between atoms: N_9  and  C_24
REMARK    2  A    between atoms: C_12  and  C_18
REMARK    3  A    between atoms: C_13  and  C_22
REMARK    4  A    between atoms: C_23  and  C_26
REMARK    5  A    between atoms: C_24  and  C_25
REMARK    6  A    between atoms: C_24  and  C_28
REMARK    7  A    between atoms: C_25  and  C_27
REMARK                            x       y       z     vdW  Elec       q    Type
REMARK                         _______ _______ _______ _____ _____    ______ ____
ROOT
ATOM      2  O   UNL     1      -3.996   1.990  22.961  0.00  0.00    -0.275 OA
ATOM      4  O   UNL     1       1.447  -2.171  25.089  0.00  0.00    -0.270 OA
ATOM      6  N   UNL     1      -2.472   0.540  23.956  0.00  0.00    -0.287 N 
ATOM      7  N   UNL     1      -0.090  -1.009  23.765  0.00  0.00    -0.294 N 
ATOM     13  C   UNL     1      -1.350   1.036  23.147  0.00  0.00    +0.179 C 
ATOM     16  C   UNL     1      -2.144  -0.461  24.986  0.00  0.00    +0.127 C 
ATOM     17  C   UNL     1      -0.401  -0.068  22.682  0.00  0.00    +0.140 C 
ATOM     18  C   UNL     1      -3.724   1.151  23.823  0.00  0.00    +0.219 C 
ATOM     19  C   UNL     1      -1.261  -1.570  24.429  0.00  0.00    +0.127 C 
ATOM     23  C   UNL     1       1.189  -1.382  24.181  0.00  0.00    +0.247 C 
ENDROOT
BRANCH  23  26
ATOM      1  F   UNL     1       5.941  -0.468  23.892  0.00  0.00    -0.205 F 
ATOM     26  C   UNL     1       2.341  -0.796  23.484  0.00  0.00    +0.040 A 
ATOM     31  C   UNL     1       3.619  -0.912  24.030  0.00  0.00    +0.051 A 
ATOM     32  C   UNL     1       2.156  -0.123  22.276  0.00  0.00    +0.013 A 
ATOM     35  C   UNL     1       4.714  -0.356  23.368  0.00  0.00    +0.124 A 
ATOM     36  C   UNL     1       3.251   0.435  21.615  0.00  0.00    +0.004 A 
ATOM     38  C   UNL     1       4.529   0.317  22.160  0.00  0.00    +0.038 A 
ENDBRANCH  23  26
BRANCH  18  12
ATOM      8  N   UNL     1      -6.155   3.091  25.888  0.00  0.00    -0.316 NA
ATOM     12  C   UNL     1      -4.784   0.736  24.804  0.00  0.00    +0.078 C 
ATOM     14  C   UNL     1      -4.485   1.292  26.197  0.00  0.00    +0.028 C 
ATOM     15  C   UNL     1      -6.170   1.174  24.326  0.00  0.00    +0.028 C 
ATOM     20  C   UNL     1      -4.785   2.789  26.300  0.00  0.00    +0.081 C 
ATOM     21  C   UNL     1      -6.398   2.675  24.508  0.00  0.00    +0.081 C 
ATOM     41  H   UNL     1      -6.319   4.094  25.973  0.00  0.00    +0.122 HD
ENDBRANCH  18  12
BRANCH  13  22
ATOM      3  O   UNL     1       0.571   2.249  23.889  0.00  0.00    -0.274 OA
ATOM      9  N   UNL     1      -1.496   2.712  24.854  0.00  0.00    -0.302 N 
ATOM     22  C   UNL     1      -0.639   2.060  23.985  0.00  0.00    +0.236 C 
ATOM     42  H   UNL     1      -2.490   2.505  24.821  0.00  0.00    +0.150 HD
BRANCH   9  24
ATOM     24  C   UNL     1      -1.056   3.727  25.784  0.00  0.00    +0.163 C 
BRANCH  24  28
ATOM      5  O   UNL     1      -3.050   5.074  26.134  0.00  0.00    -0.274 OA
ATOM     11  N   UNL     1      -1.397   5.892  24.763  0.00  0.00    -0.328 N 
ATOM     28  C   UNL     1      -1.958   4.937  25.586  0.00  0.00    +0.231 C 
ATOM     44  H   UNL     1      -1.890   6.755  24.557  0.00  0.00    +0.145 HD
ATOM     45  H   UNL     1      -0.485   5.775  24.334  0.00  0.00    +0.145 HD
ENDBRANCH  24  28
BRANCH  24  25
ATOM     25  C   UNL     1      -1.119   3.248  27.238  0.00  0.00    +0.069 C 
BRANCH  25  27
ATOM     10  N   UNL     1       2.382   2.313  27.897  0.00  0.00    -0.360 N 
ATOM     27  C   UNL     1       0.233   2.856  27.783  0.00  0.00    -0.020 A 
ATOM     29  C   UNL     1       0.563   2.629  29.149  0.00  0.00    +0.003 A 
ATOM     30  C   UNL     1       1.372   2.653  27.039  0.00  0.00    +0.087 A 
ATOM     33  C   UNL     1       1.916   2.290  29.192  0.00  0.00    +0.047 A 
ATOM     34  C   UNL     1      -0.162   2.681  30.356  0.00  0.00    +0.010 A 
ATOM     37  C   UNL     1       2.585   1.998  30.387  0.00  0.00    +0.026 A 
ATOM     39  C   UNL     1       0.492   2.392  31.558  0.00  0.00    +0.001 A 
ATOM     40  C   UNL     1       1.844   2.056  31.572  0.00  0.00    +0.002 A 
ATOM     43  H   UNL     1       3.332   2.106  27.621  0.00  0.00    +0.165 HD
ENDBRANCH  25  27
ENDBRANCH  24  25
ENDBRANCH   9  24
ENDBRANCH  13  22
TORSDOF 7
ENDMDL
MODEL 7
REMARK VINA RESULT:      11.4      1.924      4.742
REMARK  Name = 45361713
REMARK  7 active torsions:
REMARK  status: ('A' for Active; 'I' for Inactive)
REMARK    1  A    between atoms: N_9  and  C_24
REMARK    2  A    between atoms: C_12  and  C_18
REMARK    3  A    between atoms: C_13  and  C_22
REMARK    4  A    between atoms: C_23  and  C_26
REMARK    5  A    between atoms: C_24  and  C_25
REMARK    6  A    between atoms: C_24  and  C_28
REMARK    7  A    between atoms: C_25  and  C_27
REMARK                            x       y       z     vdW  Elec       q    Type
REMARK                         _______ _______ _______ _____ _____    ______ ____
ROOT
ATOM      2  O   UNL     1      -2.117   4.611  25.387  0.00  0.00    -0.275 OA
ATOM      4  O   UNL     1       0.753  -0.638  21.428  0.00  0.00    -0.270 OA
ATOM      6  N   UNL     1      -1.567   2.818  24.010  0.00  0.00    -0.287 N 
ATOM      7  N   UNL     1       0.395   1.406  22.505  0.00  0.00    -0.294 N 
ATOM     13  C   UNL     1      -0.181   2.766  24.497  0.00  0.00    +0.179 C 
ATOM     16  C   UNL     1      -1.966   1.768  23.057  0.00  0.00    +0.127 C 
ATOM     17  C   UNL     1       0.840   2.485  23.396  0.00  0.00    +0.140 C 
ATOM     18  C   UNL     1      -2.454   3.732  24.589  0.00  0.00    +0.219 C 
ATOM     19  C   UNL     1      -0.939   1.599  21.946  0.00  0.00    +0.127 C 
ATOM     23  C   UNL     1       1.128   0.265  22.175  0.00  0.00    +0.247 C 
ENDROOT
BRANCH  23  26
ATOM      1  F   UNL     1       4.523  -2.456  24.313  0.00  0.00    -0.205 F 
ATOM     26  C   UNL     1       2.467   0.111  22.757  0.00  0.00    +0.040 A 
ATOM     31  C   UNL     1       2.866  -1.124  23.269  0.00  0.00    +0.051 A 
ATOM     32  C   UNL     1       3.339   1.199  22.797  0.00  0.00    +0.013 A 
ATOM     35  C   UNL     1       4.139  -1.270  23.821  0.00  0.00    +0.124 A 
ATOM     36  C   UNL     1       4.611   1.052  23.350  0.00  0.00    +0.004 A 
ATOM     38  C   UNL     1       5.011  -0.182  23.861  0.00  0.00    +0.038 A 
ENDBRANCH  23  26
BRANCH  18  12
ATOM      8  N   UNL     1      -5.499   2.605  26.430  0.00  0.00    -0.316 NA
ATOM     12  C   UNL     1      -3.898   3.616  24.191  0.00  0.00    +0.078 C 
ATOM     14  C   UNL     1      -4.371   2.164  24.274  0.00  0.00    +0.028 C 
ATOM     15  C   UNL     1      -4.775   4.527  25.051  0.00  0.00    +0.028 C 
ATOM     20  C   UNL     1      -4.592   1.708  25.718  0.00  0.00    +0.081 C 
ATOM     21  C   UNL     1      -4.979   3.972  26.462  0.00  0.00    +0.081 C 
ATOM     41  H   UNL     1      -5.625   2.270  27.385  0.00  0.00    +0.122 HD
ENDBRANCH  18  12
BRANCH  13  22
ATOM      3  O   UNL     1      -0.139   2.002  26.761  0.00  0.00    -0.274 OA
ATOM      9  N   UNL     1      -0.095   0.434  25.042  0.00  0.00    -0.302 N 
ATOM     22  C   UNL     1      -0.144   1.713  25.567  0.00  0.00    +0.236 C 
ATOM     42  H   UNL     1      -0.145   0.308  24.035  0.00  0.00    +0.150 HD
BRANCH   9  24
ATOM     24  C   UNL     1      -0.030  -0.755  25.861  0.00  0.00    +0.163 C 
BRANCH  24  28
ATOM      5  O   UNL     1      -2.363  -0.442  26.470  0.00  0.00    -0.274 OA
ATOM     11  N   UNL     1      -0.869  -1.038  28.111  0.00  0.00    -0.328 N 
ATOM     28  C   UNL     1      -1.213  -0.705  26.817  0.00  0.00    +0.231 C 
ATOM     44  H   UNL     1      -1.567  -1.055  28.846  0.00  0.00    +0.145 HD
ATOM     45  H   UNL     1       0.080  -1.274  28.379  0.00  0.00    +0.145 HD
ENDBRANCH  24  28
BRANCH  24  25
ATOM     25  C   UNL     1      -0.074  -2.039  25.025  0.00  0.00    +0.069 C 
BRANCH  25  27
ATOM     10  N   UNL     1      -3.184  -4.005  25.185  0.00  0.00    -0.360 N 
ATOM     27  C   UNL     1      -1.460  -2.631  24.936  0.00  0.00    -0.020 A 
ATOM     29  C   UNL     1      -2.583  -2.061  24.272  0.00  0.00    +0.003 A 
ATOM     30  C   UNL     1      -1.862  -3.825  25.487  0.00  0.00    +0.087 A 
ATOM     33  C   UNL     1      -3.651  -2.944  24.443  0.00  0.00    +0.047 A 
ATOM     34  C   UNL     1      -2.794  -0.876  23.540  0.00  0.00    +0.010 A 
ATOM     37  C   UNL     1      -4.925  -2.700  23.918  0.00  0.00    +0.026 A 
ATOM     39  C   UNL     1      -4.062  -0.618  23.008  0.00  0.00    +0.001 A 
ATOM     40  C   UNL     1      -5.110  -1.518  23.195  0.00  0.00    +0.002 A 
ATOM     43  H   UNL     1      -3.739  -4.803  25.464  0.00  0.00    +0.165 HD
ENDBRANCH  25  27
ENDBRANCH  24  25
ENDBRANCH   9  24
ENDBRANCH  13  22
TORSDOF 7
ENDMDL
