MODEL 1
REMARK VINA RESULT:       9.4      0.000      0.000
REMARK  Name = 7672465
REMARK  4 active torsions:
REMARK  status: ('A' for Active; 'I' for Inactive)
REMARK    1  A    between atoms: O_4  and  C_25
REMARK    2  A    between atoms: O_4  and  C_34
REMARK    3  A    between atoms: N_7  and  C_21
REMARK    4  A    between atoms: C_18  and  C_20
REMARK                            x       y       z     vdW  Elec       q    Type
REMARK                         _______ _______ _______ _____ _____    ______ ____
ROOT
ATOM      2  O   UNL     1       0.103   2.332  25.848  0.00  0.00    -0.267 OA
ATOM      3  O   UNL     1      -4.145   0.117  26.517  0.00  0.00    -0.252 OA
ATOM      5  N   UNL     1      -1.840   2.984  24.732  0.00  0.00    -0.311 N 
ATOM      6  N   UNL     1      -4.714   1.848  25.097  0.00  0.00    -0.284 N 
ATOM      7  N   UNL     1      -4.098  -0.255  24.226  0.00  0.00    -0.266 N 
ATOM      8  C   UNL     1      -3.849   4.005  25.953  0.00  0.00    +0.027 C 
ATOM      9  C   UNL     1      -3.963   3.598  23.522  0.00  0.00    +0.054 C 
ATOM     10  C   UNL     1      -4.151   4.660  24.607  0.00  0.00    +0.018 C 
ATOM     11  C   UNL     1      -2.372   3.588  25.965  0.00  0.00    +0.130 C 
ATOM     12  C   UNL     1      -4.793   2.810  26.199  0.00  0.00    +0.114 C 
ATOM     13  C   UNL     1      -4.954   2.444  23.772  0.00  0.00    +0.119 C 
ATOM     14  C   UNL     1      -2.544   3.061  23.525  0.00  0.00    +0.027 A 
ATOM     15  C   UNL     1      -1.993   2.603  22.389  0.00  0.00    +0.022 A 
ATOM     16  C   UNL     1      -0.556   2.409  24.809  0.00  0.00    +0.260 A 
ATOM     17  C   UNL     1      -4.320   0.519  25.365  0.00  0.00    +0.307 C 
ATOM     18  C   UNL     1       0.011   1.865  23.527  0.00  0.00    +0.053 A 
ATOM     19  C   UNL     1      -0.693   1.993  22.394  0.00  0.00    +0.016 A 
ATOM     35  H   UNL     1      -3.820   0.220  23.374  0.00  0.00    +0.156 HD
ENDROOT
BRANCH  18  20
ATOM      1  S   UNL     1       1.390  -0.466  23.718  0.00  0.00    -0.088 S 
ATOM     20  C   UNL     1       1.288   1.226  23.510  0.00  0.00    +0.026 A 
ATOM     22  C   UNL     1       2.534   1.793  23.340  0.00  0.00    +0.024 A 
ATOM     23  C   UNL     1       3.600   0.832  23.380  0.00  0.00    -0.010 A 
ATOM     24  C   UNL     1       3.109  -0.461  23.583  0.00  0.00    +0.020 A 
ATOM     27  C   UNL     1       4.999   1.004  23.249  0.00  0.00    +0.009 A 
ATOM     28  C   UNL     1       3.971  -1.573  23.658  0.00  0.00    +0.015 A 
ATOM     31  C   UNL     1       5.857  -0.097  23.322  0.00  0.00    +0.001 A 
ATOM     32  C   UNL     1       5.345  -1.371  23.525  0.00  0.00    +0.001 A 
ENDBRANCH  18  20
BRANCH   7  21
ATOM     21  C   UNL     1      -4.160  -1.666  24.116  0.00  0.00    +0.077 A 
ATOM     25  C   UNL     1      -3.265  -2.470  24.818  0.00  0.00    +0.141 A 
ATOM     26  C   UNL     1      -5.129  -2.241  23.298  0.00  0.00    +0.027 A 
ATOM     29  C   UNL     1      -3.340  -3.859  24.699  0.00  0.00    +0.047 A 
ATOM     30  C   UNL     1      -5.204  -3.630  23.180  0.00  0.00    +0.002 A 
ATOM     33  C   UNL     1      -4.309  -4.438  23.880  0.00  0.00    +0.004 A 
BRANCH  25   4
ATOM      4  O   UNL     1      -2.310  -1.925  25.624  0.00  0.00    -0.493 OA
ATOM     34  C   UNL     1      -1.007  -1.767  25.067  0.00  0.00    +0.277 C 
ENDBRANCH  25   4
ENDBRANCH   7  21
TORSDOF 3
ENDMDL
