MODEL 1
REMARK VINA RESULT:      -3.1      0.000      0.000
REMARK  Name = 45784065
REMARK  6 active torsions:
REMARK  status: ('A' for Active; 'I' for Inactive)
REMARK    1  A    between atoms: O_2  and  C_15
REMARK    2  A    between atoms: O_2  and  C_20
REMARK    3  A    between atoms: O_3  and  C_18
REMARK    4  A    between atoms: O_3  and  C_21
REMARK    5  A    between atoms: C_7  and  C_11
REMARK    6  A    between atoms: C_12  and  C_15
REMARK                            x       y       z     vdW  Elec       q    Type
REMARK                         _______ _______ _______ _____ _____    ______ ____
ROOT
ATOM      5  N   UNL     1      -5.993 -10.689  15.421  0.00  0.00    -0.341 N 
ATOM      6  N   UNL     1      -4.429 -10.704  17.001  0.00  0.00    -0.232 NA
ATOM     11  C   UNL     1      -5.721 -10.724  16.762  0.00  0.00    +0.113 A 
ATOM     13  C   UNL     1      -4.797 -10.642  14.753  0.00  0.00    +0.070 A 
ATOM     14  C   UNL     1      -3.836 -10.653  15.761  0.00  0.00    +0.089 A 
ATOM     16  C   UNL     1      -4.482 -10.594  13.395  0.00  0.00    +0.073 A 
ATOM     17  C   UNL     1      -2.476 -10.612  15.410  0.00  0.00    +0.033 A 
ATOM     18  C   UNL     1      -3.124 -10.554  13.064  0.00  0.00    +0.122 A 
ATOM     19  C   UNL     1      -2.137 -10.563  14.052  0.00  0.00    +0.048 A 
ATOM     22  H   UNL     1      -6.911 -10.697  14.997  0.00  0.00    +0.167 HD
ENDROOT
BRANCH  11   7
ATOM      1  O   UNL     1     -10.550  -9.681  15.921  0.00  0.00    -0.273 OA
ATOM      4  N   UNL     1      -8.662  -9.373  17.217  0.00  0.00    -0.299 N 
ATOM      7  C   UNL     1      -6.835 -10.781  17.792  0.00  0.00    +0.074 C 
ATOM      8  C   UNL     1      -6.832  -9.540  18.698  0.00  0.00    +0.032 C 
ATOM      9  C   UNL     1      -8.270 -10.777  17.251  0.00  0.00    +0.119 C 
ATOM     10  C   UNL     1      -7.721  -8.544  17.963  0.00  0.00    +0.108 C 
ATOM     12  C   UNL     1      -9.786  -8.937  16.539  0.00  0.00    +0.241 C 
BRANCH  12  15
ATOM     15  C   UNL     1     -10.045  -7.453  16.596  0.00  0.00    +0.255 C 
BRANCH  15   2
ATOM      2  O   UNL     1     -10.719  -7.116  15.408  0.00  0.00    -0.374 OA
ATOM     20  C   UNL     1     -10.692  -5.713  15.155  0.00  0.00    +0.194 C 
ENDBRANCH  15   2
ENDBRANCH  12  15
ENDBRANCH  11   7
BRANCH  18   3
ATOM      3  O   UNL     1      -2.756 -10.505  11.752  0.00  0.00    -0.495 OA
ATOM     21  C   UNL     1      -3.641  -9.832  10.859  0.00  0.00    +0.277 C 
ENDBRANCH  18   3
TORSDOF 4
ENDMDL
MODEL 2
REMARK VINA RESULT:      -2.1     13.470     14.514
REMARK  Name = 45784065
REMARK  6 active torsions:
REMARK  status: ('A' for Active; 'I' for Inactive)
REMARK    1  A    between atoms: O_2  and  C_15
REMARK    2  A    between atoms: O_2  and  C_20
REMARK    3  A    between atoms: O_3  and  C_18
REMARK    4  A    between atoms: O_3  and  C_21
REMARK    5  A    between atoms: C_7  and  C_11
REMARK    6  A    between atoms: C_12  and  C_15
REMARK                            x       y       z     vdW  Elec       q    Type
REMARK                         _______ _______ _______ _____ _____    ______ ____
ROOT
ATOM      5  N   UNL     1      -0.710  -1.257  23.469  0.00  0.00    -0.341 N 
ATOM      6  N   UNL     1      -1.360   0.637  24.436  0.00  0.00    -0.232 NA
ATOM     11  C   UNL     1      -1.711  -0.590  24.120  0.00  0.00    +0.113 A 
ATOM     13  C   UNL     1       0.357  -0.404  23.358  0.00  0.00    +0.070 A 
ATOM     14  C   UNL     1      -0.072   0.771  23.969  0.00  0.00    +0.089 A 
ATOM     16  C   UNL     1       1.624  -0.555  22.793  0.00  0.00    +0.073 A 
ATOM     17  C   UNL     1       0.800   1.871  24.027  0.00  0.00    +0.033 A 
ATOM     18  C   UNL     1       2.479   0.550  22.860  0.00  0.00    +0.122 A 
ATOM     19  C   UNL     1       2.077   1.742  23.466  0.00  0.00    +0.048 A 
ATOM     22  H   UNL     1      -0.748  -2.210  23.131  0.00  0.00    +0.167 HD
ENDROOT
BRANCH  11   7
ATOM      1  O   UNL     1      -6.190   1.656  24.036  0.00  0.00    -0.273 OA
ATOM      4  N   UNL     1      -4.684   0.302  25.146  0.00  0.00    -0.299 N 
ATOM      7  C   UNL     1      -3.045  -1.256  24.410  0.00  0.00    +0.074 C 
ATOM      8  C   UNL     1      -3.276  -1.428  25.919  0.00  0.00    +0.032 C 
ATOM      9  C   UNL     1      -4.302  -0.488  23.981  0.00  0.00    +0.119 C 
ATOM     10  C   UNL     1      -3.964  -0.134  26.337  0.00  0.00    +0.108 C 
ATOM     12  C   UNL     1      -5.608   1.327  25.070  0.00  0.00    +0.241 C 
BRANCH  12  15
ATOM     15  C   UNL     1      -5.885   2.049  26.365  0.00  0.00    +0.255 C 
BRANCH  15   2
ATOM      2  O   UNL     1      -5.623   3.411  26.130  0.00  0.00    -0.374 OA
ATOM     20  C   UNL     1      -4.254   3.645  25.804  0.00  0.00    +0.194 C 
ENDBRANCH  15   2
ENDBRANCH  12  15
ENDBRANCH  11   7
BRANCH  18   3
ATOM      3  O   UNL     1       3.730   0.461  22.324  0.00  0.00    -0.495 OA
ATOM     21  C   UNL     1       4.820   0.375  23.238  0.00  0.00    +0.277 C 
ENDBRANCH  18   3
TORSDOF 4
ENDMDL
MODEL 3
REMARK VINA RESULT:      -1.4     14.557     15.700
REMARK  Name = 45784065
REMARK  6 active torsions:
REMARK  status: ('A' for Active; 'I' for Inactive)
REMARK    1  A    between atoms: O_2  and  C_15
REMARK    2  A    between atoms: O_2  and  C_20
REMARK    3  A    between atoms: O_3  and  C_18
REMARK    4  A    between atoms: O_3  and  C_21
REMARK    5  A    between atoms: C_7  and  C_11
REMARK    6  A    between atoms: C_12  and  C_15
REMARK                            x       y       z     vdW  Elec       q    Type
REMARK                         _______ _______ _______ _____ _____    ______ ____
ROOT
ATOM      5  N   UNL     1      -0.021   3.070  24.459  0.00  0.00    -0.341 N 
ATOM      6  N   UNL     1      -1.547   1.571  25.066  0.00  0.00    -0.232 NA
ATOM     11  C   UNL     1      -1.236   2.849  25.045  0.00  0.00    +0.113 A 
ATOM     13  C   UNL     1       0.486   1.855  24.076  0.00  0.00    +0.070 A 
ATOM     14  C   UNL     1      -0.485   0.936  24.464  0.00  0.00    +0.089 A 
ATOM     16  C   UNL     1       1.674   1.492  23.440  0.00  0.00    +0.073 A 
ATOM     17  C   UNL     1      -0.273  -0.430  24.214  0.00  0.00    +0.033 A 
ATOM     18  C   UNL     1       1.868   0.128  23.199  0.00  0.00    +0.122 A 
ATOM     19  C   UNL     1       0.913  -0.818  23.577  0.00  0.00    +0.048 A 
ATOM     22  H   UNL     1       0.426   3.968  24.328  0.00  0.00    +0.167 HD
ENDROOT
BRANCH  11   7
ATOM      1  O   UNL     1      -5.742   2.433  27.200  0.00  0.00    -0.273 OA
ATOM      4  N   UNL     1      -4.390   3.469  25.639  0.00  0.00    -0.299 N 
ATOM      7  C   UNL     1      -2.073   3.995  25.586  0.00  0.00    +0.074 C 
ATOM      8  C   UNL     1      -2.796   4.748  24.459  0.00  0.00    +0.032 C 
ATOM      9  C   UNL     1      -3.234   3.619  26.514  0.00  0.00    +0.119 C 
ATOM     10  C   UNL     1      -4.120   4.008  24.310  0.00  0.00    +0.108 C 
ATOM     12  C   UNL     1      -5.564   2.874  26.063  0.00  0.00    +0.241 C 
BRANCH  12  15
ATOM     15  C   UNL     1      -6.661   2.790  25.032  0.00  0.00    +0.255 C 
BRANCH  15   2
ATOM      2  O   UNL     1      -6.693   1.456  24.586  0.00  0.00    -0.374 OA
ATOM     20  C   UNL     1      -5.433   0.808  24.741  0.00  0.00    +0.194 C 
ENDBRANCH  15   2
ENDBRANCH  12  15
ENDBRANCH  11   7
BRANCH  18   3
ATOM      3  O   UNL     1       3.011  -0.285  22.581  0.00  0.00    -0.495 OA
ATOM     21  C   UNL     1       4.174   0.517  22.773  0.00  0.00    +0.277 C 
ENDBRANCH  18   3
TORSDOF 4
ENDMDL
MODEL 4
REMARK VINA RESULT:      -0.9     13.615     14.700
REMARK  Name = 45784065
REMARK  6 active torsions:
REMARK  status: ('A' for Active; 'I' for Inactive)
REMARK    1  A    between atoms: O_2  and  C_15
REMARK    2  A    between atoms: O_2  and  C_20
REMARK    3  A    between atoms: O_3  and  C_18
REMARK    4  A    between atoms: O_3  and  C_21
REMARK    5  A    between atoms: C_7  and  C_11
REMARK    6  A    between atoms: C_12  and  C_15
REMARK                            x       y       z     vdW  Elec       q    Type
REMARK                         _______ _______ _______ _____ _____    ______ ____
ROOT
ATOM      5  N   UNL     1       0.959   1.922  24.378  0.00  0.00    -0.341 N 
ATOM      6  N   UNL     1      -0.272   0.654  23.028  0.00  0.00    -0.232 NA
ATOM     11  C   UNL     1      -0.299   1.533  24.005  0.00  0.00    +0.113 A 
ATOM     13  C   UNL     1       1.855   1.249  23.589  0.00  0.00    +0.070 A 
ATOM     14  C   UNL     1       1.063   0.465  22.754  0.00  0.00    +0.089 A 
ATOM     16  C   UNL     1       3.250   1.258  23.533  0.00  0.00    +0.073 A 
ATOM     17  C   UNL     1       1.681  -0.366  21.805  0.00  0.00    +0.033 A 
ATOM     18  C   UNL     1       3.848   0.426  22.582  0.00  0.00    +0.122 A 
ATOM     19  C   UNL     1       3.080  -0.372  21.732  0.00  0.00    +0.048 A 
ATOM     22  H   UNL     1       1.189   2.588  25.104  0.00  0.00    +0.167 HD
ENDROOT
BRANCH  11   7
ATOM      1  O   UNL     1      -3.787  -1.130  26.424  0.00  0.00    -0.273 OA
ATOM      4  N   UNL     1      -3.276   0.489  24.858  0.00  0.00    -0.299 N 
ATOM      7  C   UNL     1      -1.533   2.097  24.687  0.00  0.00    +0.074 C 
ATOM      8  C   UNL     1      -2.638   2.428  23.672  0.00  0.00    +0.032 C 
ATOM      9  C   UNL     1      -2.264   1.165  25.661  0.00  0.00    +0.119 C 
ATOM     10  C   UNL     1      -3.435   1.134  23.559  0.00  0.00    +0.108 C 
ATOM     12  C   UNL     1      -3.959  -0.623  25.315  0.00  0.00    +0.241 C 
BRANCH  12  15
ATOM     15  C   UNL     1      -4.967  -1.206  24.358  0.00  0.00    +0.255 C 
BRANCH  15   2
ATOM      2  O   UNL     1      -4.274  -2.132  23.557  0.00  0.00    -0.374 OA
ATOM     20  C   UNL     1      -3.491  -3.034  24.336  0.00  0.00    +0.194 C 
ENDBRANCH  15   2
ENDBRANCH  12  15
ENDBRANCH  11   7
BRANCH  18   3
ATOM      3  O   UNL     1       5.208   0.394  22.484  0.00  0.00    -0.495 OA
ATOM     21  C   UNL     1       5.922  -0.162  23.585  0.00  0.00    +0.277 C 
ENDBRANCH  18   3
TORSDOF 4
ENDMDL
MODEL 5
REMARK VINA RESULT:      -0.3     14.213     15.194
REMARK  Name = 45784065
REMARK  6 active torsions:
REMARK  status: ('A' for Active; 'I' for Inactive)
REMARK    1  A    between atoms: O_2  and  C_15
REMARK    2  A    between atoms: O_2  and  C_20
REMARK    3  A    between atoms: O_3  and  C_18
REMARK    4  A    between atoms: O_3  and  C_21
REMARK    5  A    between atoms: C_7  and  C_11
REMARK    6  A    between atoms: C_12  and  C_15
REMARK                            x       y       z     vdW  Elec       q    Type
REMARK                         _______ _______ _______ _____ _____    ______ ____
ROOT
ATOM      5  N   UNL     1       0.779  -0.976  23.824  0.00  0.00    -0.341 N 
ATOM      6  N   UNL     1       0.314   1.158  23.409  0.00  0.00    -0.232 NA
ATOM     11  C   UNL     1      -0.185  -0.009  23.751  0.00  0.00    +0.113 A 
ATOM     13  C   UNL     1       1.979  -0.394  23.507  0.00  0.00    +0.070 A 
ATOM     14  C   UNL     1       1.663   0.938  23.253  0.00  0.00    +0.089 A 
ATOM     16  C   UNL     1       3.277  -0.902  23.425  0.00  0.00    +0.073 A 
ATOM     17  C   UNL     1       2.688   1.829  22.892  0.00  0.00    +0.033 A 
ATOM     18  C   UNL     1       4.284  -0.001  23.065  0.00  0.00    +0.122 A 
ATOM     19  C   UNL     1       3.997   1.340  22.804  0.00  0.00    +0.048 A 
ATOM     22  H   UNL     1       0.636  -1.947  24.069  0.00  0.00    +0.167 HD
ENDROOT
BRANCH  11   7
ATOM      1  O   UNL     1      -4.060   3.085  23.023  0.00  0.00    -0.273 OA
ATOM      4  N   UNL     1      -2.924   1.642  24.425  0.00  0.00    -0.299 N 
ATOM      7  C   UNL     1      -1.642  -0.323  24.047  0.00  0.00    +0.074 C 
ATOM      8  C   UNL     1      -1.955  -0.195  25.545  0.00  0.00    +0.032 C 
ATOM      9  C   UNL     1      -2.685   0.611  23.422  0.00  0.00    +0.119 C 
ATOM     10  C   UNL     1      -2.357   1.265  25.715  0.00  0.00    +0.108 C 
ATOM     12  C   UNL     1      -3.599   2.813  24.132  0.00  0.00    +0.241 C 
BRANCH  12  15
ATOM     15  C   UNL     1      -3.755   3.778  25.281  0.00  0.00    +0.255 C 
BRANCH  15   2
ATOM      2  O   UNL     1      -5.137   3.920  25.502  0.00  0.00    -0.374 OA
ATOM     20  C   UNL     1      -5.732   2.713  25.973  0.00  0.00    +0.194 C 
ENDBRANCH  15   2
ENDBRANCH  12  15
ENDBRANCH  11   7
BRANCH  18   3
ATOM      3  O   UNL     1       5.571  -0.443  22.968  0.00  0.00    -0.495 OA
ATOM     21  C   UNL     1       6.243  -0.745  24.188  0.00  0.00    +0.277 C 
ENDBRANCH  18   3
TORSDOF 4
ENDMDL
MODEL 6
REMARK VINA RESULT:      -0.1     13.702     15.374
REMARK  Name = 45784065
REMARK  6 active torsions:
REMARK  status: ('A' for Active; 'I' for Inactive)
REMARK    1  A    between atoms: O_2  and  C_15
REMARK    2  A    between atoms: O_2  and  C_20
REMARK    3  A    between atoms: O_3  and  C_18
REMARK    4  A    between atoms: O_3  and  C_21
REMARK    5  A    between atoms: C_7  and  C_11
REMARK    6  A    between atoms: C_12  and  C_15
REMARK                            x       y       z     vdW  Elec       q    Type
REMARK                         _______ _______ _______ _____ _____    ______ ____
ROOT
ATOM      5  N   UNL     1      -3.389   0.713  25.129  0.00  0.00    -0.341 N 
ATOM      6  N   UNL     1      -5.164  -0.327  24.285  0.00  0.00    -0.232 NA
ATOM     11  C   UNL     1      -4.695   0.816  24.735  0.00  0.00    +0.113 A 
ATOM     13  C   UNL     1      -2.989  -0.581  24.919  0.00  0.00    +0.070 A 
ATOM     14  C   UNL     1      -4.114  -1.210  24.391  0.00  0.00    +0.089 A 
ATOM     16  C   UNL     1      -1.777  -1.236  25.137  0.00  0.00    +0.073 A 
ATOM     17  C   UNL     1      -4.043  -2.573  24.058  0.00  0.00    +0.033 A 
ATOM     18  C   UNL     1      -1.724  -2.592  24.799  0.00  0.00    +0.122 A 
ATOM     19  C   UNL     1      -2.835  -3.251  24.269  0.00  0.00    +0.048 A 
ATOM     22  H   UNL     1      -2.818   1.458  25.506  0.00  0.00    +0.167 HD
ENDROOT
BRANCH  11   7
ATOM      1  O   UNL     1      -3.017   5.285  23.210  0.00  0.00    -0.273 OA
ATOM      4  N   UNL     1      -3.986   4.004  24.870  0.00  0.00    -0.299 N 
ATOM      7  C   UNL     1      -5.449   2.130  24.835  0.00  0.00    +0.074 C 
ATOM      8  C   UNL     1      -5.390   2.709  26.257  0.00  0.00    +0.032 C 
ATOM      9  C   UNL     1      -4.912   3.295  23.995  0.00  0.00    +0.119 C 
ATOM     10  C   UNL     1      -4.130   3.567  26.255  0.00  0.00    +0.108 C 
ATOM     12  C   UNL     1      -3.099   4.951  24.393  0.00  0.00    +0.241 C 
BRANCH  12  15
ATOM     15  C   UNL     1      -2.206   5.585  25.429  0.00  0.00    +0.255 C 
BRANCH  15   2
ATOM      2  O   UNL     1      -0.884   5.259  25.075  0.00  0.00    -0.374 OA
ATOM     20  C   UNL     1      -0.629   3.860  25.185  0.00  0.00    +0.194 C 
ENDBRANCH  15   2
ENDBRANCH  12  15
ENDBRANCH  11   7
BRANCH  18   3
ATOM      3  O   UNL     1      -0.565  -3.284  24.992  0.00  0.00    -0.495 OA
ATOM     21  C   UNL     1       0.555  -2.545  25.474  0.00  0.00    +0.277 C 
ENDBRANCH  18   3
TORSDOF 4
ENDMDL
MODEL 7
REMARK VINA RESULT:       0.4     14.085     15.100
REMARK  Name = 45784065
REMARK  6 active torsions:
REMARK  status: ('A' for Active; 'I' for Inactive)
REMARK    1  A    between atoms: O_2  and  C_15
REMARK    2  A    between atoms: O_2  and  C_20
REMARK    3  A    between atoms: O_3  and  C_18
REMARK    4  A    between atoms: O_3  and  C_21
REMARK    5  A    between atoms: C_7  and  C_11
REMARK    6  A    between atoms: C_12  and  C_15
REMARK                            x       y       z     vdW  Elec       q    Type
REMARK                         _______ _______ _______ _____ _____    ______ ____
ROOT
ATOM      5  N   UNL     1      -0.627   0.765  23.285  0.00  0.00    -0.341 N 
ATOM      6  N   UNL     1      -0.634  -1.310  24.082  0.00  0.00    -0.232 NA
ATOM     11  C   UNL     1      -1.377  -0.275  23.761  0.00  0.00    +0.113 A 
ATOM     13  C   UNL     1       0.687   0.374  23.300  0.00  0.00    +0.070 A 
ATOM     14  C   UNL     1       0.657  -0.925  23.801  0.00  0.00    +0.089 A 
ATOM     16  C   UNL     1       1.864   1.024  22.928  0.00  0.00    +0.073 A 
ATOM     17  C   UNL     1       1.863  -1.630  23.948  0.00  0.00    +0.033 A 
ATOM     18  C   UNL     1       3.055   0.307  23.081  0.00  0.00    +0.122 A 
ATOM     19  C   UNL     1       3.057  -0.996  23.581  0.00  0.00    +0.048 A 
ATOM     22  H   UNL     1      -0.977   1.662  22.974  0.00  0.00    +0.167 HD
ENDROOT
BRANCH  11   7
ATOM      1  O   UNL     1      -4.073   3.925  23.300  0.00  0.00    -0.273 OA
ATOM      4  N   UNL     1      -3.592   2.012  24.502  0.00  0.00    -0.299 N 
ATOM      7  C   UNL     1      -2.888  -0.171  23.876  0.00  0.00    +0.074 C 
ATOM      8  C   UNL     1      -3.346  -0.180  25.343  0.00  0.00    +0.032 C 
ATOM      9  C   UNL     1      -3.529   1.120  23.351  0.00  0.00    +0.119 C 
ATOM     10  C   UNL     1      -3.332   1.290  25.743  0.00  0.00    +0.108 C 
ATOM     12  C   UNL     1      -3.859   3.363  24.375  0.00  0.00    +0.241 C 
BRANCH  12  15
ATOM     15  C   UNL     1      -3.882   4.145  25.664  0.00  0.00    +0.255 C 
BRANCH  15   2
ATOM      2  O   UNL     1      -2.556   4.189  26.132  0.00  0.00    -0.374 OA
ATOM     20  C   UNL     1      -1.699   4.912  25.251  0.00  0.00    +0.194 C 
ENDBRANCH  15   2
ENDBRANCH  12  15
ENDBRANCH  11   7
BRANCH  18   3
ATOM      3  O   UNL     1       4.237   0.893  22.734  0.00  0.00    -0.495 OA
ATOM     21  C   UNL     1       5.409   0.421  23.394  0.00  0.00    +0.277 C 
ENDBRANCH  18   3
TORSDOF 4
ENDMDL
MODEL 8
REMARK VINA RESULT:       0.5     13.902     15.416
REMARK  Name = 45784065
REMARK  6 active torsions:
REMARK  status: ('A' for Active; 'I' for Inactive)
REMARK    1  A    between atoms: O_2  and  C_15
REMARK    2  A    between atoms: O_2  and  C_20
REMARK    3  A    between atoms: O_3  and  C_18
REMARK    4  A    between atoms: O_3  and  C_21
REMARK    5  A    between atoms: C_7  and  C_11
REMARK    6  A    between atoms: C_12  and  C_15
REMARK                            x       y       z     vdW  Elec       q    Type
REMARK                         _______ _______ _______ _____ _____    ______ ____
ROOT
ATOM      5  N   UNL     1      -2.208   0.859  24.997  0.00  0.00    -0.341 N 
ATOM      6  N   UNL     1      -0.052   0.352  24.801  0.00  0.00    -0.232 NA
ATOM     11  C   UNL     1      -0.919   1.315  25.024  0.00  0.00    +0.113 A 
ATOM     13  C   UNL     1      -2.170  -0.487  24.740  0.00  0.00    +0.070 A 
ATOM     14  C   UNL     1      -0.814  -0.780  24.622  0.00  0.00    +0.089 A 
ATOM     16  C   UNL     1      -3.175  -1.446  24.605  0.00  0.00    +0.073 A 
ATOM     17  C   UNL     1      -0.419  -2.101  24.352  0.00  0.00    +0.033 A 
ATOM     18  C   UNL     1      -2.764  -2.755  24.337  0.00  0.00    +0.122 A 
ATOM     19  C   UNL     1      -1.412  -3.079  24.213  0.00  0.00    +0.048 A 
ATOM     22  H   UNL     1      -3.042   1.413  25.143  0.00  0.00    +0.167 HD
ENDROOT
BRANCH  11   7
ATOM      1  O   UNL     1      -3.772   4.507  27.629  0.00  0.00    -0.273 OA
ATOM      4  N   UNL     1      -2.563   4.055  25.713  0.00  0.00    -0.299 N 
ATOM      7  C   UNL     1      -0.604   2.777  25.288  0.00  0.00    +0.074 C 
ATOM      8  C   UNL     1      -0.920   3.653  24.066  0.00  0.00    +0.032 C 
ATOM      9  C   UNL     1      -1.415   3.465  26.393  0.00  0.00    +0.119 C 
ATOM     10  C   UNL     1      -2.378   4.053  24.266  0.00  0.00    +0.108 C 
ATOM     12  C   UNL     1      -3.664   4.529  26.402  0.00  0.00    +0.241 C 
BRANCH  12  15
ATOM     15  C   UNL     1      -4.768   5.101  25.549  0.00  0.00    +0.255 C 
BRANCH  15   2
ATOM      2  O   UNL     1      -5.898   4.289  25.754  0.00  0.00    -0.374 OA
ATOM     20  C   UNL     1      -5.641   2.923  25.435  0.00  0.00    +0.194 C 
ENDBRANCH  15   2
ENDBRANCH  12  15
ENDBRANCH  11   7
BRANCH  18   3
ATOM      3  O   UNL     1      -3.703  -3.734  24.194  0.00  0.00    -0.495 OA
ATOM     21  C   UNL     1      -4.879  -3.398  23.461  0.00  0.00    +0.277 C 
ENDBRANCH  18   3
TORSDOF 4
ENDMDL
MODEL 9
REMARK VINA RESULT:       0.9     14.732     17.071
REMARK  Name = 45784065
REMARK  6 active torsions:
REMARK  status: ('A' for Active; 'I' for Inactive)
REMARK    1  A    between atoms: O_2  and  C_15
REMARK    2  A    between atoms: O_2  and  C_20
REMARK    3  A    between atoms: O_3  and  C_18
REMARK    4  A    between atoms: O_3  and  C_21
REMARK    5  A    between atoms: C_7  and  C_11
REMARK    6  A    between atoms: C_12  and  C_15
REMARK                            x       y       z     vdW  Elec       q    Type
REMARK                         _______ _______ _______ _____ _____    ______ ____
ROOT
ATOM      5  N   UNL     1      -1.634   0.560  23.817  0.00  0.00    -0.341 N 
ATOM      6  N   UNL     1       0.309   1.526  24.305  0.00  0.00    -0.232 NA
ATOM     11  C   UNL     1      -0.269   0.480  23.757  0.00  0.00    +0.113 A 
ATOM     13  C   UNL     1      -1.956   1.735  24.445  0.00  0.00    +0.070 A 
ATOM     14  C   UNL     1      -0.728   2.320  24.740  0.00  0.00    +0.089 A 
ATOM     16  C   UNL     1      -3.181   2.320  24.770  0.00  0.00    +0.073 A 
ATOM     17  C   UNL     1      -0.701   3.561  25.399  0.00  0.00    +0.033 A 
ATOM     18  C   UNL     1      -3.135   3.554  25.425  0.00  0.00    +0.122 A 
ATOM     19  C   UNL     1      -1.918   4.166  25.735  0.00  0.00    +0.048 A 
ATOM     22  H   UNL     1      -2.289  -0.123  23.461  0.00  0.00    +0.167 HD
ENDROOT
BRANCH  11   7
ATOM      1  O   UNL     1       4.460  -0.954  24.588  0.00  0.00    -0.273 OA
ATOM      4  N   UNL     1       2.788  -0.453  23.075  0.00  0.00    -0.299 N 
ATOM      7  C   UNL     1       0.425  -0.709  23.116  0.00  0.00    +0.074 C 
ATOM      8  C   UNL     1       0.882  -0.392  21.684  0.00  0.00    +0.032 C 
ATOM      9  C   UNL     1       1.730  -1.176  23.772  0.00  0.00    +0.119 C 
ATOM     10  C   UNL     1       2.283   0.180  21.861  0.00  0.00    +0.108 C 
ATOM     12  C   UNL     1       4.084  -0.400  23.554  0.00  0.00    +0.241 C 
BRANCH  12  15
ATOM     15  C   UNL     1       5.054   0.396  22.718  0.00  0.00    +0.255 C 
BRANCH  15   2
ATOM      2  O   UNL     1       6.253   0.468  23.451  0.00  0.00    -0.374 OA
ATOM     20  C   UNL     1       7.201  -0.509  23.026  0.00  0.00    +0.194 C 
ENDBRANCH  15   2
ENDBRANCH  12  15
ENDBRANCH  11   7
BRANCH  18   3
ATOM      3  O   UNL     1      -4.302   4.172  25.769  0.00  0.00    -0.495 OA
ATOM     21  C   UNL     1      -5.505   3.434  25.571  0.00  0.00    +0.277 C 
ENDBRANCH  18   3
TORSDOF 4
ENDMDL
