MODEL 1
REMARK VINA RESULT:       0.7      0.000      0.000
REMARK  Name = 7134327
REMARK  15 active torsions:
REMARK  status: ('A' for Active; 'I' for Inactive)
REMARK    1  A    between atoms: O_4  and  C_25
REMARK    2  A    between atoms: O_4  and  C_32
REMARK    3  A    between atoms: O_7  and  C_34
REMARK    4  A    between atoms: N_10  and  C_15
REMARK    5  A    between atoms: N_11  and  C_22
REMARK    6  A    between atoms: C_16  and  C_20
REMARK    7  A    between atoms: C_21  and  C_25
REMARK    8  A    between atoms: C_22  and  C_23
REMARK    9  A    between atoms: C_22  and  C_27
REMARK   10  A    between atoms: C_23  and  C_24
REMARK   11  A    between atoms: C_24  and  C_28
REMARK   12  A    between atoms: C_24  and  C_29
REMARK   13  A    between atoms: C_26  and  C_30
REMARK   14  A    between atoms: C_31  and  C_33
REMARK   15  A    between atoms: C_32  and  C_34
REMARK                            x       y       z     vdW  Elec       q    Type
REMARK                         _______ _______ _______ _____ _____    ______ ____
ROOT
ATOM      3  O   UNL     1      -3.146   4.687  26.545  0.00  0.00    -0.273 OA
ATOM      9  N   UNL     1      -2.078   3.126  25.187  0.00  0.00    -0.288 N 
ATOM     15  C   UNL     1       0.243   1.419  24.713  0.00  0.00    +0.077 C 
ATOM     16  C   UNL     1      -1.968   2.417  23.902  0.00  0.00    +0.164 C 
ATOM     17  C   UNL     1      -0.530   2.035  23.544  0.00  0.00    +0.054 C 
ATOM     18  C   UNL     1       0.140   2.313  25.947  0.00  0.00    +0.041 C 
ATOM     19  C   UNL     1      -1.316   2.569  26.312  0.00  0.00    +0.110 C 
ATOM     21  C   UNL     1      -2.960   4.185  25.433  0.00  0.00    +0.242 C 
ENDROOT
BRANCH  16  20
ATOM      2  O   UNL     1      -3.564   0.860  23.045  0.00  0.00    -0.274 OA
ATOM     11  N   UNL     1      -2.813   0.612  25.234  0.00  0.00    -0.302 N 
ATOM     20  C   UNL     1      -2.865   1.216  23.989  0.00  0.00    +0.234 C 
ATOM     36  H   UNL     1      -2.107   0.913  25.901  0.00  0.00    +0.150 HD
BRANCH  11  22
ATOM     22  C   UNL     1      -3.599  -0.549  25.583  0.00  0.00    +0.159 C 
BRANCH  22  27
ATOM      6  O   UNL     1      -5.609   0.031  24.344  0.00  0.00    -0.274 OA
ATOM     12  N   UNL     1      -4.380  -1.785  23.657  0.00  0.00    -0.328 N 
ATOM     27  C   UNL     1      -4.649  -0.721  24.493  0.00  0.00    +0.231 C 
ATOM     37  H   UNL     1      -3.571  -2.384  23.779  0.00  0.00    +0.145 HD
ATOM     38  H   UNL     1      -4.995  -2.002  22.879  0.00  0.00    +0.145 HD
ENDBRANCH  22  27
BRANCH  22  23
ATOM     23  C   UNL     1      -2.743  -1.816  25.703  0.00  0.00    +0.034 C 
BRANCH  23  24
ATOM     24  C   UNL     1      -1.445  -1.801  24.872  0.00  0.00    -0.015 C 
ATOM     28  C   UNL     1      -0.194  -1.914  25.744  0.00  0.00    +0.007 C 
ATOM     29  C   UNL     1      -1.469  -2.944  23.854  0.00  0.00    +0.007 C 
ENDBRANCH  23  24
ENDBRANCH  22  23
ENDBRANCH  11  22
ENDBRANCH  16  20
BRANCH  15  10
ATOM      5  O   UNL     1       1.192  -0.521  22.900  0.00  0.00    -0.270 OA
ATOM     10  N   UNL     1       1.624   1.201  24.358  0.00  0.00    -0.308 N 
ATOM     26  C   UNL     1       2.012   0.218  23.449  0.00  0.00    +0.254 C 
ATOM     35  H   UNL     1       2.328   1.825  24.743  0.00  0.00    +0.149 HD
BRANCH  26  30
ATOM      1  S   UNL     1       4.268   1.423  22.367  0.00  0.00    +0.041 S 
ATOM     13  N   UNL     1       5.682  -0.548  22.997  0.00  0.00    -0.146 NA
ATOM     14  N   UNL     1       5.748   0.638  22.413  0.00  0.00    -0.110 NA
ATOM     30  C   UNL     1       3.452   0.141  23.164  0.00  0.00    +0.117 A 
ATOM     31  C   UNL     1       4.394  -0.834  23.422  0.00  0.00    +0.081 A 
ATOM     33  C   UNL     1       4.154  -2.126  24.095  0.00  0.00    +0.069 C 
ENDBRANCH  26  30
ENDBRANCH  15  10
BRANCH  21  25
ATOM     25  C   UNL     1      -3.712   4.732  24.246  0.00  0.00    +0.256 C 
BRANCH  25   4
ATOM      4  O   UNL     1      -4.916   4.009  24.166  0.00  0.00    -0.359 OA
BRANCH   4  32
ATOM     32  C   UNL     1      -5.694   4.130  25.355  0.00  0.00    +0.280 C 
BRANCH  32  34
ATOM      8  O   UNL     1      -5.900   2.263  26.896  0.00  0.00    -0.248 OA
ATOM     34  C   UNL     1      -6.143   2.769  25.811  0.00  0.00    +0.331 C 
BRANCH  34   7
ATOM      7  O   UNL     1      -6.872   2.166  24.838  0.00  0.00    -0.479 OA
ATOM     39  H   UNL     1      -7.279   1.330  25.152  0.00  0.00    +0.295 HD
ENDBRANCH  34   7
ENDBRANCH  32  34
ENDBRANCH   4  32
ENDBRANCH  25   4
ENDBRANCH  21  25
TORSDOF 12
ENDMDL
MODEL 2
REMARK VINA RESULT:       1.5      1.853      4.822
REMARK  Name = 7134327
REMARK  15 active torsions:
REMARK  status: ('A' for Active; 'I' for Inactive)
REMARK    1  A    between atoms: O_4  and  C_25
REMARK    2  A    between atoms: O_4  and  C_32
REMARK    3  A    between atoms: O_7  and  C_34
REMARK    4  A    between atoms: N_10  and  C_15
REMARK    5  A    between atoms: N_11  and  C_22
REMARK    6  A    between atoms: C_16  and  C_20
REMARK    7  A    between atoms: C_21  and  C_25
REMARK    8  A    between atoms: C_22  and  C_23
REMARK    9  A    between atoms: C_22  and  C_27
REMARK   10  A    between atoms: C_23  and  C_24
REMARK   11  A    between atoms: C_24  and  C_28
REMARK   12  A    between atoms: C_24  and  C_29
REMARK   13  A    between atoms: C_26  and  C_30
REMARK   14  A    between atoms: C_31  and  C_33
REMARK   15  A    between atoms: C_32  and  C_34
REMARK                            x       y       z     vdW  Elec       q    Type
REMARK                         _______ _______ _______ _____ _____    ______ ____
ROOT
ATOM      3  O   UNL     1      -4.528  -0.379  23.217  0.00  0.00    -0.273 OA
ATOM      9  N   UNL     1      -2.666   0.555  24.259  0.00  0.00    -0.288 N 
ATOM     15  C   UNL     1       0.131   1.374  24.083  0.00  0.00    +0.077 C 
ATOM     16  C   UNL     1      -1.977   0.994  25.482  0.00  0.00    +0.164 C 
ATOM     17  C   UNL     1      -0.455   0.856  25.399  0.00  0.00    +0.054 C 
ATOM     18  C   UNL     1      -0.602   0.751  22.896  0.00  0.00    +0.041 C 
ATOM     19  C   UNL     1      -2.099   1.014  22.984  0.00  0.00    +0.110 C 
ATOM     21  C   UNL     1      -3.887  -0.131  24.242  0.00  0.00    +0.242 C 
ENDROOT
BRANCH  16  20
ATOM      2  O   UNL     1      -1.890   3.092  26.622  0.00  0.00    -0.274 OA
ATOM     11  N   UNL     1      -3.420   2.813  24.890  0.00  0.00    -0.302 N 
ATOM     20  C   UNL     1      -2.402   2.411  25.737  0.00  0.00    +0.234 C 
ATOM     36  H   UNL     1      -3.682   2.214  24.112  0.00  0.00    +0.150 HD
BRANCH  11  22
ATOM     22  C   UNL     1      -4.023   4.125  24.945  0.00  0.00    +0.159 C 
BRANCH  22  27
ATOM      6  O   UNL     1      -6.153   4.885  25.841  0.00  0.00    -0.274 OA
ATOM     12  N   UNL     1      -5.806   2.626  25.599  0.00  0.00    -0.328 N 
ATOM     27  C   UNL     1      -5.422   3.949  25.521  0.00  0.00    +0.231 C 
ATOM     37  H   UNL     1      -5.200   1.865  25.310  0.00  0.00    +0.145 HD
ATOM     38  H   UNL     1      -6.722   2.370  25.952  0.00  0.00    +0.145 HD
ENDBRANCH  22  27
BRANCH  22  23
ATOM     23  C   UNL     1      -3.213   5.101  25.806  0.00  0.00    +0.034 C 
BRANCH  23  24
ATOM     24  C   UNL     1      -2.194   5.958  25.029  0.00  0.00    -0.015 C 
ATOM     28  C   UNL     1      -0.851   5.249  24.852  0.00  0.00    +0.007 C 
ATOM     29  C   UNL     1      -2.767   6.326  23.658  0.00  0.00    +0.007 C 
ENDBRANCH  23  24
ENDBRANCH  22  23
ENDBRANCH  11  22
ENDBRANCH  16  20
BRANCH  15  10
ATOM      5  O   UNL     1       1.321  -0.781  22.707  0.00  0.00    -0.270 OA
ATOM     10  N   UNL     1       1.545   1.100  24.007  0.00  0.00    -0.308 N 
ATOM     26  C   UNL     1       2.055   0.010  23.303  0.00  0.00    +0.254 C 
ATOM     35  H   UNL     1       2.190   1.758  24.436  0.00  0.00    +0.149 HD
BRANCH  26  30
ATOM      1  S   UNL     1       4.292  -1.533  23.872  0.00  0.00    +0.041 S 
ATOM     13  N   UNL     1       5.811   0.266  23.015  0.00  0.00    -0.146 NA
ATOM     14  N   UNL     1       5.827  -0.947  23.545  0.00  0.00    -0.110 NA
ATOM     30  C   UNL     1       3.519  -0.117  23.290  0.00  0.00    +0.117 A 
ATOM     31  C   UNL     1       4.517   0.739  22.869  0.00  0.00    +0.081 A 
ATOM     33  C   UNL     1       4.329   2.085  22.291  0.00  0.00    +0.069 C 
ENDBRANCH  26  30
ENDBRANCH  15  10
BRANCH  21  25
ATOM     25  C   UNL     1      -4.424  -0.593  25.573  0.00  0.00    +0.256 C 
BRANCH  25   4
ATOM      4  O   UNL     1      -3.468  -1.476  26.106  0.00  0.00    -0.359 OA
BRANCH   4  32
ATOM     32  C   UNL     1      -3.289  -2.631  25.287  0.00  0.00    +0.280 C 
BRANCH  32  34
ATOM      8  O   UNL     1      -0.879  -2.334  25.366  0.00  0.00    -0.248 OA
ATOM     34  C   UNL     1      -1.883  -2.664  24.754  0.00  0.00    +0.331 C 
BRANCH  34   7
ATOM      7  O   UNL     1      -1.877  -3.122  23.477  0.00  0.00    -0.479 OA
ATOM     39  H   UNL     1      -2.593  -3.775  23.319  0.00  0.00    +0.295 HD
ENDBRANCH  34   7
ENDBRANCH  32  34
ENDBRANCH   4  32
ENDBRANCH  25   4
ENDBRANCH  21  25
TORSDOF 12
ENDMDL
MODEL 3
REMARK VINA RESULT:       1.8      1.639      4.643
REMARK  Name = 7134327
REMARK  15 active torsions:
REMARK  status: ('A' for Active; 'I' for Inactive)
REMARK    1  A    between atoms: O_4  and  C_25
REMARK    2  A    between atoms: O_4  and  C_32
REMARK    3  A    between atoms: O_7  and  C_34
REMARK    4  A    between atoms: N_10  and  C_15
REMARK    5  A    between atoms: N_11  and  C_22
REMARK    6  A    between atoms: C_16  and  C_20
REMARK    7  A    between atoms: C_21  and  C_25
REMARK    8  A    between atoms: C_22  and  C_23
REMARK    9  A    between atoms: C_22  and  C_27
REMARK   10  A    between atoms: C_23  and  C_24
REMARK   11  A    between atoms: C_24  and  C_28
REMARK   12  A    between atoms: C_24  and  C_29
REMARK   13  A    between atoms: C_26  and  C_30
REMARK   14  A    between atoms: C_31  and  C_33
REMARK   15  A    between atoms: C_32  and  C_34
REMARK                            x       y       z     vdW  Elec       q    Type
REMARK                         _______ _______ _______ _____ _____    ______ ____
ROOT
ATOM      3  O   UNL     1      -4.175  -0.591  23.334  0.00  0.00    -0.273 OA
ATOM      9  N   UNL     1      -2.352   0.508  24.277  0.00  0.00    -0.288 N 
ATOM     15  C   UNL     1       0.403   1.437  24.005  0.00  0.00    +0.077 C 
ATOM     16  C   UNL     1      -1.674   1.077  25.453  0.00  0.00    +0.164 C 
ATOM     17  C   UNL     1      -0.149   1.002  25.366  0.00  0.00    +0.054 C 
ATOM     18  C   UNL     1      -0.308   0.687  22.881  0.00  0.00    +0.041 C 
ATOM     19  C   UNL     1      -1.815   0.887  22.964  0.00  0.00    +0.110 C 
ATOM     21  C   UNL     1      -3.539  -0.232  24.329  0.00  0.00    +0.242 C 
ENDROOT
BRANCH  16  20
ATOM      2  O   UNL     1      -1.474   3.364  26.113  0.00  0.00    -0.274 OA
ATOM     11  N   UNL     1      -3.449   2.650  25.110  0.00  0.00    -0.302 N 
ATOM     20  C   UNL     1      -2.163   2.489  25.597  0.00  0.00    +0.234 C 
ATOM     36  H   UNL     1      -3.880   1.892  24.589  0.00  0.00    +0.150 HD
BRANCH  11  22
ATOM     22  C   UNL     1      -4.158   3.909  25.151  0.00  0.00    +0.159 C 
BRANCH  22  27
ATOM      6  O   UNL     1      -3.951   5.713  23.533  0.00  0.00    -0.274 OA
ATOM     12  N   UNL     1      -4.121   3.556  22.759  0.00  0.00    -0.328 N 
ATOM     27  C   UNL     1      -4.080   4.511  23.754  0.00  0.00    +0.231 C 
ATOM     37  H   UNL     1      -4.206   2.565  22.956  0.00  0.00    +0.145 HD
ATOM     38  H   UNL     1      -4.064   3.822  21.781  0.00  0.00    +0.145 HD
ENDBRANCH  22  27
BRANCH  22  23
ATOM     23  C   UNL     1      -5.621   3.739  25.576  0.00  0.00    +0.034 C 
BRANCH  23  24
ATOM     24  C   UNL     1      -6.068   2.279  25.785  0.00  0.00    -0.015 C 
ATOM     28  C   UNL     1      -6.861   2.091  27.080  0.00  0.00    +0.007 C 
ATOM     29  C   UNL     1      -6.913   1.821  24.593  0.00  0.00    +0.007 C 
ENDBRANCH  23  24
ENDBRANCH  22  23
ENDBRANCH  11  22
ENDBRANCH  16  20
BRANCH  15  10
ATOM      5  O   UNL     1       1.688  -0.689  22.669  0.00  0.00    -0.270 OA
ATOM     10  N   UNL     1       1.828   1.223  23.937  0.00  0.00    -0.308 N 
ATOM     26  C   UNL     1       2.386   0.144  23.253  0.00  0.00    +0.254 C 
ATOM     35  H   UNL     1       2.443   1.915  24.355  0.00  0.00    +0.149 HD
BRANCH  26  30
ATOM      1  S   UNL     1       4.798   1.419  22.734  0.00  0.00    +0.041 S 
ATOM     13  N   UNL     1       6.081  -0.610  23.453  0.00  0.00    -0.146 NA
ATOM     14  N   UNL     1       6.248   0.621  22.996  0.00  0.00    -0.110 NA
ATOM     30  C   UNL     1       3.855   0.080  23.245  0.00  0.00    +0.117 A 
ATOM     31  C   UNL     1       4.738  -0.921  23.595  0.00  0.00    +0.081 A 
ATOM     33  C   UNL     1       4.383  -2.265  24.096  0.00  0.00    +0.069 C 
ENDBRANCH  26  30
ENDBRANCH  15  10
BRANCH  21  25
ATOM     25  C   UNL     1      -4.045  -0.608  25.699  0.00  0.00    +0.256 C 
BRANCH  25   4
ATOM      4  O   UNL     1      -3.183  -1.608  26.184  0.00  0.00    -0.359 OA
BRANCH   4  32
ATOM     32  C   UNL     1      -3.125  -2.735  25.311  0.00  0.00    +0.280 C 
BRANCH  32  34
ATOM      8  O   UNL     1      -1.608  -3.144  23.457  0.00  0.00    -0.248 OA
ATOM     34  C   UNL     1      -1.799  -2.763  24.602  0.00  0.00    +0.331 C 
BRANCH  34   7
ATOM      7  O   UNL     1      -0.821  -2.296  25.419  0.00  0.00    -0.479 OA
ATOM     39  H   UNL     1      -0.315  -3.026  25.837  0.00  0.00    +0.295 HD
ENDBRANCH  34   7
ENDBRANCH  32  34
ENDBRANCH   4  32
ENDBRANCH  25   4
ENDBRANCH  21  25
TORSDOF 12
ENDMDL
MODEL 4
REMARK VINA RESULT:       1.8      1.510      4.129
REMARK  Name = 7134327
REMARK  15 active torsions:
REMARK  status: ('A' for Active; 'I' for Inactive)
REMARK    1  A    between atoms: O_4  and  C_25
REMARK    2  A    between atoms: O_4  and  C_32
REMARK    3  A    between atoms: O_7  and  C_34
REMARK    4  A    between atoms: N_10  and  C_15
REMARK    5  A    between atoms: N_11  and  C_22
REMARK    6  A    between atoms: C_16  and  C_20
REMARK    7  A    between atoms: C_21  and  C_25
REMARK    8  A    between atoms: C_22  and  C_23
REMARK    9  A    between atoms: C_22  and  C_27
REMARK   10  A    between atoms: C_23  and  C_24
REMARK   11  A    between atoms: C_24  and  C_28
REMARK   12  A    between atoms: C_24  and  C_29
REMARK   13  A    between atoms: C_26  and  C_30
REMARK   14  A    between atoms: C_31  and  C_33
REMARK   15  A    between atoms: C_32  and  C_34
REMARK                            x       y       z     vdW  Elec       q    Type
REMARK                         _______ _______ _______ _____ _____    ______ ____
ROOT
ATOM      3  O   UNL     1      -3.991  -2.875  24.612  0.00  0.00    -0.273 OA
ATOM      9  N   UNL     1      -2.476  -1.107  24.613  0.00  0.00    -0.288 N 
ATOM     15  C   UNL     1       0.143  -0.078  23.833  0.00  0.00    +0.077 C 
ATOM     16  C   UNL     1      -2.047   0.204  25.125  0.00  0.00    +0.164 C 
ATOM     17  C   UNL     1      -0.527   0.382  25.130  0.00  0.00    +0.054 C 
ATOM     18  C   UNL     1      -0.303  -1.495  23.480  0.00  0.00    +0.041 C 
ATOM     19  C   UNL     1      -1.820  -1.580  23.387  0.00  0.00    +0.110 C 
ATOM     21  C   UNL     1      -3.550  -1.844  25.126  0.00  0.00    +0.242 C 
ENDROOT
BRANCH  16  20
ATOM      2  O   UNL     1      -2.962   1.068  23.094  0.00  0.00    -0.274 OA
ATOM     11  N   UNL     1      -3.036   2.384  25.013  0.00  0.00    -0.302 N 
ATOM     20  C   UNL     1      -2.734   1.244  24.288  0.00  0.00    +0.234 C 
ATOM     36  H   UNL     1      -2.918   2.375  26.022  0.00  0.00    +0.150 HD
BRANCH  11  22
ATOM     22  C   UNL     1      -3.679   3.542  24.434  0.00  0.00    +0.159 C 
BRANCH  22  27
ATOM      6  O   UNL     1      -5.680   4.642  25.270  0.00  0.00    -0.274 OA
ATOM     12  N   UNL     1      -4.078   3.983  26.779  0.00  0.00    -0.328 N 
ATOM     27  C   UNL     1      -4.588   4.130  25.505  0.00  0.00    +0.231 C 
ATOM     37  H   UNL     1      -3.184   3.538  26.960  0.00  0.00    +0.145 HD
ATOM     38  H   UNL     1      -4.591   4.319  27.587  0.00  0.00    +0.145 HD
ENDBRANCH  22  27
BRANCH  22  23
ATOM     23  C   UNL     1      -2.667   4.592  23.960  0.00  0.00    +0.034 C 
BRANCH  23  24
ATOM     24  C   UNL     1      -1.340   4.612  24.743  0.00  0.00    -0.015 C 
ATOM     28  C   UNL     1      -0.243   3.801  24.053  0.00  0.00    +0.007 C 
ATOM     29  C   UNL     1      -0.872   6.058  24.930  0.00  0.00    +0.007 C 
ENDBRANCH  23  24
ENDBRANCH  22  23
ENDBRANCH  11  22
ENDBRANCH  16  20
BRANCH  15  10
ATOM      5  O   UNL     1       1.972  -0.236  21.692  0.00  0.00    -0.270 OA
ATOM     10  N   UNL     1       1.580  -0.009  23.944  0.00  0.00    -0.308 N 
ATOM     26  C   UNL     1       2.417  -0.095  22.833  0.00  0.00    +0.254 C 
ATOM     35  H   UNL     1       1.987   0.163  24.859  0.00  0.00    +0.149 HD
BRANCH  26  30
ATOM      1  S   UNL     1       4.697   1.488  22.799  0.00  0.00    +0.041 S 
ATOM     13  N   UNL     1       6.074  -0.390  23.724  0.00  0.00    -0.146 NA
ATOM     14  N   UNL     1       6.163   0.869  23.323  0.00  0.00    -0.110 NA
ATOM     30  C   UNL     1       3.856   0.025  23.104  0.00  0.00    +0.117 A 
ATOM     31  C   UNL     1       4.780  -0.871  23.604  0.00  0.00    +0.081 A 
ATOM     33  C   UNL     1       4.515  -2.265  24.011  0.00  0.00    +0.069 C 
ENDBRANCH  26  30
ENDBRANCH  15  10
BRANCH  21  25
ATOM     25  C   UNL     1      -4.184  -1.326  26.393  0.00  0.00    +0.256 C 
BRANCH  25   4
ATOM      4  O   UNL     1      -4.467   0.034  26.172  0.00  0.00    -0.359 OA
BRANCH   4  32
ATOM     32  C   UNL     1      -5.613   0.216  25.342  0.00  0.00    +0.280 C 
BRANCH  32  34
ATOM      8  O   UNL     1      -6.466   1.832  26.944  0.00  0.00    -0.248 OA
ATOM     34  C   UNL     1      -6.383   1.426  25.795  0.00  0.00    +0.331 C 
BRANCH  34   7
ATOM      7  O   UNL     1      -6.985   2.022  24.735  0.00  0.00    -0.479 OA
ATOM     39  H   UNL     1      -6.841   2.993  24.731  0.00  0.00    +0.295 HD
ENDBRANCH  34   7
ENDBRANCH  32  34
ENDBRANCH   4  32
ENDBRANCH  25   4
ENDBRANCH  21  25
TORSDOF 12
ENDMDL
MODEL 5
REMARK VINA RESULT:       2.3      1.138      1.680
REMARK  Name = 7134327
REMARK  15 active torsions:
REMARK  status: ('A' for Active; 'I' for Inactive)
REMARK    1  A    between atoms: O_4  and  C_25
REMARK    2  A    between atoms: O_4  and  C_32
REMARK    3  A    between atoms: O_7  and  C_34
REMARK    4  A    between atoms: N_10  and  C_15
REMARK    5  A    between atoms: N_11  and  C_22
REMARK    6  A    between atoms: C_16  and  C_20
REMARK    7  A    between atoms: C_21  and  C_25
REMARK    8  A    between atoms: C_22  and  C_23
REMARK    9  A    between atoms: C_22  and  C_27
REMARK   10  A    between atoms: C_23  and  C_24
REMARK   11  A    between atoms: C_24  and  C_28
REMARK   12  A    between atoms: C_24  and  C_29
REMARK   13  A    between atoms: C_26  and  C_30
REMARK   14  A    between atoms: C_31  and  C_33
REMARK   15  A    between atoms: C_32  and  C_34
REMARK                            x       y       z     vdW  Elec       q    Type
REMARK                         _______ _______ _______ _____ _____    ______ ____
ROOT
ATOM      3  O   UNL     1      -3.108   4.856  26.402  0.00  0.00    -0.273 OA
ATOM      9  N   UNL     1      -2.054   3.217  25.127  0.00  0.00    -0.288 N 
ATOM     15  C   UNL     1       0.296   1.542  24.684  0.00  0.00    +0.077 C 
ATOM     16  C   UNL     1      -1.981   2.406  23.901  0.00  0.00    +0.164 C 
ATOM     17  C   UNL     1      -0.549   2.037  23.507  0.00  0.00    +0.054 C 
ATOM     18  C   UNL     1       0.220   2.533  25.844  0.00  0.00    +0.041 C 
ATOM     19  C   UNL     1      -1.225   2.777  26.256  0.00  0.00    +0.110 C 
ATOM     21  C   UNL     1      -2.957   4.268  25.328  0.00  0.00    +0.242 C 
ENDROOT
BRANCH  16  20
ATOM      2  O   UNL     1      -4.060   1.249  24.104  0.00  0.00    -0.274 OA
ATOM     11  N   UNL     1      -2.079   0.061  24.385  0.00  0.00    -0.302 N 
ATOM     20  C   UNL     1      -2.834   1.193  24.129  0.00  0.00    +0.234 C 
ATOM     36  H   UNL     1      -1.071   0.100  24.257  0.00  0.00    +0.150 HD
BRANCH  11  22
ATOM     22  C   UNL     1      -2.661  -1.232  24.660  0.00  0.00    +0.159 C 
BRANCH  22  27
ATOM      6  O   UNL     1      -3.713  -1.843  26.766  0.00  0.00    -0.274 OA
ATOM     12  N   UNL     1      -1.593  -0.957  26.813  0.00  0.00    -0.328 N 
ATOM     27  C   UNL     1      -2.744  -1.371  26.174  0.00  0.00    +0.231 C 
ATOM     37  H   UNL     1      -0.792  -0.591  26.310  0.00  0.00    +0.145 HD
ATOM     38  H   UNL     1      -1.512  -1.010  27.823  0.00  0.00    +0.145 HD
ENDBRANCH  22  27
BRANCH  22  23
ATOM     23  C   UNL     1      -4.052  -1.389  24.034  0.00  0.00    +0.034 C 
BRANCH  23  24
ATOM     24  C   UNL     1      -4.275  -2.710  23.273  0.00  0.00    -0.015 C 
ATOM     28  C   UNL     1      -3.306  -3.808  23.715  0.00  0.00    +0.007 C 
ATOM     29  C   UNL     1      -5.717  -3.185  23.472  0.00  0.00    +0.007 C 
ENDBRANCH  23  24
ENDBRANCH  22  23
ENDBRANCH  11  22
ENDBRANCH  16  20
BRANCH  15  10
ATOM      5  O   UNL     1       1.247  -0.604  23.120  0.00  0.00    -0.270 OA
ATOM     10  N   UNL     1       1.666   1.334  24.282  0.00  0.00    -0.308 N 
ATOM     26  C   UNL     1       2.055   0.244  23.505  0.00  0.00    +0.254 C 
ATOM     35  H   UNL     1       2.356   2.038  24.529  0.00  0.00    +0.149 HD
BRANCH  26  30
ATOM      1  S   UNL     1       4.229   1.466  22.283  0.00  0.00    +0.041 S 
ATOM     13  N   UNL     1       5.712  -0.462  22.882  0.00  0.00    -0.146 NA
ATOM     14  N   UNL     1       5.724   0.711  22.270  0.00  0.00    -0.110 NA
ATOM     30  C   UNL     1       3.480   0.188  23.148  0.00  0.00    +0.117 A 
ATOM     31  C   UNL     1       4.453  -0.763  23.379  0.00  0.00    +0.081 A 
ATOM     33  C   UNL     1       4.273  -2.044  24.091  0.00  0.00    +0.069 C 
ENDBRANCH  26  30
ENDBRANCH  15  10
BRANCH  21  25
ATOM     25  C   UNL     1      -3.779   4.693  24.137  0.00  0.00    +0.256 C 
BRANCH  25   4
ATOM      4  O   UNL     1      -4.985   3.971  24.203  0.00  0.00    -0.359 OA
BRANCH   4  32
ATOM     32  C   UNL     1      -5.586   4.050  25.495  0.00  0.00    +0.280 C 
BRANCH  32  34
ATOM      8  O   UNL     1      -6.070   2.244  27.047  0.00  0.00    -0.248 OA
ATOM     34  C   UNL     1      -6.080   2.691  25.910  0.00  0.00    +0.331 C 
BRANCH  34   7
ATOM      7  O   UNL     1      -6.550   2.014  24.832  0.00  0.00    -0.479 OA
ATOM     39  H   UNL     1      -7.513   1.838  24.902  0.00  0.00    +0.295 HD
ENDBRANCH  34   7
ENDBRANCH  32  34
ENDBRANCH   4  32
ENDBRANCH  25   4
ENDBRANCH  21  25
TORSDOF 12
ENDMDL
MODEL 6
REMARK VINA RESULT:       2.3      1.129      1.917
REMARK  Name = 7134327
REMARK  15 active torsions:
REMARK  status: ('A' for Active; 'I' for Inactive)
REMARK    1  A    between atoms: O_4  and  C_25
REMARK    2  A    between atoms: O_4  and  C_32
REMARK    3  A    between atoms: O_7  and  C_34
REMARK    4  A    between atoms: N_10  and  C_15
REMARK    5  A    between atoms: N_11  and  C_22
REMARK    6  A    between atoms: C_16  and  C_20
REMARK    7  A    between atoms: C_21  and  C_25
REMARK    8  A    between atoms: C_22  and  C_23
REMARK    9  A    between atoms: C_22  and  C_27
REMARK   10  A    between atoms: C_23  and  C_24
REMARK   11  A    between atoms: C_24  and  C_28
REMARK   12  A    between atoms: C_24  and  C_29
REMARK   13  A    between atoms: C_26  and  C_30
REMARK   14  A    between atoms: C_31  and  C_33
REMARK   15  A    between atoms: C_32  and  C_34
REMARK                            x       y       z     vdW  Elec       q    Type
REMARK                         _______ _______ _______ _____ _____    ______ ____
ROOT
ATOM      3  O   UNL     1      -3.181   4.388  26.621  0.00  0.00    -0.273 OA
ATOM      9  N   UNL     1      -2.033   3.032  25.116  0.00  0.00    -0.288 N 
ATOM     15  C   UNL     1       0.297   1.367  24.549  0.00  0.00    +0.077 C 
ATOM     16  C   UNL     1      -1.837   2.528  23.748  0.00  0.00    +0.164 C 
ATOM     17  C   UNL     1      -0.381   2.174  23.438  0.00  0.00    +0.054 C 
ATOM     18  C   UNL     1       0.113   2.061  25.897  0.00  0.00    +0.041 C 
ATOM     19  C   UNL     1      -1.363   2.291  26.192  0.00  0.00    +0.110 C 
ATOM     21  C   UNL     1      -2.919   4.060  25.461  0.00  0.00    +0.242 C 
ENDROOT
BRANCH  16  20
ATOM      2  O   UNL     1      -3.954   1.486  23.377  0.00  0.00    -0.274 OA
ATOM     11  N   UNL     1      -2.082   0.144  23.714  0.00  0.00    -0.302 N 
ATOM     20  C   UNL     1      -2.752   1.349  23.583  0.00  0.00    +0.234 C 
ATOM     36  H   UNL     1      -1.067   0.144  23.757  0.00  0.00    +0.150 HD
BRANCH  11  22
ATOM     22  C   UNL     1      -2.739  -1.140  23.620  0.00  0.00    +0.159 C 
BRANCH  22  27
ATOM      6  O   UNL     1      -1.792  -3.379  23.665  0.00  0.00    -0.274 OA
ATOM     12  N   UNL     1      -0.639  -1.678  24.692  0.00  0.00    -0.328 N 
ATOM     27  C   UNL     1      -1.708  -2.197  23.992  0.00  0.00    +0.231 C 
ATOM     37  H   UNL     1      -0.572  -0.695  24.936  0.00  0.00    +0.145 HD
ATOM     38  H   UNL     1       0.127  -2.274  24.989  0.00  0.00    +0.145 HD
ENDBRANCH  22  27
BRANCH  22  23
ATOM     23  C   UNL     1      -3.958  -1.237  24.545  0.00  0.00    +0.034 C 
BRANCH  23  24
ATOM     24  C   UNL     1      -3.742  -0.672  25.963  0.00  0.00    -0.015 C 
ATOM     28  C   UNL     1      -4.984   0.038  26.503  0.00  0.00    +0.007 C 
ATOM     29  C   UNL     1      -3.341  -1.802  26.915  0.00  0.00    +0.007 C 
ENDBRANCH  23  24
ENDBRANCH  22  23
ENDBRANCH  11  22
ENDBRANCH  16  20
BRANCH  15  10
ATOM      5  O   UNL     1       1.375  -0.575  22.811  0.00  0.00    -0.270 OA
ATOM     10  N   UNL     1       1.698   1.175  24.263  0.00  0.00    -0.308 N 
ATOM     26  C   UNL     1       2.151   0.189  23.388  0.00  0.00    +0.254 C 
ATOM     35  H   UNL     1       2.369   1.819  24.673  0.00  0.00    +0.149 HD
BRANCH  26  30
ATOM      1  S   UNL     1       4.437   1.450  22.442  0.00  0.00    +0.041 S 
ATOM     13  N   UNL     1       5.851  -0.509  23.105  0.00  0.00    -0.146 NA
ATOM     14  N   UNL     1       5.925   0.689  22.547  0.00  0.00    -0.110 NA
ATOM     30  C   UNL     1       3.604   0.141  23.173  0.00  0.00    +0.117 A 
ATOM     31  C   UNL     1       4.548  -0.824  23.460  0.00  0.00    +0.081 A 
ATOM     33  C   UNL     1       4.297  -2.132  24.097  0.00  0.00    +0.069 C 
ENDBRANCH  26  30
ENDBRANCH  15  10
BRANCH  21  25
ATOM     25  C   UNL     1      -3.575   4.801  24.323  0.00  0.00    +0.256 C 
BRANCH  25   4
ATOM      4  O   UNL     1      -4.832   4.202  24.125  0.00  0.00    -0.359 OA
BRANCH   4  32
ATOM     32  C   UNL     1      -5.631   4.231  25.307  0.00  0.00    +0.280 C 
BRANCH  32  34
ATOM      8  O   UNL     1      -6.561   2.067  24.709  0.00  0.00    -0.248 OA
ATOM     34  C   UNL     1      -6.212   2.868  25.563  0.00  0.00    +0.331 C 
BRANCH  34   7
ATOM      7  O   UNL     1      -6.296   2.638  26.898  0.00  0.00    -0.479 OA
ATOM     39  H   UNL     1      -5.459   2.857  27.360  0.00  0.00    +0.295 HD
ENDBRANCH  34   7
ENDBRANCH  32  34
ENDBRANCH   4  32
ENDBRANCH  25   4
ENDBRANCH  21  25
TORSDOF 12
ENDMDL
MODEL 7
REMARK VINA RESULT:       2.6      1.374      1.879
REMARK  Name = 7134327
REMARK  15 active torsions:
REMARK  status: ('A' for Active; 'I' for Inactive)
REMARK    1  A    between atoms: O_4  and  C_25
REMARK    2  A    between atoms: O_4  and  C_32
REMARK    3  A    between atoms: O_7  and  C_34
REMARK    4  A    between atoms: N_10  and  C_15
REMARK    5  A    between atoms: N_11  and  C_22
REMARK    6  A    between atoms: C_16  and  C_20
REMARK    7  A    between atoms: C_21  and  C_25
REMARK    8  A    between atoms: C_22  and  C_23
REMARK    9  A    between atoms: C_22  and  C_27
REMARK   10  A    between atoms: C_23  and  C_24
REMARK   11  A    between atoms: C_24  and  C_28
REMARK   12  A    between atoms: C_24  and  C_29
REMARK   13  A    between atoms: C_26  and  C_30
REMARK   14  A    between atoms: C_31  and  C_33
REMARK   15  A    between atoms: C_32  and  C_34
REMARK                            x       y       z     vdW  Elec       q    Type
REMARK                         _______ _______ _______ _____ _____    ______ ____
ROOT
ATOM      3  O   UNL     1      -2.760   5.023  26.548  0.00  0.00    -0.273 OA
ATOM      9  N   UNL     1      -1.807   3.396  25.182  0.00  0.00    -0.288 N 
ATOM     15  C   UNL     1       0.301   1.417  24.772  0.00  0.00    +0.077 C 
ATOM     16  C   UNL     1      -1.696   2.737  23.870  0.00  0.00    +0.164 C 
ATOM     17  C   UNL     1      -0.298   2.184  23.589  0.00  0.00    +0.054 C 
ATOM     18  C   UNL     1       0.224   2.260  26.043  0.00  0.00    +0.041 C 
ATOM     19  C   UNL     1      -1.209   2.692  26.323  0.00  0.00    +0.110 C 
ATOM     21  C   UNL     1      -2.560   4.551  25.426  0.00  0.00    +0.242 C 
ENDROOT
BRANCH  16  20
ATOM      2  O   UNL     1      -3.120   1.162  22.776  0.00  0.00    -0.274 OA
ATOM     11  N   UNL     1      -3.226   1.356  25.093  0.00  0.00    -0.302 N 
ATOM     20  C   UNL     1      -2.746   1.665  23.832  0.00  0.00    +0.234 C 
ATOM     36  H   UNL     1      -2.759   1.742  25.909  0.00  0.00    +0.150 HD
BRANCH  11  22
ATOM     22  C   UNL     1      -4.259   0.372  25.327  0.00  0.00    +0.159 C 
BRANCH  22  27
ATOM      6  O   UNL     1      -6.066   1.492  24.146  0.00  0.00    -0.274 OA
ATOM     12  N   UNL     1      -6.251   1.203  26.418  0.00  0.00    -0.328 N 
ATOM     27  C   UNL     1      -5.596   1.092  25.209  0.00  0.00    +0.231 C 
ATOM     37  H   UNL     1      -5.860   0.848  27.285  0.00  0.00    +0.145 HD
ATOM     38  H   UNL     1      -7.160   1.650  26.478  0.00  0.00    +0.145 HD
ENDBRANCH  22  27
BRANCH  22  23
ATOM     23  C   UNL     1      -4.190  -0.790  24.329  0.00  0.00    +0.034 C 
BRANCH  23  24
ATOM     24  C   UNL     1      -3.464  -2.047  24.847  0.00  0.00    -0.015 C 
ATOM     28  C   UNL     1      -3.795  -3.292  24.023  0.00  0.00    +0.007 C 
ATOM     29  C   UNL     1      -1.952  -1.810  24.839  0.00  0.00    +0.007 C 
ENDBRANCH  23  24
ENDBRANCH  22  23
ENDBRANCH  11  22
ENDBRANCH  16  20
BRANCH  15  10
ATOM      5  O   UNL     1       1.125  -0.497  22.872  0.00  0.00    -0.270 OA
ATOM     10  N   UNL     1       1.664   1.033  24.498  0.00  0.00    -0.308 N 
ATOM     26  C   UNL     1       1.989   0.076  23.539  0.00  0.00    +0.254 C 
ATOM     35  H   UNL     1       2.412   1.521  24.984  0.00  0.00    +0.149 HD
BRANCH  26  30
ATOM      1  S   UNL     1       4.123  -1.679  23.816  0.00  0.00    +0.041 S 
ATOM     13  N   UNL     1       5.694  -0.003  22.814  0.00  0.00    -0.146 NA
ATOM     14  N   UNL     1       5.658  -1.226  23.319  0.00  0.00    -0.110 NA
ATOM     30  C   UNL     1       3.424  -0.183  23.352  0.00  0.00    +0.117 A 
ATOM     31  C   UNL     1       4.441   0.589  22.829  0.00  0.00    +0.081 A 
ATOM     33  C   UNL     1       4.313   1.961  22.298  0.00  0.00    +0.069 C 
ENDBRANCH  26  30
ENDBRANCH  15  10
BRANCH  21  25
ATOM     25  C   UNL     1      -3.144   5.247  24.222  0.00  0.00    +0.256 C 
BRANCH  25   4
ATOM      4  O   UNL     1      -4.222   4.455  23.786  0.00  0.00    -0.359 OA
BRANCH   4  32
ATOM     32  C   UNL     1      -5.480   4.993  24.189  0.00  0.00    +0.280 C 
BRANCH  32  34
ATOM      8  O   UNL     1      -5.246   3.631  26.188  0.00  0.00    -0.248 OA
ATOM     34  C   UNL     1      -5.809   4.531  25.582  0.00  0.00    +0.331 C 
BRANCH  34   7
ATOM      7  O   UNL     1      -6.833   5.261  26.089  0.00  0.00    -0.479 OA
ATOM     39  H   UNL     1      -7.150   5.938  25.452  0.00  0.00    +0.295 HD
ENDBRANCH  34   7
ENDBRANCH  32  34
ENDBRANCH   4  32
ENDBRANCH  25   4
ENDBRANCH  21  25
TORSDOF 12
ENDMDL
MODEL 8
REMARK VINA RESULT:       3.7      1.788      3.413
REMARK  Name = 7134327
REMARK  15 active torsions:
REMARK  status: ('A' for Active; 'I' for Inactive)
REMARK    1  A    between atoms: O_4  and  C_25
REMARK    2  A    between atoms: O_4  and  C_32
REMARK    3  A    between atoms: O_7  and  C_34
REMARK    4  A    between atoms: N_10  and  C_15
REMARK    5  A    between atoms: N_11  and  C_22
REMARK    6  A    between atoms: C_16  and  C_20
REMARK    7  A    between atoms: C_21  and  C_25
REMARK    8  A    between atoms: C_22  and  C_23
REMARK    9  A    between atoms: C_22  and  C_27
REMARK   10  A    between atoms: C_23  and  C_24
REMARK   11  A    between atoms: C_24  and  C_28
REMARK   12  A    between atoms: C_24  and  C_29
REMARK   13  A    between atoms: C_26  and  C_30
REMARK   14  A    between atoms: C_31  and  C_33
REMARK   15  A    between atoms: C_32  and  C_34
REMARK                            x       y       z     vdW  Elec       q    Type
REMARK                         _______ _______ _______ _____ _____    ______ ____
ROOT
ATOM      3  O   UNL     1      -3.416   3.914  26.871  0.00  0.00    -0.273 OA
ATOM      9  N   UNL     1      -2.212   2.762  25.245  0.00  0.00    -0.288 N 
ATOM     15  C   UNL     1       0.015   0.990  24.590  0.00  0.00    +0.077 C 
ATOM     16  C   UNL     1      -1.891   2.518  23.829  0.00  0.00    +0.164 C 
ATOM     17  C   UNL     1      -0.444   2.071  23.607  0.00  0.00    +0.054 C 
ATOM     18  C   UNL     1      -0.275   1.422  26.026  0.00  0.00    +0.041 C 
ATOM     19  C   UNL     1      -1.751   1.752  26.206  0.00  0.00    +0.110 C 
ATOM     21  C   UNL     1      -3.040   3.794  25.701  0.00  0.00    +0.242 C 
ENDROOT
BRANCH  16  20
ATOM      2  O   UNL     1      -3.225   1.467  22.149  0.00  0.00    -0.274 OA
ATOM     11  N   UNL     1      -3.337   0.676  24.335  0.00  0.00    -0.302 N 
ATOM     20  C   UNL     1      -2.878   1.505  23.326  0.00  0.00    +0.234 C 
ATOM     36  H   UNL     1      -2.890   0.711  25.247  0.00  0.00    +0.150 HD
BRANCH  11  22
ATOM     22  C   UNL     1      -4.311  -0.369  24.118  0.00  0.00    +0.159 C 
BRANCH  22  27
ATOM      6  O   UNL     1      -3.370  -1.648  25.960  0.00  0.00    -0.274 OA
ATOM     12  N   UNL     1      -3.859  -2.742  24.000  0.00  0.00    -0.328 N 
ATOM     27  C   UNL     1      -3.781  -1.623  24.802  0.00  0.00    +0.231 C 
ATOM     37  H   UNL     1      -4.222  -2.711  23.053  0.00  0.00    +0.145 HD
ATOM     38  H   UNL     1      -3.551  -3.648  24.340  0.00  0.00    +0.145 HD
ENDBRANCH  22  27
BRANCH  22  23
ATOM     23  C   UNL     1      -5.691  -0.002  24.675  0.00  0.00    +0.034 C 
BRANCH  23  24
ATOM     24  C   UNL     1      -5.758   1.359  25.394  0.00  0.00    -0.015 C 
ATOM     28  C   UNL     1      -6.487   2.420  24.567  0.00  0.00    +0.007 C 
ATOM     29  C   UNL     1      -6.452   1.196  26.749  0.00  0.00    +0.007 C 
ENDBRANCH  23  24
ENDBRANCH  22  23
ENDBRANCH  11  22
ENDBRANCH  16  20
BRANCH  15  10
ATOM      5  O   UNL     1       1.158  -0.425  22.434  0.00  0.00    -0.270 OA
ATOM     10  N   UNL     1       1.419   0.703  24.419  0.00  0.00    -0.308 N 
ATOM     26  C   UNL     1       1.905  -0.004  23.321  0.00  0.00    +0.254 C 
ATOM     35  H   UNL     1       2.076   1.080  25.096  0.00  0.00    +0.149 HD
BRANCH  26  30
ATOM      1  S   UNL     1       4.093  -1.634  23.834  0.00  0.00    +0.041 S 
ATOM     13  N   UNL     1       5.659   0.105  22.937  0.00  0.00    -0.146 NA
ATOM     14  N   UNL     1       5.642  -1.108  23.467  0.00  0.00    -0.110 NA
ATOM     30  C   UNL     1       3.362  -0.188  23.271  0.00  0.00    +0.117 A 
ATOM     31  C   UNL     1       4.381   0.628  22.823  0.00  0.00    +0.081 A 
ATOM     33  C   UNL     1       4.231   1.980  22.248  0.00  0.00    +0.069 C 
ENDBRANCH  26  30
ENDBRANCH  15  10
BRANCH  21  25
ATOM     25  C   UNL     1      -3.479   4.814  24.681  0.00  0.00    +0.256 C 
BRANCH  25   4
ATOM      4  O   UNL     1      -2.657   5.941  24.862  0.00  0.00    -0.359 OA
BRANCH   4  32
ATOM     32  C   UNL     1      -1.717   6.095  23.800  0.00  0.00    +0.280 C 
BRANCH  32  34
ATOM      8  O   UNL     1      -0.063   5.112  25.284  0.00  0.00    -0.248 OA
ATOM     34  C   UNL     1      -0.429   5.404  24.156  0.00  0.00    +0.331 C 
BRANCH  34   7
ATOM      7  O   UNL     1       0.287   5.142  23.034  0.00  0.00    -0.479 OA
ATOM     39  H   UNL     1      -0.230   4.621  22.383  0.00  0.00    +0.295 HD
ENDBRANCH  34   7
ENDBRANCH  32  34
ENDBRANCH   4  32
ENDBRANCH  25   4
ENDBRANCH  21  25
TORSDOF 12
ENDMDL
