MODEL 1
REMARK VINA RESULT:      -3.8      0.000      0.000
REMARK  Name = 40780411
REMARK  9 active torsions:
REMARK  status: ('A' for Active; 'I' for Inactive)
REMARK    1  A    between atoms: O_2  and  C_25
REMARK    2  A    between atoms: O_2  and  C_29
REMARK    3  A    between atoms: N_3  and  C_8
REMARK    4  A    between atoms: N_3  and  C_14
REMARK    5  A    between atoms: N_4  and  C_17
REMARK    6  A    between atoms: C_6  and  C_9
REMARK    7  A    between atoms: C_12  and  C_15
REMARK    8  A    between atoms: C_13  and  C_16
REMARK    9  A    between atoms: C_14  and  C_18
REMARK                            x       y       z     vdW  Elec       q    Type
REMARK                         _______ _______ _______ _____ _____    ______ ____
ROOT
ATOM      6  C   UNL     1      -8.322 -10.707  12.555  0.00  0.00    +0.047 C 
ATOM      7  C   UNL     1      -8.222 -10.204  14.008  0.00  0.00    +0.035 C 
ATOM      8  C   UNL     1      -9.627  -9.705  14.387  0.00  0.00    +0.078 C 
ATOM     10  C   UNL     1      -9.532  -9.976  12.049  0.00  0.00    -0.021 C 
ATOM     11  C   UNL     1     -10.241  -9.442  13.049  0.00  0.00    -0.012 C 
ENDROOT
BRANCH   6   9
ATOM      4  N   UNL     1      -5.008 -10.066  11.130  0.00  0.00    -0.236 N 
ATOM      5  N   UNL     1      -5.655 -10.251   9.968  0.00  0.00    -0.171 NA
ATOM      9  C   UNL     1      -7.062 -10.473  11.754  0.00  0.00    +0.003 A 
ATOM     12  C   UNL     1      -5.805 -10.188  12.231  0.00  0.00    +0.046 A 
ATOM     13  C   UNL     1      -6.909 -10.500  10.355  0.00  0.00    +0.064 A 
ATOM     15  C   UNL     1      -5.311 -10.027  13.613  0.00  0.00    +0.066 C 
ATOM     16  C   UNL     1      -7.943 -10.762   9.338  0.00  0.00    +0.068 C 
BRANCH   4  17
ATOM     17  C   UNL     1      -3.642  -9.777  11.125  0.00  0.00    +0.066 A 
ATOM     19  C   UNL     1      -2.819 -10.283  12.130  0.00  0.00    +0.031 A 
ATOM     20  C   UNL     1      -3.102  -8.982  10.114  0.00  0.00    +0.031 A 
ATOM     23  C   UNL     1      -1.454  -9.994  12.125  0.00  0.00    +0.048 A 
ATOM     24  C   UNL     1      -1.737  -8.693  10.110  0.00  0.00    +0.048 A 
ATOM     25  C   UNL     1      -0.914  -9.198  11.115  0.00  0.00    +0.120 A 
BRANCH  25   2
ATOM      2  O   UNL     1       0.417  -8.916  11.111  0.00  0.00    -0.495 OA
ATOM     29  C   UNL     1       0.833  -7.738  11.801  0.00  0.00    +0.277 C 
ENDBRANCH  25   2
ENDBRANCH   4  17
ENDBRANCH   6   9
BRANCH   8   3
ATOM      3  N   UNL     1     -10.380 -10.708  15.131  0.00  0.00    -0.306 NA
ATOM     30  H   UNL     1      -9.818 -11.555  15.219  0.00  0.00    +0.123 HD
BRANCH   3  14
ATOM     14  C   UNL     1     -10.719 -10.224  16.464  0.00  0.00    +0.116 C 
BRANCH  14  18
ATOM      1  F   UNL     1      -6.324 -10.503  19.979  0.00  0.00    -0.205 F 
ATOM     18  C   UNL     1      -9.545 -10.299  17.403  0.00  0.00    -0.033 A 
ATOM     21  C   UNL     1      -9.732 -10.712  18.722  0.00  0.00    +0.008 A 
ATOM     22  C   UNL     1      -8.269  -9.955  16.954  0.00  0.00    +0.008 A 
ATOM     26  C   UNL     1      -8.644 -10.781  19.592  0.00  0.00    +0.038 A 
ATOM     27  C   UNL     1      -7.182 -10.023  17.825  0.00  0.00    +0.038 A 
ATOM     28  C   UNL     1      -7.369 -10.437  19.144  0.00  0.00    +0.123 A 
ENDBRANCH  14  18
ENDBRANCH   3  14
ENDBRANCH   8   3
TORSDOF 6
ENDMDL
MODEL 2
REMARK VINA RESULT:      -2.0     14.178     16.189
REMARK  Name = 40780411
REMARK  9 active torsions:
REMARK  status: ('A' for Active; 'I' for Inactive)
REMARK    1  A    between atoms: O_2  and  C_25
REMARK    2  A    between atoms: O_2  and  C_29
REMARK    3  A    between atoms: N_3  and  C_8
REMARK    4  A    between atoms: N_3  and  C_14
REMARK    5  A    between atoms: N_4  and  C_17
REMARK    6  A    between atoms: C_6  and  C_9
REMARK    7  A    between atoms: C_12  and  C_15
REMARK    8  A    between atoms: C_13  and  C_16
REMARK    9  A    between atoms: C_14  and  C_18
REMARK                            x       y       z     vdW  Elec       q    Type
REMARK                         _______ _______ _______ _____ _____    ______ ____
ROOT
ATOM      6  C   UNL     1      -2.455   1.627  23.799  0.00  0.00    +0.047 C 
ATOM      7  C   UNL     1      -3.142   2.249  25.031  0.00  0.00    +0.035 C 
ATOM      8  C   UNL     1      -4.471   2.839  24.529  0.00  0.00    +0.078 C 
ATOM     10  C   UNL     1      -3.110   2.363  22.666  0.00  0.00    -0.021 C 
ATOM     11  C   UNL     1      -4.208   3.012  23.066  0.00  0.00    -0.012 C 
ENDROOT
BRANCH   6   9
ATOM      4  N   UNL     1       1.195   1.334  23.717  0.00  0.00    -0.236 N 
ATOM      5  N   UNL     1       1.141   2.615  24.117  0.00  0.00    -0.171 NA
ATOM      9  C   UNL     1      -0.949   1.735  23.837  0.00  0.00    +0.003 A 
ATOM     12  C   UNL     1      -0.030   0.760  23.535  0.00  0.00    +0.046 A 
ATOM     13  C   UNL     1      -0.172   2.855  24.188  0.00  0.00    +0.064 A 
ATOM     15  C   UNL     1      -0.213  -0.638  23.096  0.00  0.00    +0.066 C 
ATOM     16  C   UNL     1      -0.643   4.188  24.603  0.00  0.00    +0.068 C 
BRANCH   4  17
ATOM     17  C   UNL     1       2.434   0.719  23.528  0.00  0.00    +0.066 A 
ATOM     19  C   UNL     1       2.587  -0.639  23.804  0.00  0.00    +0.031 A 
ATOM     20  C   UNL     1       3.518   1.463  23.063  0.00  0.00    +0.031 A 
ATOM     23  C   UNL     1       3.825  -1.254  23.615  0.00  0.00    +0.048 A 
ATOM     24  C   UNL     1       4.756   0.849  22.875  0.00  0.00    +0.048 A 
ATOM     25  C   UNL     1       4.909  -0.509  23.152  0.00  0.00    +0.120 A 
BRANCH  25   2
ATOM      2  O   UNL     1       6.117  -1.110  22.968  0.00  0.00    -0.495 OA
ATOM     29  C   UNL     1       7.277  -0.287  23.097  0.00  0.00    +0.277 C 
ENDBRANCH  25   2
ENDBRANCH   4  17
ENDBRANCH   6   9
BRANCH   8   3
ATOM      3  N   UNL     1      -5.593   1.938  24.766  0.00  0.00    -0.306 NA
ATOM     30  H   UNL     1      -5.789   1.412  23.913  0.00  0.00    +0.123 HD
BRANCH   3  14
ATOM     14  C   UNL     1      -5.293   1.001  25.842  0.00  0.00    +0.116 C 
BRANCH  14  18
ATOM      1  F   UNL     1      -2.512  -3.526  23.964  0.00  0.00    -0.205 F 
ATOM     18  C   UNL     1      -4.550  -0.209  25.340  0.00  0.00    -0.033 A 
ATOM     21  C   UNL     1      -3.564  -0.799  26.131  0.00  0.00    +0.008 A 
ATOM     22  C   UNL     1      -4.848  -0.740  24.085  0.00  0.00    +0.008 A 
ATOM     26  C   UNL     1      -2.875  -1.919  25.666  0.00  0.00    +0.038 A 
ATOM     27  C   UNL     1      -4.159  -1.860  23.621  0.00  0.00    +0.038 A 
ATOM     28  C   UNL     1      -3.173  -2.450  24.411  0.00  0.00    +0.123 A 
ENDBRANCH  14  18
ENDBRANCH   3  14
ENDBRANCH   8   3
TORSDOF 6
ENDMDL
MODEL 3
REMARK VINA RESULT:      -1.9     14.843     16.877
REMARK  Name = 40780411
REMARK  9 active torsions:
REMARK  status: ('A' for Active; 'I' for Inactive)
REMARK    1  A    between atoms: O_2  and  C_25
REMARK    2  A    between atoms: O_2  and  C_29
REMARK    3  A    between atoms: N_3  and  C_8
REMARK    4  A    between atoms: N_3  and  C_14
REMARK    5  A    between atoms: N_4  and  C_17
REMARK    6  A    between atoms: C_6  and  C_9
REMARK    7  A    between atoms: C_12  and  C_15
REMARK    8  A    between atoms: C_13  and  C_16
REMARK    9  A    between atoms: C_14  and  C_18
REMARK                            x       y       z     vdW  Elec       q    Type
REMARK                         _______ _______ _______ _____ _____    ______ ____
ROOT
ATOM      6  C   UNL     1      -3.117   0.261  25.403  0.00  0.00    +0.047 C 
ATOM      7  C   UNL     1      -3.671   1.479  24.638  0.00  0.00    +0.035 C 
ATOM      8  C   UNL     1      -5.203   1.391  24.744  0.00  0.00    +0.078 C 
ATOM     10  C   UNL     1      -4.287  -0.681  25.388  0.00  0.00    -0.021 C 
ATOM     11  C   UNL     1      -5.418  -0.060  25.038  0.00  0.00    -0.012 C 
ENDROOT
BRANCH   6   9
ATOM      4  N   UNL     1       0.184  -0.564  24.045  0.00  0.00    -0.236 N 
ATOM      5  N   UNL     1      -0.389  -1.760  23.828  0.00  0.00    -0.171 NA
ATOM      9  C   UNL     1      -1.849  -0.296  24.799  0.00  0.00    +0.003 A 
ATOM     12  C   UNL     1      -0.649   0.349  24.625  0.00  0.00    +0.046 A 
ATOM     13  C   UNL     1      -1.630  -1.591  24.292  0.00  0.00    +0.064 A 
ATOM     15  C   UNL     1      -0.237   1.728  24.956  0.00  0.00    +0.066 C 
ATOM     16  C   UNL     1      -2.586  -2.710  24.228  0.00  0.00    +0.068 C 
BRANCH   4  17
ATOM     17  C   UNL     1       1.514  -0.355  23.679  0.00  0.00    +0.066 A 
ATOM     19  C   UNL     1       1.897   0.854  23.101  0.00  0.00    +0.031 A 
ATOM     20  C   UNL     1       2.461  -1.357  23.892  0.00  0.00    +0.031 A 
ATOM     23  C   UNL     1       3.227   1.063  22.736  0.00  0.00    +0.048 A 
ATOM     24  C   UNL     1       3.791  -1.150  23.526  0.00  0.00    +0.048 A 
ATOM     25  C   UNL     1       4.173   0.060  22.948  0.00  0.00    +0.120 A 
BRANCH  25   2
ATOM      2  O   UNL     1       5.471   0.263  22.591  0.00  0.00    -0.495 OA
ATOM     29  C   UNL     1       6.473  -0.198  23.496  0.00  0.00    +0.277 C 
ENDBRANCH  25   2
ENDBRANCH   4  17
ENDBRANCH   6   9
BRANCH   8   3
ATOM      3  N   UNL     1      -5.727   2.235  25.811  0.00  0.00    -0.306 NA
ATOM     30  H   UNL     1      -5.191   2.071  26.664  0.00  0.00    +0.123 HD
BRANCH   3  14
ATOM     14  C   UNL     1      -5.634   3.646  25.456  0.00  0.00    +0.116 C 
BRANCH  14  18
ATOM      1  F   UNL     1      -0.279   5.332  24.968  0.00  0.00    -0.205 F 
ATOM     18  C   UNL     1      -4.203   4.097  25.326  0.00  0.00    -0.033 A 
ATOM     21  C   UNL     1      -3.734   4.585  24.106  0.00  0.00    +0.008 A 
ATOM     22  C   UNL     1      -3.346   4.027  26.425  0.00  0.00    +0.008 A 
ATOM     26  C   UNL     1      -2.409   5.002  23.985  0.00  0.00    +0.038 A 
ATOM     27  C   UNL     1      -2.021   4.443  26.303  0.00  0.00    +0.038 A 
ATOM     28  C   UNL     1      -1.552   4.932  25.084  0.00  0.00    +0.123 A 
ENDBRANCH  14  18
ENDBRANCH   3  14
ENDBRANCH   8   3
TORSDOF 6
ENDMDL
