MODEL 1
REMARK VINA RESULT:      -0.3      0.000      0.000
REMARK  Name = 51136744
REMARK  11 active torsions:
REMARK  status: ('A' for Active; 'I' for Inactive)
REMARK    1  A    between atoms: O_2  and  C_17
REMARK    2  A    between atoms: O_4  and  C_26
REMARK    3  A    between atoms: O_4  and  C_29
REMARK    4  A    between atoms: C_7  and  C_12
REMARK    5  A    between atoms: C_8  and  C_13
REMARK    6  A    between atoms: C_12  and  C_15
REMARK    7  A    between atoms: C_13  and  C_17
REMARK    8  A    between atoms: C_14  and  C_16
REMARK    9  A    between atoms: C_16  and  C_19
REMARK   10  A    between atoms: C_16  and  C_20
REMARK   11  A    between atoms: C_16  and  C_21
REMARK                            x       y       z     vdW  Elec       q    Type
REMARK                         _______ _______ _______ _____ _____    ______ ____
ROOT
ATOM      1  O   UNL     1      -4.091  -0.539  24.022  0.00  0.00    -0.275 OA
ATOM      5  N   UNL     1      -1.816  -0.916  23.732  0.00  0.00    -0.301 N 
ATOM      7  C   UNL     1      -0.434   1.116  24.045  0.00  0.00    +0.016 C 
ATOM      8  C   UNL     1       0.848   0.247  24.081  0.00  0.00    +0.006 C 
ATOM      9  C   UNL     1      -1.557   0.441  23.244  0.00  0.00    +0.112 C 
ATOM     10  C   UNL     1       0.492  -1.169  24.568  0.00  0.00    +0.023 C 
ATOM     11  C   UNL     1      -0.645  -1.799  23.765  0.00  0.00    +0.108 C 
ATOM     14  C   UNL     1      -3.118  -1.297  24.057  0.00  0.00    +0.221 C 
ENDROOT
BRANCH  14  16
ATOM     16  C   UNL     1      -3.319  -2.732  24.474  0.00  0.00    +0.039 C 
ATOM     19  C   UNL     1      -4.693  -3.179  23.971  0.00  0.00    +0.020 C 
ATOM     20  C   UNL     1      -3.254  -2.816  26.000  0.00  0.00    +0.020 C 
ATOM     21  C   UNL     1      -2.216  -3.588  23.847  0.00  0.00    +0.020 C 
ENDBRANCH  14  16
BRANCH   7  12
ATOM     12  C   UNL     1      -0.183   2.533  23.531  0.00  0.00    +0.061 C 
BRANCH  12  15
ATOM      6  N   UNL     1      -0.601   4.533  24.792  0.00  0.00    -0.287 NA
ATOM     15  C   UNL     1      -1.119   3.500  24.214  0.00  0.00    +0.044 C 
ATOM     18  C   UNL     1      -2.577   3.217  24.196  0.00  0.00    +0.003 A 
ATOM     22  C   UNL     1      -3.363   3.892  25.139  0.00  0.00    +0.005 A 
ATOM     23  C   UNL     1      -2.690   4.829  26.099  0.00  0.00    +0.062 C 
ATOM     24  C   UNL     1      -1.516   5.504  25.402  0.00  0.00    +0.146 C 
ATOM     25  C   UNL     1      -3.161   2.316  23.303  0.00  0.00    +0.010 A 
ATOM     26  C   UNL     1      -4.736   3.640  25.201  0.00  0.00    +0.124 A 
ATOM     27  C   UNL     1      -4.536   2.083  23.361  0.00  0.00    +0.004 A 
ATOM     28  C   UNL     1      -5.321   2.740  24.310  0.00  0.00    +0.046 A 
BRANCH  26   4
ATOM      4  O   UNL     1      -5.527   4.262  26.120  0.00  0.00    -0.495 OA
ATOM     29  C   UNL     1      -6.318   5.356  25.658  0.00  0.00    +0.277 C 
ENDBRANCH  26   4
ENDBRANCH  12  15
ENDBRANCH   7  12
BRANCH   8  13
ATOM     13  C   UNL     1       1.603   0.193  22.747  0.00  0.00    +0.124 C 
BRANCH  13  17
ATOM      3  O   UNL     1       3.777   1.296  22.740  0.00  0.00    -0.251 OA
ATOM     17  C   UNL     1       3.089   0.307  22.945  0.00  0.00    +0.305 C 
BRANCH  17   2
ATOM      2  O   UNL     1       3.583  -0.875  23.397  0.00  0.00    -0.481 OA
ATOM     30  H   UNL     1       3.800  -1.486  22.660  0.00  0.00    +0.295 HD
ENDBRANCH  17   2
ENDBRANCH  13  17
ENDBRANCH   8  13
TORSDOF 7
ENDMDL
MODEL 2
REMARK VINA RESULT:       3.0      2.309      7.438
REMARK  Name = 51136744
REMARK  11 active torsions:
REMARK  status: ('A' for Active; 'I' for Inactive)
REMARK    1  A    between atoms: O_2  and  C_17
REMARK    2  A    between atoms: O_4  and  C_26
REMARK    3  A    between atoms: O_4  and  C_29
REMARK    4  A    between atoms: C_7  and  C_12
REMARK    5  A    between atoms: C_8  and  C_13
REMARK    6  A    between atoms: C_12  and  C_15
REMARK    7  A    between atoms: C_13  and  C_17
REMARK    8  A    between atoms: C_14  and  C_16
REMARK    9  A    between atoms: C_16  and  C_19
REMARK   10  A    between atoms: C_16  and  C_20
REMARK   11  A    between atoms: C_16  and  C_21
REMARK                            x       y       z     vdW  Elec       q    Type
REMARK                         _______ _______ _______ _____ _____    ______ ____
ROOT
ATOM      1  O   UNL     1      -1.823   3.641  23.721  0.00  0.00    -0.275 OA
ATOM      5  N   UNL     1      -2.409   1.463  24.287  0.00  0.00    -0.301 N 
ATOM      7  C   UNL     1      -0.512  -0.126  24.171  0.00  0.00    +0.016 C 
ATOM      8  C   UNL     1      -1.351  -1.192  24.919  0.00  0.00    +0.006 C 
ATOM      9  C   UNL     1      -1.402   0.864  23.406  0.00  0.00    +0.112 C 
ATOM     10  C   UNL     1      -2.405  -0.490  25.794  0.00  0.00    +0.023 C 
ATOM     11  C   UNL     1      -3.255   0.505  25.006  0.00  0.00    +0.108 C 
ATOM     14  C   UNL     1      -2.546   2.851  24.335  0.00  0.00    +0.221 C 
ENDROOT
BRANCH  14  16
ATOM     16  C   UNL     1      -3.656   3.392  25.202  0.00  0.00    +0.039 C 
ATOM     19  C   UNL     1      -4.297   4.567  24.463  0.00  0.00    +0.020 C 
ATOM     20  C   UNL     1      -3.062   3.854  26.533  0.00  0.00    +0.020 C 
ATOM     21  C   UNL     1      -4.684   2.282  25.435  0.00  0.00    +0.020 C 
ENDBRANCH  14  16
BRANCH   7  12
ATOM     12  C   UNL     1       0.537  -0.735  23.241  0.00  0.00    +0.061 C 
BRANCH  12  15
ATOM      6  N   UNL     1       1.647   1.386  23.051  0.00  0.00    -0.287 NA
ATOM     15  C   UNL     1       1.784   0.116  23.249  0.00  0.00    +0.044 C 
ATOM     18  C   UNL     1       3.097  -0.541  23.474  0.00  0.00    +0.003 A 
ATOM     22  C   UNL     1       4.237   0.181  23.097  0.00  0.00    +0.005 A 
ATOM     23  C   UNL     1       4.060   1.541  22.488  0.00  0.00    +0.062 C 
ATOM     24  C   UNL     1       2.852   2.221  23.120  0.00  0.00    +0.146 C 
ATOM     25  C   UNL     1       3.218  -1.820  24.019  0.00  0.00    +0.010 A 
ATOM     26  C   UNL     1       5.500  -0.397  23.245  0.00  0.00    +0.124 A 
ATOM     27  C   UNL     1       4.485  -2.384  24.178  0.00  0.00    +0.004 A 
ATOM     28  C   UNL     1       5.623  -1.675  23.789  0.00  0.00    +0.046 A 
BRANCH  26   4
ATOM      4  O   UNL     1       6.629   0.268  22.870  0.00  0.00    -0.495 OA
ATOM     29  C   UNL     1       7.868  -0.424  23.019  0.00  0.00    +0.277 C 
ENDBRANCH  26   4
ENDBRANCH  12  15
ENDBRANCH   7  12
BRANCH   8  13
ATOM     13  C   UNL     1      -2.005  -2.231  24.000  0.00  0.00    +0.124 C 
BRANCH  13  17
ATOM      3  O   UNL     1      -3.517  -3.295  25.588  0.00  0.00    -0.251 OA
ATOM     17  C   UNL     1      -3.328  -2.695  24.540  0.00  0.00    +0.305 C 
BRANCH  17   2
ATOM      2  O   UNL     1      -4.321  -2.348  23.681  0.00  0.00    -0.481 OA
ATOM     30  H   UNL     1      -4.903  -3.110  23.468  0.00  0.00    +0.295 HD
ENDBRANCH  17   2
ENDBRANCH  13  17
ENDBRANCH   8  13
TORSDOF 7
ENDMDL
MODEL 3
REMARK VINA RESULT:       3.0      2.225      5.468
REMARK  Name = 51136744
REMARK  11 active torsions:
REMARK  status: ('A' for Active; 'I' for Inactive)
REMARK    1  A    between atoms: O_2  and  C_17
REMARK    2  A    between atoms: O_4  and  C_26
REMARK    3  A    between atoms: O_4  and  C_29
REMARK    4  A    between atoms: C_7  and  C_12
REMARK    5  A    between atoms: C_8  and  C_13
REMARK    6  A    between atoms: C_12  and  C_15
REMARK    7  A    between atoms: C_13  and  C_17
REMARK    8  A    between atoms: C_14  and  C_16
REMARK    9  A    between atoms: C_16  and  C_19
REMARK   10  A    between atoms: C_16  and  C_20
REMARK   11  A    between atoms: C_16  and  C_21
REMARK                            x       y       z     vdW  Elec       q    Type
REMARK                         _______ _______ _______ _____ _____    ______ ____
ROOT
ATOM      1  O   UNL     1       3.973  -1.904  24.132  0.00  0.00    -0.275 OA
ATOM      5  N   UNL     1       2.460  -0.357  23.282  0.00  0.00    -0.301 N 
ATOM      7  C   UNL     1       0.217  -0.500  24.322  0.00  0.00    +0.016 C 
ATOM      8  C   UNL     1      -0.176   0.853  23.679  0.00  0.00    +0.006 C 
ATOM      9  C   UNL     1       1.301  -1.224  23.510  0.00  0.00    +0.112 C 
ATOM     10  C   UNL     1       1.093   1.691  23.438  0.00  0.00    +0.023 C 
ATOM     11  C   UNL     1       2.159   0.932  22.649  0.00  0.00    +0.108 C 
ATOM     14  C   UNL     1       3.739  -0.815  23.601  0.00  0.00    +0.221 C 
ENDROOT
BRANCH  14  16
ATOM     16  C   UNL     1       4.890   0.099  23.263  0.00  0.00    +0.039 C 
ATOM     19  C   UNL     1       5.440   0.663  24.573  0.00  0.00    +0.020 C 
ATOM     20  C   UNL     1       4.377   1.228  22.367  0.00  0.00    +0.020 C 
ATOM     21  C   UNL     1       5.966  -0.710  22.534  0.00  0.00    +0.020 C 
ENDBRANCH  14  16
BRANCH   7  12
ATOM     12  C   UNL     1      -0.980  -1.419  24.560  0.00  0.00    +0.061 C 
BRANCH  12  15
ATOM      6  N   UNL     1      -3.360  -1.121  24.452  0.00  0.00    -0.287 NA
ATOM     15  C   UNL     1      -2.226  -0.594  24.775  0.00  0.00    +0.044 C 
ATOM     18  C   UNL     1      -2.088   0.774  25.336  0.00  0.00    +0.003 A 
ATOM     22  C   UNL     1      -3.177   1.639  25.164  0.00  0.00    +0.005 A 
ATOM     23  C   UNL     1      -4.384   1.140  24.425  0.00  0.00    +0.062 C 
ATOM     24  C   UNL     1      -4.575  -0.342  24.718  0.00  0.00    +0.146 C 
ATOM     25  C   UNL     1      -0.936   1.209  25.994  0.00  0.00    +0.010 A 
ATOM     26  C   UNL     1      -3.096   2.953  25.633  0.00  0.00    +0.124 A 
ATOM     27  C   UNL     1      -0.870   2.518  26.473  0.00  0.00    +0.004 A 
ATOM     28  C   UNL     1      -1.946   3.389  26.290  0.00  0.00    +0.046 A 
BRANCH  26   4
ATOM      4  O   UNL     1      -4.127   3.828  25.464  0.00  0.00    -0.495 OA
ATOM     29  C   UNL     1      -5.410   3.415  25.934  0.00  0.00    +0.277 C 
ENDBRANCH  26   4
ENDBRANCH  12  15
ENDBRANCH   7  12
BRANCH   8  13
ATOM     13  C   UNL     1      -0.995   0.717  22.389  0.00  0.00    +0.124 C 
BRANCH  13  17
ATOM      3  O   UNL     1      -1.855   2.961  22.800  0.00  0.00    -0.251 OA
ATOM     17  C   UNL     1      -1.772   1.969  22.091  0.00  0.00    +0.305 C 
BRANCH  17   2
ATOM      2  O   UNL     1      -2.390   1.848  20.887  0.00  0.00    -0.481 OA
ATOM     30  H   UNL     1      -1.981   2.426  20.207  0.00  0.00    +0.295 HD
ENDBRANCH  17   2
ENDBRANCH  13  17
ENDBRANCH   8  13
TORSDOF 7
ENDMDL
MODEL 4
REMARK VINA RESULT:       3.1      2.430      4.572
REMARK  Name = 51136744
REMARK  11 active torsions:
REMARK  status: ('A' for Active; 'I' for Inactive)
REMARK    1  A    between atoms: O_2  and  C_17
REMARK    2  A    between atoms: O_4  and  C_26
REMARK    3  A    between atoms: O_4  and  C_29
REMARK    4  A    between atoms: C_7  and  C_12
REMARK    5  A    between atoms: C_8  and  C_13
REMARK    6  A    between atoms: C_12  and  C_15
REMARK    7  A    between atoms: C_13  and  C_17
REMARK    8  A    between atoms: C_14  and  C_16
REMARK    9  A    between atoms: C_16  and  C_19
REMARK   10  A    between atoms: C_16  and  C_20
REMARK   11  A    between atoms: C_16  and  C_21
REMARK                            x       y       z     vdW  Elec       q    Type
REMARK                         _______ _______ _______ _____ _____    ______ ____
ROOT
ATOM      1  O   UNL     1       1.369  -0.548  21.127  0.00  0.00    -0.275 OA
ATOM      5  N   UNL     1       0.767   0.508  23.108  0.00  0.00    -0.301 N 
ATOM      7  C   UNL     1      -1.461  -0.173  23.948  0.00  0.00    +0.016 C 
ATOM      8  C   UNL     1      -1.166   0.509  25.307  0.00  0.00    +0.006 C 
ATOM      9  C   UNL     1      -0.666   0.470  22.803  0.00  0.00    +0.112 C 
ATOM     10  C   UNL     1       0.355   0.543  25.541  0.00  0.00    +0.023 C 
ATOM     11  C   UNL     1       1.117   1.166  24.372  0.00  0.00    +0.108 C 
ATOM     14  C   UNL     1       1.684   0.002  22.186  0.00  0.00    +0.221 C 
ENDROOT
BRANCH  14  16
ATOM     16  C   UNL     1       3.144   0.149  22.533  0.00  0.00    +0.039 C 
ATOM     19  C   UNL     1       3.942   0.110  21.228  0.00  0.00    +0.020 C 
ATOM     20  C   UNL     1       3.554  -1.007  23.446  0.00  0.00    +0.020 C 
ATOM     21  C   UNL     1       3.349   1.488  23.245  0.00  0.00    +0.020 C 
ENDBRANCH  14  16
BRANCH   7  12
ATOM     12  C   UNL     1      -2.952  -0.214  23.611  0.00  0.00    +0.061 C 
BRANCH  12  15
ATOM      6  N   UNL     1      -3.076   1.982  22.649  0.00  0.00    -0.287 NA
ATOM     15  C   UNL     1      -3.507   1.189  23.573  0.00  0.00    +0.044 C 
ATOM     18  C   UNL     1      -4.507   1.589  24.595  0.00  0.00    +0.003 A 
ATOM     22  C   UNL     1      -4.708   2.963  24.778  0.00  0.00    +0.005 A 
ATOM     23  C   UNL     1      -3.902   3.925  23.955  0.00  0.00    +0.062 C 
ATOM     24  C   UNL     1      -3.662   3.326  22.576  0.00  0.00    +0.146 C 
ATOM     25  C   UNL     1      -5.218   0.662  25.361  0.00  0.00    +0.010 A 
ATOM     26  C   UNL     1      -5.606   3.406  25.753  0.00  0.00    +0.124 A 
ATOM     27  C   UNL     1      -6.125   1.113  26.321  0.00  0.00    +0.004 A 
ATOM     28  C   UNL     1      -6.317   2.482  26.519  0.00  0.00    +0.046 A 
BRANCH  26   4
ATOM      4  O   UNL     1      -5.811   4.736  25.973  0.00  0.00    -0.495 OA
ATOM     29  C   UNL     1      -6.557   5.448  24.988  0.00  0.00    +0.277 C 
ENDBRANCH  26   4
ENDBRANCH  12  15
ENDBRANCH   7  12
BRANCH   8  13
ATOM     13  C   UNL     1      -1.773   1.910  25.448  0.00  0.00    +0.124 C 
BRANCH  13  17
ATOM      3  O   UNL     1      -0.191   2.686  27.133  0.00  0.00    -0.251 OA
ATOM     17  C   UNL     1      -0.814   2.868  26.096  0.00  0.00    +0.305 C 
BRANCH  17   2
ATOM      2  O   UNL     1      -0.727   4.002  25.355  0.00  0.00    -0.481 OA
ATOM     30  H   UNL     1       0.198   4.197  25.091  0.00  0.00    +0.295 HD
ENDBRANCH  17   2
ENDBRANCH  13  17
ENDBRANCH   8  13
TORSDOF 7
ENDMDL
MODEL 5
REMARK VINA RESULT:       3.4      1.734      4.819
REMARK  Name = 51136744
REMARK  11 active torsions:
REMARK  status: ('A' for Active; 'I' for Inactive)
REMARK    1  A    between atoms: O_2  and  C_17
REMARK    2  A    between atoms: O_4  and  C_26
REMARK    3  A    between atoms: O_4  and  C_29
REMARK    4  A    between atoms: C_7  and  C_12
REMARK    5  A    between atoms: C_8  and  C_13
REMARK    6  A    between atoms: C_12  and  C_15
REMARK    7  A    between atoms: C_13  and  C_17
REMARK    8  A    between atoms: C_14  and  C_16
REMARK    9  A    between atoms: C_16  and  C_19
REMARK   10  A    between atoms: C_16  and  C_20
REMARK   11  A    between atoms: C_16  and  C_21
REMARK                            x       y       z     vdW  Elec       q    Type
REMARK                         _______ _______ _______ _____ _____    ______ ____
ROOT
ATOM      1  O   UNL     1       3.358   1.623  22.310  0.00  0.00    -0.275 OA
ATOM      5  N   UNL     1       1.996   0.268  23.619  0.00  0.00    -0.301 N 
ATOM      7  C   UNL     1      -0.359   0.207  22.850  0.00  0.00    +0.016 C 
ATOM      8  C   UNL     1      -0.639  -0.997  23.785  0.00  0.00    +0.006 C 
ATOM      9  C   UNL     1       0.797   1.074  23.370  0.00  0.00    +0.112 C 
ATOM     10  C   UNL     1       0.668  -1.772  24.026  0.00  0.00    +0.023 C 
ATOM     11  C   UNL     1       1.802  -0.874  24.519  0.00  0.00    +0.108 C 
ATOM     14  C   UNL     1       3.216   0.657  23.065  0.00  0.00    +0.221 C 
ENDROOT
BRANCH  14  16
ATOM     16  C   UNL     1       4.420  -0.174  23.430  0.00  0.00    +0.039 C 
ATOM     19  C   UNL     1       5.366  -0.182  22.228  0.00  0.00    +0.020 C 
ATOM     20  C   UNL     1       3.958  -1.595  23.757  0.00  0.00    +0.020 C 
ATOM     21  C   UNL     1       5.104   0.455  24.646  0.00  0.00    +0.020 C 
ENDBRANCH  14  16
BRANCH   7  12
ATOM     12  C   UNL     1      -1.597   1.062  22.588  0.00  0.00    +0.061 C 
BRANCH  12  15
ATOM      6  N   UNL     1      -0.497   2.963  23.557  0.00  0.00    -0.287 NA
ATOM     15  C   UNL     1      -1.586   2.272  23.491  0.00  0.00    +0.044 C 
ATOM     18  C   UNL     1      -2.813   2.601  24.259  0.00  0.00    +0.003 A 
ATOM     22  C   UNL     1      -2.661   3.465  25.352  0.00  0.00    +0.005 A 
ATOM     23  C   UNL     1      -1.290   3.978  25.679  0.00  0.00    +0.062 C 
ATOM     24  C   UNL     1      -0.505   4.173  24.387  0.00  0.00    +0.146 C 
ATOM     25  C   UNL     1      -4.068   2.080  23.939  0.00  0.00    +0.010 A 
ATOM     26  C   UNL     1      -3.770   3.783  26.141  0.00  0.00    +0.124 A 
ATOM     27  C   UNL     1      -5.173   2.416  24.722  0.00  0.00    +0.004 A 
ATOM     28  C   UNL     1      -5.024   3.263  25.823  0.00  0.00    +0.046 A 
BRANCH  26   4
ATOM      4  O   UNL     1      -3.655   4.602  27.224  0.00  0.00    -0.495 OA
ATOM     29  C   UNL     1      -3.332   3.986  28.469  0.00  0.00    +0.277 C 
ENDBRANCH  26   4
ENDBRANCH  12  15
ENDBRANCH   7  12
BRANCH   8  13
ATOM     13  C   UNL     1      -1.303  -0.614  25.113  0.00  0.00    +0.124 C 
BRANCH  13  17
ATOM      3  O   UNL     1      -3.494  -0.987  26.115  0.00  0.00    -0.251 OA
ATOM     17  C   UNL     1      -2.661  -1.241  25.257  0.00  0.00    +0.305 C 
BRANCH  17   2
ATOM      2  O   UNL     1      -2.848  -2.159  24.273  0.00  0.00    -0.481 OA
ATOM     30  H   UNL     1      -2.177  -2.874  24.308  0.00  0.00    +0.295 HD
ENDBRANCH  17   2
ENDBRANCH  13  17
ENDBRANCH   8  13
TORSDOF 7
ENDMDL
MODEL 6
REMARK VINA RESULT:       3.6      2.035      5.103
REMARK  Name = 51136744
REMARK  11 active torsions:
REMARK  status: ('A' for Active; 'I' for Inactive)
REMARK    1  A    between atoms: O_2  and  C_17
REMARK    2  A    between atoms: O_4  and  C_26
REMARK    3  A    between atoms: O_4  and  C_29
REMARK    4  A    between atoms: C_7  and  C_12
REMARK    5  A    between atoms: C_8  and  C_13
REMARK    6  A    between atoms: C_12  and  C_15
REMARK    7  A    between atoms: C_13  and  C_17
REMARK    8  A    between atoms: C_14  and  C_16
REMARK    9  A    between atoms: C_16  and  C_19
REMARK   10  A    between atoms: C_16  and  C_20
REMARK   11  A    between atoms: C_16  and  C_21
REMARK                            x       y       z     vdW  Elec       q    Type
REMARK                         _______ _______ _______ _____ _____    ______ ____
ROOT
ATOM      1  O   UNL     1       3.814   1.846  22.365  0.00  0.00    -0.275 OA
ATOM      5  N   UNL     1       2.257   0.650  23.610  0.00  0.00    -0.301 N 
ATOM      7  C   UNL     1      -0.084   1.063  22.914  0.00  0.00    +0.016 C 
ATOM      8  C   UNL     1      -0.557  -0.144  23.763  0.00  0.00    +0.006 C 
ATOM      9  C   UNL     1       1.215   1.670  23.462  0.00  0.00    +0.112 C 
ATOM     10  C   UNL     1       0.598  -1.152  23.904  0.00  0.00    +0.023 C 
ATOM     11  C   UNL     1       1.881  -0.509  24.427  0.00  0.00    +0.108 C 
ATOM     14  C   UNL     1       3.517   0.863  23.049  0.00  0.00    +0.221 C 
ENDROOT
BRANCH  14  16
ATOM     16  C   UNL     1       4.561  -0.193  23.312  0.00  0.00    +0.039 C 
ATOM     19  C   UNL     1       5.465  -0.274  22.081  0.00  0.00    +0.020 C 
ATOM     20  C   UNL     1       3.861  -1.531  23.552  0.00  0.00    +0.020 C 
ATOM     21  C   UNL     1       5.372   0.211  24.545  0.00  0.00    +0.020 C 
ENDBRANCH  14  16
BRANCH   7  12
ATOM     12  C   UNL     1      -1.157   2.140  22.757  0.00  0.00    +0.061 C 
BRANCH  12  15
ATOM      6  N   UNL     1      -2.993   0.625  23.069  0.00  0.00    -0.287 NA
ATOM     15  C   UNL     1      -2.420   1.713  23.465  0.00  0.00    +0.044 C 
ATOM     18  C   UNL     1      -2.942   2.560  24.567  0.00  0.00    +0.003 A 
ATOM     22  C   UNL     1      -4.280   2.364  24.934  0.00  0.00    +0.005 A 
ATOM     23  C   UNL     1      -5.088   1.340  24.192  0.00  0.00    +0.062 C 
ATOM     24  C   UNL     1      -4.186   0.178  23.797  0.00  0.00    +0.146 C 
ATOM     25  C   UNL     1      -2.165   3.521  25.215  0.00  0.00    +0.010 A 
ATOM     26  C   UNL     1      -4.844   3.157  25.937  0.00  0.00    +0.124 A 
ATOM     27  C   UNL     1      -2.732   4.297  26.227  0.00  0.00    +0.004 A 
ATOM     28  C   UNL     1      -4.069   4.118  26.585  0.00  0.00    +0.046 A 
BRANCH  26   4
ATOM      4  O   UNL     1      -6.149   3.008  26.304  0.00  0.00    -0.495 OA
ATOM     29  C   UNL     1      -6.530   1.743  26.841  0.00  0.00    +0.277 C 
ENDBRANCH  26   4
ENDBRANCH  12  15
ENDBRANCH   7  12
BRANCH   8  13
ATOM     13  C   UNL     1      -1.118   0.241  25.138  0.00  0.00    +0.124 C 
BRANCH  13  17
ATOM      3  O   UNL     1      -2.287  -1.862  25.527  0.00  0.00    -0.251 OA
ATOM     17  C   UNL     1      -1.552  -0.968  25.919  0.00  0.00    +0.305 C 
BRANCH  17   2
ATOM      2  O   UNL     1      -1.001  -0.933  27.160  0.00  0.00    -0.481 OA
ATOM     30  H   UNL     1      -1.565  -0.443  27.796  0.00  0.00    +0.295 HD
ENDBRANCH  17   2
ENDBRANCH  13  17
ENDBRANCH   8  13
TORSDOF 7
ENDMDL
