MODEL 1
REMARK VINA RESULT:      -4.6      0.000      0.000
REMARK  Name = 51138170
REMARK  8 active torsions:
REMARK  status: ('A' for Active; 'I' for Inactive)
REMARK    1  A    between atoms: O_1  and  C_22
REMARK    2  A    between atoms: N_3  and  C_8
REMARK    3  A    between atoms: C_5  and  C_8
REMARK    4  A    between atoms: C_11  and  C_17
REMARK    5  A    between atoms: CA_16  and  C_22
REMARK    6  A    between atoms: C_17  and  C_18
REMARK    7  A    between atoms: C_18  and  C_23
REMARK    8  A    between atoms: C_18  and  C_24
REMARK                            x       y       z     vdW  Elec       q    Type
REMARK                         _______ _______ _______ _____ _____    ______ ____
ROOT
ATOM      3  N   UNL     1       1.146   0.277  23.478  0.00  0.00    -0.346 N 
ATOM      4  N   UNL     1      -3.082   2.602  24.968  0.00  0.00    -0.297 NA
ATOM      9  C   UNL     1      -0.882   0.625  24.364  0.00  0.00    +0.008 A 
ATOM     10  C   UNL     1       0.025  -0.360  23.954  0.00  0.00    +0.050 A 
ATOM     11  C   UNL     1      -3.228   1.202  25.389  0.00  0.00    +0.085 C 
ATOM     12  C   UNL     1      -0.233   1.890  24.150  0.00  0.00    -0.020 A 
ATOM     13  C   UNL     1      -2.148   0.237  24.889  0.00  0.00    -0.021 A 
ATOM     14  C   UNL     1       1.005   1.629  23.596  0.00  0.00    +0.090 A 
ATOM     15  C   UNL     1      -0.761   3.253  24.448  0.00  0.00    +0.067 C 
ATOM     16  CA  UNL     1      -1.890   3.268  25.475  0.00  0.00    +0.168 C 
ATOM     19  C   UNL     1      -0.232  -1.729  24.048  0.00  0.00    +0.026 A 
ATOM     20  C   UNL     1      -2.370  -1.157  25.021  0.00  0.00    +0.006 A 
ATOM     21  C   UNL     1      -1.446  -2.112  24.603  0.00  0.00    +0.002 A 
ATOM     25  H   UNL     1      -3.150   2.686  23.954  0.00  0.00    +0.123 HD
ENDROOT
BRANCH  16  22
ATOM      2  OXT UNL     1      -1.725   5.674  25.305  0.00  0.00    -0.249 OA
ATOM     22  C   UNL     1      -2.309   4.685  25.723  0.00  0.00    +0.322 C 
BRANCH  22   1
ATOM      1  O   UNL     1      -3.431   4.726  26.482  0.00  0.00    -0.480 OA
ATOM     26  H   UNL     1      -3.555   3.900  26.997  0.00  0.00    +0.295 HD
ENDBRANCH  22   1
ENDBRANCH  16  22
BRANCH   3   8
ATOM      8  C   UNL     1       2.324  -0.374  22.945  0.00  0.00    +0.125 C 
BRANCH   8   5
ATOM      5  C   UNL     1       3.559   0.424  23.224  0.00  0.00    +0.009 C 
ATOM      6  C   UNL     1       4.724   0.326  22.283  0.00  0.00    +0.005 C 
ATOM      7  C   UNL     1       4.810  -0.288  23.649  0.00  0.00    +0.005 C 
ENDBRANCH   8   5
ENDBRANCH   3   8
BRANCH  11  17
ATOM     17  C   UNL     1      -4.640   0.800  24.923  0.00  0.00    +0.026 C 
BRANCH  17  18
ATOM     18  C   UNL     1      -5.673   1.914  25.117  0.00  0.00    -0.015 C 
ATOM     23  C   UNL     1      -6.057   1.993  26.597  0.00  0.00    +0.007 C 
ATOM     24  C   UNL     1      -6.927   1.709  24.268  0.00  0.00    +0.007 C 
ENDBRANCH  17  18
ENDBRANCH  11  17
TORSDOF 6
ENDMDL
MODEL 2
REMARK VINA RESULT:      -4.3      2.671      3.983
REMARK  Name = 51138170
REMARK  8 active torsions:
REMARK  status: ('A' for Active; 'I' for Inactive)
REMARK    1  A    between atoms: O_1  and  C_22
REMARK    2  A    between atoms: N_3  and  C_8
REMARK    3  A    between atoms: C_5  and  C_8
REMARK    4  A    between atoms: C_11  and  C_17
REMARK    5  A    between atoms: CA_16  and  C_22
REMARK    6  A    between atoms: C_17  and  C_18
REMARK    7  A    between atoms: C_18  and  C_23
REMARK    8  A    between atoms: C_18  and  C_24
REMARK                            x       y       z     vdW  Elec       q    Type
REMARK                         _______ _______ _______ _____ _____    ______ ____
ROOT
ATOM      3  N   UNL     1       0.952   1.137  23.795  0.00  0.00    -0.346 N 
ATOM      4  N   UNL     1      -3.676  -0.262  25.254  0.00  0.00    -0.297 NA
ATOM      9  C   UNL     1      -1.217   1.236  24.345  0.00  0.00    +0.008 A 
ATOM     10  C   UNL     1      -0.073   2.002  24.094  0.00  0.00    +0.050 A 
ATOM     11  C   UNL     1      -3.762   1.180  24.983  0.00  0.00    +0.085 C 
ATOM     12  C   UNL     1      -0.840  -0.136  24.142  0.00  0.00    -0.020 A 
ATOM     13  C   UNL     1      -2.434   1.888  24.697  0.00  0.00    -0.021 A 
ATOM     14  C   UNL     1       0.502  -0.151  23.815  0.00  0.00    +0.090 A 
ATOM     15  C   UNL     1      -1.700  -1.350  24.257  0.00  0.00    +0.067 C 
ATOM     16  CA  UNL     1      -3.195  -1.063  24.137  0.00  0.00    +0.168 C 
ATOM     19  C   UNL     1      -0.054   3.398  24.149  0.00  0.00    +0.026 A 
ATOM     20  C   UNL     1      -2.406   3.305  24.701  0.00  0.00    +0.006 A 
ATOM     21  C   UNL     1      -1.249   4.039  24.446  0.00  0.00    +0.002 A 
ATOM     25  H   UNL     1      -3.133  -0.441  26.098  0.00  0.00    +0.123 HD
ENDROOT
BRANCH  16  22
ATOM      2  OXT UNL     1      -4.827  -2.709  23.451  0.00  0.00    -0.249 OA
ATOM     22  C   UNL     1      -3.951  -2.353  24.225  0.00  0.00    +0.322 C 
BRANCH  22   1
ATOM      1  O   UNL     1      -3.531  -3.081  25.290  0.00  0.00    -0.480 OA
ATOM     26  H   UNL     1      -3.647  -2.594  26.134  0.00  0.00    +0.295 HD
ENDBRANCH  22   1
ENDBRANCH  16  22
BRANCH   3   8
ATOM      8  C   UNL     1       2.313   1.517  23.483  0.00  0.00    +0.125 C 
BRANCH   8   5
ATOM      5  C   UNL     1       3.128   0.332  23.069  0.00  0.00    +0.009 C 
ATOM      6  C   UNL     1       4.622   0.386  23.200  0.00  0.00    +0.005 C 
ATOM      7  C   UNL     1       3.986   0.425  21.842  0.00  0.00    +0.005 C 
ENDBRANCH   8   5
ENDBRANCH   3   8
BRANCH  11  17
ATOM     17  C   UNL     1      -4.491   1.763  26.208  0.00  0.00    +0.026 C 
BRANCH  17  18
ATOM     18  C   UNL     1      -5.801   2.467  25.845  0.00  0.00    -0.015 C 
ATOM     23  C   UNL     1      -6.450   1.747  24.661  0.00  0.00    +0.007 C 
ATOM     24  C   UNL     1      -5.602   3.945  25.505  0.00  0.00    +0.007 C 
ENDBRANCH  17  18
ENDBRANCH  11  17
TORSDOF 6
ENDMDL
MODEL 3
REMARK VINA RESULT:      -3.8      0.615      1.083
REMARK  Name = 51138170
REMARK  8 active torsions:
REMARK  status: ('A' for Active; 'I' for Inactive)
REMARK    1  A    between atoms: O_1  and  C_22
REMARK    2  A    between atoms: N_3  and  C_8
REMARK    3  A    between atoms: C_5  and  C_8
REMARK    4  A    between atoms: C_11  and  C_17
REMARK    5  A    between atoms: CA_16  and  C_22
REMARK    6  A    between atoms: C_17  and  C_18
REMARK    7  A    between atoms: C_18  and  C_23
REMARK    8  A    between atoms: C_18  and  C_24
REMARK                            x       y       z     vdW  Elec       q    Type
REMARK                         _______ _______ _______ _____ _____    ______ ____
ROOT
ATOM      3  N   UNL     1       1.396   0.248  23.358  0.00  0.00    -0.346 N 
ATOM      4  N   UNL     1      -2.719   2.813  24.766  0.00  0.00    -0.297 NA
ATOM      9  C   UNL     1      -0.622   0.714  24.212  0.00  0.00    +0.008 A 
ATOM     10  C   UNL     1       0.236  -0.323  23.824  0.00  0.00    +0.050 A 
ATOM     11  C   UNL     1      -2.946   1.428  25.199  0.00  0.00    +0.085 C 
ATOM     12  C   UNL     1       0.097   1.939  23.994  0.00  0.00    -0.020 A 
ATOM     13  C   UNL     1      -1.914   0.400  24.724  0.00  0.00    -0.021 A 
ATOM     14  C   UNL     1       1.327   1.606  23.460  0.00  0.00    +0.090 A 
ATOM     15  C   UNL     1      -0.360   3.332  24.271  0.00  0.00    +0.067 C 
ATOM     16  CA  UNL     1      -1.500   3.420  25.283  0.00  0.00    +0.168 C 
ATOM     19  C   UNL     1      -0.096  -1.675  23.929  0.00  0.00    +0.026 A 
ATOM     20  C   UNL     1      -2.213  -0.978  24.867  0.00  0.00    +0.006 A 
ATOM     21  C   UNL     1      -1.336  -1.986  24.471  0.00  0.00    +0.002 A 
ATOM     25  H   UNL     1      -2.769   2.890  23.751  0.00  0.00    +0.123 HD
ENDROOT
BRANCH  16  22
ATOM      2  OXT UNL     1      -2.802   5.260  26.156  0.00  0.00    -0.249 OA
ATOM     22  C   UNL     1      -1.844   4.860  25.510  0.00  0.00    +0.322 C 
BRANCH  22   1
ATOM      1  O   UNL     1      -0.945   5.669  24.898  0.00  0.00    -0.480 OA
ATOM     26  H   UNL     1      -0.658   6.405  25.481  0.00  0.00    +0.295 HD
ENDBRANCH  22   1
ENDBRANCH  16  22
BRANCH   3   8
ATOM      8  C   UNL     1       2.543  -0.472  22.847  0.00  0.00    +0.125 C 
BRANCH   8   5
ATOM      5  C   UNL     1       3.731  -0.306  23.742  0.00  0.00    +0.009 C 
ATOM      6  C   UNL     1       5.053   0.075  23.143  0.00  0.00    +0.005 C 
ATOM      7  C   UNL     1       4.844  -1.311  23.676  0.00  0.00    +0.005 C 
ENDBRANCH   8   5
ENDBRANCH   3   8
BRANCH  11  17
ATOM     17  C   UNL     1      -4.371   1.098  24.718  0.00  0.00    +0.026 C 
BRANCH  17  18
ATOM     18  C   UNL     1      -5.454   1.864  25.484  0.00  0.00    -0.015 C 
ATOM     23  C   UNL     1      -6.808   1.637  24.807  0.00  0.00    +0.007 C 
ATOM     24  C   UNL     1      -5.165   3.362  25.573  0.00  0.00    +0.007 C 
ENDBRANCH  17  18
ENDBRANCH  11  17
TORSDOF 6
ENDMDL
MODEL 4
REMARK VINA RESULT:      -3.4      2.553      7.249
REMARK  Name = 51138170
REMARK  8 active torsions:
REMARK  status: ('A' for Active; 'I' for Inactive)
REMARK    1  A    between atoms: O_1  and  C_22
REMARK    2  A    between atoms: N_3  and  C_8
REMARK    3  A    between atoms: C_5  and  C_8
REMARK    4  A    between atoms: C_11  and  C_17
REMARK    5  A    between atoms: CA_16  and  C_22
REMARK    6  A    between atoms: C_17  and  C_18
REMARK    7  A    between atoms: C_18  and  C_23
REMARK    8  A    between atoms: C_18  and  C_24
REMARK                            x       y       z     vdW  Elec       q    Type
REMARK                         _______ _______ _______ _____ _____    ______ ____
ROOT
ATOM      3  N   UNL     1      -3.962   3.057  25.143  0.00  0.00    -0.346 N 
ATOM      4  N   UNL     1      -0.036   0.036  24.163  0.00  0.00    -0.297 NA
ATOM      9  C   UNL     1      -1.859   2.341  24.851  0.00  0.00    +0.008 A 
ATOM     10  C   UNL     1      -2.661   3.479  25.004  0.00  0.00    +0.050 A 
ATOM     11  C   UNL     1       0.543   1.342  24.507  0.00  0.00    +0.085 C 
ATOM     12  C   UNL     1      -2.739   1.208  24.947  0.00  0.00    -0.020 A 
ATOM     13  C   UNL     1      -0.454   2.493  24.670  0.00  0.00    -0.021 A 
ATOM     14  C   UNL     1      -4.020   1.694  25.117  0.00  0.00    +0.090 A 
ATOM     15  C   UNL     1      -2.381  -0.238  24.877  0.00  0.00    +0.067 C 
ATOM     16  CA  UNL     1      -0.912  -0.528  25.180  0.00  0.00    +0.168 C 
ATOM     19  C   UNL     1      -2.156   4.781  25.009  0.00  0.00    +0.026 A 
ATOM     20  C   UNL     1       0.044   3.819  24.727  0.00  0.00    +0.006 A 
ATOM     21  C   UNL     1      -0.782   4.931  24.881  0.00  0.00    +0.002 A 
ATOM     25  H   UNL     1      -0.498   0.070  23.255  0.00  0.00    +0.123 HD
ENDROOT
BRANCH  16  22
ATOM      2  OXT UNL     1      -1.450  -2.819  24.626  0.00  0.00    -0.249 OA
ATOM     22  C   UNL     1      -0.682  -2.007  25.120  0.00  0.00    +0.322 C 
BRANCH  22   1
ATOM      1  O   UNL     1       0.503  -2.330  25.695  0.00  0.00    -0.480 OA
ATOM     26  H   UNL     1       0.615  -3.300  25.785  0.00  0.00    +0.295 HD
ENDBRANCH  22   1
ENDBRANCH  16  22
BRANCH   3   8
ATOM      8  C   UNL     1      -5.113   3.916  25.314  0.00  0.00    +0.125 C 
BRANCH   8   5
ATOM      5  C   UNL     1      -6.333   3.126  25.671  0.00  0.00    +0.009 C 
ATOM      6  C   UNL     1      -6.180   1.839  26.426  0.00  0.00    +0.005 C 
ATOM      7  C   UNL     1      -6.586   1.817  24.982  0.00  0.00    +0.005 C 
ENDBRANCH   8   5
ENDBRANCH   3   8
BRANCH  11  17
ATOM     17  C   UNL     1       1.580   1.611  23.401  0.00  0.00    +0.026 C 
BRANCH  17  18
ATOM     18  C   UNL     1       2.354   0.356  22.988  0.00  0.00    -0.015 C 
ATOM     23  C   UNL     1       3.827   0.717  22.782  0.00  0.00    +0.007 C 
ATOM     24  C   UNL     1       1.798  -0.289  21.719  0.00  0.00    +0.007 C 
ENDBRANCH  17  18
ENDBRANCH  11  17
TORSDOF 6
ENDMDL
MODEL 5
REMARK VINA RESULT:      -3.3      3.657      4.985
REMARK  Name = 51138170
REMARK  8 active torsions:
REMARK  status: ('A' for Active; 'I' for Inactive)
REMARK    1  A    between atoms: O_1  and  C_22
REMARK    2  A    between atoms: N_3  and  C_8
REMARK    3  A    between atoms: C_5  and  C_8
REMARK    4  A    between atoms: C_11  and  C_17
REMARK    5  A    between atoms: CA_16  and  C_22
REMARK    6  A    between atoms: C_17  and  C_18
REMARK    7  A    between atoms: C_18  and  C_23
REMARK    8  A    between atoms: C_18  and  C_24
REMARK                            x       y       z     vdW  Elec       q    Type
REMARK                         _______ _______ _______ _____ _____    ______ ____
ROOT
ATOM      3  N   UNL     1       0.064   2.343  26.505  0.00  0.00    -0.346 N 
ATOM      4  N   UNL     1      -4.092   0.136  24.672  0.00  0.00    -0.297 NA
ATOM      9  C   UNL     1      -1.857   2.033  25.397  0.00  0.00    +0.008 A 
ATOM     10  C   UNL     1      -0.946   2.998  25.841  0.00  0.00    +0.050 A 
ATOM     11  C   UNL     1      -4.092   1.500  24.127  0.00  0.00    +0.085 C 
ATOM     12  C   UNL     1      -1.325   0.757  25.792  0.00  0.00    -0.020 A 
ATOM     13  C   UNL     1      -3.021   2.444  24.684  0.00  0.00    -0.021 A 
ATOM     14  C   UNL     1      -0.149   0.996  26.477  0.00  0.00    +0.090 A 
ATOM     15  C   UNL     1      -1.900  -0.595  25.536  0.00  0.00    +0.067 C 
ATOM     16  CA  UNL     1      -2.893  -0.637  24.377  0.00  0.00    +0.168 C 
ATOM     19  C   UNL     1      -1.098   4.366  25.607  0.00  0.00    +0.026 A 
ATOM     20  C   UNL     1      -3.133   3.831  24.416  0.00  0.00    +0.006 A 
ATOM     21  C   UNL     1      -2.206   4.766  24.872  0.00  0.00    +0.002 A 
ATOM     25  H   UNL     1      -4.289   0.143  25.673  0.00  0.00    +0.123 HD
ENDROOT
BRANCH  16  22
ATOM      2  OXT UNL     1      -4.475  -2.363  23.779  0.00  0.00    -0.249 OA
ATOM     22  C   UNL     1      -3.370  -2.045  24.189  0.00  0.00    +0.322 C 
BRANCH  22   1
ATOM      1  O   UNL     1      -2.402  -2.927  24.541  0.00  0.00    -0.480 OA
ATOM     26  H   UNL     1      -1.674  -2.952  23.884  0.00  0.00    +0.295 HD
ENDBRANCH  22   1
ENDBRANCH  16  22
BRANCH   3   8
ATOM      8  C   UNL     1       1.207   2.972  27.132  0.00  0.00    +0.125 C 
BRANCH   8   5
ATOM      5  C   UNL     1       1.633   2.226  28.358  0.00  0.00    +0.009 C 
ATOM      6  C   UNL     1       1.143   2.681  29.701  0.00  0.00    +0.005 C 
ATOM      7  C   UNL     1       2.581   2.880  29.321  0.00  0.00    +0.005 C 
ENDBRANCH   8   5
ENDBRANCH   3   8
BRANCH  11  17
ATOM     17  C   UNL     1      -5.521   2.018  24.376  0.00  0.00    +0.026 C 
BRANCH  17  18
ATOM     18  C   UNL     1      -5.691   2.668  25.751  0.00  0.00    -0.015 C 
ATOM     23  C   UNL     1      -6.643   1.818  26.597  0.00  0.00    +0.007 C 
ATOM     24  C   UNL     1      -6.216   4.101  25.666  0.00  0.00    +0.007 C 
ENDBRANCH  17  18
ENDBRANCH  11  17
TORSDOF 6
ENDMDL
MODEL 6
REMARK VINA RESULT:      -2.8      1.090      1.466
REMARK  Name = 51138170
REMARK  8 active torsions:
REMARK  status: ('A' for Active; 'I' for Inactive)
REMARK    1  A    between atoms: O_1  and  C_22
REMARK    2  A    between atoms: N_3  and  C_8
REMARK    3  A    between atoms: C_5  and  C_8
REMARK    4  A    between atoms: C_11  and  C_17
REMARK    5  A    between atoms: CA_16  and  C_22
REMARK    6  A    between atoms: C_17  and  C_18
REMARK    7  A    between atoms: C_18  and  C_23
REMARK    8  A    between atoms: C_18  and  C_24
REMARK                            x       y       z     vdW  Elec       q    Type
REMARK                         _______ _______ _______ _____ _____    ______ ____
ROOT
ATOM      3  N   UNL     1       1.509   0.364  23.417  0.00  0.00    -0.346 N 
ATOM      4  N   UNL     1      -2.805   2.319  25.171  0.00  0.00    -0.297 NA
ATOM      9  C   UNL     1      -0.450   0.558  24.487  0.00  0.00    +0.008 A 
ATOM     10  C   UNL     1       0.525  -0.351  24.059  0.00  0.00    +0.050 A 
ATOM     11  C   UNL     1      -2.737   0.955  25.712  0.00  0.00    +0.085 C 
ATOM     12  C   UNL     1       0.016   1.864  24.106  0.00  0.00    -0.020 A 
ATOM     13  C   UNL     1      -1.601   0.078  25.175  0.00  0.00    -0.021 A 
ATOM     14  C   UNL     1       1.216   1.696  23.444  0.00  0.00    +0.090 A 
ATOM     15  C   UNL     1      -0.643   3.180  24.353  0.00  0.00    +0.067 C 
ATOM     16  CA  UNL     1      -1.659   3.159  25.492  0.00  0.00    +0.168 C 
ATOM     19  C   UNL     1       0.448  -1.726  24.286  0.00  0.00    +0.026 A 
ATOM     20  C   UNL     1      -1.638  -1.315  25.438  0.00  0.00    +0.006 A 
ATOM     21  C   UNL     1      -0.650  -2.193  24.998  0.00  0.00    +0.002 A 
ATOM     25  H   UNL     1      -2.981   2.304  24.167  0.00  0.00    +0.123 HD
ENDROOT
BRANCH  16  22
ATOM      2  OXT UNL     1      -1.728   5.561  25.225  0.00  0.00    -0.249 OA
ATOM     22  C   UNL     1      -2.221   4.536  25.673  0.00  0.00    +0.322 C 
BRANCH  22   1
ATOM      1  O   UNL     1      -3.358   4.495  26.409  0.00  0.00    -0.480 OA
ATOM     26  H   UNL     1      -4.133   4.828  25.906  0.00  0.00    +0.295 HD
ENDBRANCH  22   1
ENDBRANCH  16  22
BRANCH   3   8
ATOM      8  C   UNL     1       2.698  -0.195  22.812  0.00  0.00    +0.125 C 
BRANCH   8   5
ATOM      5  C   UNL     1       3.931   0.226  23.548  0.00  0.00    +0.009 C 
ATOM      6  C   UNL     1       5.262   0.140  22.859  0.00  0.00    +0.005 C 
ATOM      7  C   UNL     1       4.927  -0.817  23.964  0.00  0.00    +0.005 C 
ENDBRANCH   8   5
ENDBRANCH   3   8
BRANCH  11  17
ATOM     17  C   UNL     1      -4.128   0.356  25.434  0.00  0.00    +0.026 C 
BRANCH  17  18
ATOM     18  C   UNL     1      -4.351   0.024  23.956  0.00  0.00    -0.015 C 
ATOM     23  C   UNL     1      -4.242  -1.489  23.757  0.00  0.00    +0.007 C 
ATOM     24  C   UNL     1      -3.363   0.740  23.035  0.00  0.00    +0.007 C 
ENDBRANCH  17  18
ENDBRANCH  11  17
TORSDOF 6
ENDMDL
MODEL 7
REMARK VINA RESULT:      -2.2      2.988      7.034
REMARK  Name = 51138170
REMARK  8 active torsions:
REMARK  status: ('A' for Active; 'I' for Inactive)
REMARK    1  A    between atoms: O_1  and  C_22
REMARK    2  A    between atoms: N_3  and  C_8
REMARK    3  A    between atoms: C_5  and  C_8
REMARK    4  A    between atoms: C_11  and  C_17
REMARK    5  A    between atoms: CA_16  and  C_22
REMARK    6  A    between atoms: C_17  and  C_18
REMARK    7  A    between atoms: C_18  and  C_23
REMARK    8  A    between atoms: C_18  and  C_24
REMARK                            x       y       z     vdW  Elec       q    Type
REMARK                         _______ _______ _______ _____ _____    ______ ____
ROOT
ATOM      3  N   UNL     1      -3.465   3.125  24.249  0.00  0.00    -0.346 N 
ATOM      4  N   UNL     1      -1.226  -1.387  23.887  0.00  0.00    -0.297 NA
ATOM      9  C   UNL     1      -1.955   1.484  24.468  0.00  0.00    +0.008 A 
ATOM     10  C   UNL     1      -2.165   2.861  24.611  0.00  0.00    +0.050 A 
ATOM     11  C   UNL     1      -0.307  -0.548  24.668  0.00  0.00    +0.085 C 
ATOM     12  C   UNL     1      -3.208   0.924  24.040  0.00  0.00    -0.020 A 
ATOM     13  C   UNL     1      -0.674   0.936  24.764  0.00  0.00    -0.021 A 
ATOM     14  C   UNL     1      -4.103   1.968  23.910  0.00  0.00    +0.090 A 
ATOM     15  C   UNL     1      -3.528  -0.508  23.770  0.00  0.00    +0.067 C 
ATOM     16  CA  UNL     1      -2.570  -1.492  24.437  0.00  0.00    +0.168 C 
ATOM     19  C   UNL     1      -1.181   3.747  25.055  0.00  0.00    +0.026 A 
ATOM     20  C   UNL     1       0.296   1.844  25.258  0.00  0.00    +0.006 A 
ATOM     21  C   UNL     1       0.055   3.210  25.390  0.00  0.00    +0.002 A 
ATOM     25  H   UNL     1      -1.249  -1.092  22.911  0.00  0.00    +0.123 HD
ENDROOT
BRANCH  16  22
ATOM      2  OXT UNL     1      -4.158  -3.303  24.227  0.00  0.00    -0.249 OA
ATOM     22  C   UNL     1      -3.012  -2.891  24.131  0.00  0.00    +0.322 C 
BRANCH  22   1
ATOM      1  O   UNL     1      -1.961  -3.646  23.729  0.00  0.00    -0.480 OA
ATOM     26  H   UNL     1      -2.175  -4.604  23.733  0.00  0.00    +0.295 HD
ENDBRANCH  22   1
ENDBRANCH  16  22
BRANCH   3   8
ATOM      8  C   UNL     1      -4.089   4.430  24.242  0.00  0.00    +0.125 C 
BRANCH   8   5
ATOM      5  C   UNL     1      -4.850   4.676  25.507  0.00  0.00    +0.009 C 
ATOM      6  C   UNL     1      -5.492   3.518  26.215  0.00  0.00    +0.005 C 
ATOM      7  C   UNL     1      -6.344   4.528  25.505  0.00  0.00    +0.005 C 
ENDBRANCH   8   5
ENDBRANCH   3   8
BRANCH  11  17
ATOM     17  C   UNL     1       1.072  -0.775  24.020  0.00  0.00    +0.026 C 
BRANCH  17  18
ATOM     18  C   UNL     1       1.346   0.176  22.851  0.00  0.00    -0.015 C 
ATOM     23  C   UNL     1       1.142  -0.573  21.532  0.00  0.00    +0.007 C 
ATOM     24  C   UNL     1       2.754   0.772  22.894  0.00  0.00    +0.007 C 
ENDBRANCH  17  18
ENDBRANCH  11  17
TORSDOF 6
ENDMDL
MODEL 8
REMARK VINA RESULT:      -1.5      1.616      2.651
REMARK  Name = 51138170
REMARK  8 active torsions:
REMARK  status: ('A' for Active; 'I' for Inactive)
REMARK    1  A    between atoms: O_1  and  C_22
REMARK    2  A    between atoms: N_3  and  C_8
REMARK    3  A    between atoms: C_5  and  C_8
REMARK    4  A    between atoms: C_11  and  C_17
REMARK    5  A    between atoms: CA_16  and  C_22
REMARK    6  A    between atoms: C_17  and  C_18
REMARK    7  A    between atoms: C_18  and  C_23
REMARK    8  A    between atoms: C_18  and  C_24
REMARK                            x       y       z     vdW  Elec       q    Type
REMARK                         _______ _______ _______ _____ _____    ______ ____
ROOT
ATOM      3  N   UNL     1       0.661   1.703  23.885  0.00  0.00    -0.346 N 
ATOM      4  N   UNL     1      -4.306   1.314  24.710  0.00  0.00    -0.297 NA
ATOM      9  C   UNL     1      -1.333   0.856  24.456  0.00  0.00    +0.008 A 
ATOM     10  C   UNL     1       0.004   0.536  24.194  0.00  0.00    +0.050 A 
ATOM     11  C   UNL     1      -3.733   0.024  25.117  0.00  0.00    +0.085 C 
ATOM     12  C   UNL     1      -1.441   2.284  24.329  0.00  0.00    -0.020 A 
ATOM     13  C   UNL     1      -2.250  -0.181  24.791  0.00  0.00    -0.021 A 
ATOM     14  C   UNL     1      -0.196   2.761  23.968  0.00  0.00    +0.090 A 
ATOM     15  C   UNL     1      -2.651   3.133  24.533  0.00  0.00    +0.067 C 
ATOM     16  CA  UNL     1      -3.735   2.473  25.381  0.00  0.00    +0.168 C 
ATOM     19  C   UNL     1       0.511  -0.764  24.262  0.00  0.00    +0.026 A 
ATOM     20  C   UNL     1      -1.705  -1.486  24.901  0.00  0.00    +0.006 A 
ATOM     21  C   UNL     1      -0.368  -1.772  24.634  0.00  0.00    +0.002 A 
ATOM     25  H   UNL     1      -4.276   1.422  23.696  0.00  0.00    +0.123 HD
ENDROOT
BRANCH  16  22
ATOM      2  OXT UNL     1      -4.909   4.568  25.111  0.00  0.00    -0.249 OA
ATOM     22  C   UNL     1      -4.876   3.429  25.552  0.00  0.00    +0.322 C 
BRANCH  22   1
ATOM      1  O   UNL     1      -5.875   2.858  26.268  0.00  0.00    -0.480 OA
ATOM     26  H   UNL     1      -5.763   3.002  27.232  0.00  0.00    +0.295 HD
ENDBRANCH  22   1
ENDBRANCH  16  22
BRANCH   3   8
ATOM      8  C   UNL     1       2.061   1.817  23.538  0.00  0.00    +0.125 C 
BRANCH   8   5
ATOM      5  C   UNL     1       2.561   0.570  22.880  0.00  0.00    +0.009 C 
ATOM      6  C   UNL     1       3.856  -0.034  23.339  0.00  0.00    +0.005 C 
ATOM      7  C   UNL     1       3.776   0.641  22.001  0.00  0.00    +0.005 C 
ENDBRANCH   8   5
ENDBRANCH   3   8
BRANCH  11  17
ATOM     17  C   UNL     1      -4.635  -1.031  24.450  0.00  0.00    +0.026 C 
BRANCH  17  18
ATOM     18  C   UNL     1      -3.878  -2.303  24.057  0.00  0.00    -0.015 C 
ATOM     23  C   UNL     1      -4.654  -3.032  22.957  0.00  0.00    +0.007 C 
ATOM     24  C   UNL     1      -3.651  -3.244  25.240  0.00  0.00    +0.007 C 
ENDBRANCH  17  18
ENDBRANCH  11  17
TORSDOF 6
ENDMDL
MODEL 9
REMARK VINA RESULT:      -1.1      2.289      5.056
REMARK  Name = 51138170
REMARK  8 active torsions:
REMARK  status: ('A' for Active; 'I' for Inactive)
REMARK    1  A    between atoms: O_1  and  C_22
REMARK    2  A    between atoms: N_3  and  C_8
REMARK    3  A    between atoms: C_5  and  C_8
REMARK    4  A    between atoms: C_11  and  C_17
REMARK    5  A    between atoms: CA_16  and  C_22
REMARK    6  A    between atoms: C_17  and  C_18
REMARK    7  A    between atoms: C_18  and  C_23
REMARK    8  A    between atoms: C_18  and  C_24
REMARK                            x       y       z     vdW  Elec       q    Type
REMARK                         _______ _______ _______ _____ _____    ______ ____
ROOT
ATOM      3  N   UNL     1      -2.356  -1.538  24.825  0.00  0.00    -0.346 N 
ATOM      4  N   UNL     1      -3.309   3.320  25.818  0.00  0.00    -0.297 NA
ATOM      9  C   UNL     1      -2.166   0.694  24.865  0.00  0.00    +0.008 A 
ATOM     10  C   UNL     1      -1.502  -0.497  24.548  0.00  0.00    +0.050 A 
ATOM     11  C   UNL     1      -2.105   3.315  24.977  0.00  0.00    +0.085 C 
ATOM     12  C   UNL     1      -3.482   0.319  25.309  0.00  0.00    -0.020 A 
ATOM     13  C   UNL     1      -1.497   1.939  24.687  0.00  0.00    -0.021 A 
ATOM     14  C   UNL     1      -3.550  -1.060  25.277  0.00  0.00    +0.090 A 
ATOM     15  C   UNL     1      -4.594   1.216  25.739  0.00  0.00    +0.067 C 
ATOM     16  CA  UNL     1      -4.463   2.651  25.233  0.00  0.00    +0.168 C 
ATOM     19  C   UNL     1      -0.203  -0.540  24.038  0.00  0.00    +0.026 A 
ATOM     20  C   UNL     1      -0.198   1.876  24.124  0.00  0.00    +0.006 A 
ATOM     21  C   UNL     1       0.436   0.673  23.819  0.00  0.00    +0.002 A 
ATOM     25  H   UNL     1      -3.105   2.958  26.749  0.00  0.00    +0.123 HD
ENDROOT
BRANCH  16  22
ATOM      2  OXT UNL     1      -5.895   4.594  25.363  0.00  0.00    -0.249 OA
ATOM     22  C   UNL     1      -5.650   3.442  25.690  0.00  0.00    +0.322 C 
BRANCH  22   1
ATOM      1  O   UNL     1      -6.423   2.705  26.524  0.00  0.00    -0.480 OA
ATOM     26  H   UNL     1      -7.214   3.202  26.826  0.00  0.00    +0.295 HD
ENDBRANCH  22   1
ENDBRANCH  16  22
BRANCH   3   8
ATOM      8  C   UNL     1      -2.057  -2.943  24.649  0.00  0.00    +0.125 C 
BRANCH   8   5
ATOM      5  C   UNL     1      -3.006  -3.585  23.687  0.00  0.00    +0.009 C 
ATOM      6  C   UNL     1      -4.212  -2.820  23.224  0.00  0.00    +0.005 C 
ATOM      7  C   UNL     1      -4.374  -3.981  24.161  0.00  0.00    +0.005 C 
ENDBRANCH   8   5
ENDBRANCH   3   8
BRANCH  11  17
ATOM     17  C   UNL     1      -1.121   4.254  25.700  0.00  0.00    +0.026 C 
BRANCH  17  18
ATOM     18  C   UNL     1      -0.752   5.486  24.870  0.00  0.00    -0.015 C 
ATOM     23  C   UNL     1      -1.989   6.372  24.702  0.00  0.00    +0.007 C 
ATOM     24  C   UNL     1      -0.185   5.125  23.497  0.00  0.00    +0.007 C 
ENDBRANCH  17  18
ENDBRANCH  11  17
TORSDOF 6
ENDMDL
