MODEL 1
REMARK VINA RESULT:       4.1      0.000      0.000
REMARK  Name = 28961385
REMARK  8 active torsions:
REMARK  status: ('A' for Active; 'I' for Inactive)
REMARK    1  A    between atoms: O_3  and  C_12
REMARK    2  A    between atoms: O_4  and  C_19
REMARK    3  A    between atoms: N_6  and  C_10
REMARK    4  A    between atoms: N_7  and  C_20
REMARK    5  A    between atoms: N_8  and  C_16
REMARK    6  A    between atoms: N_9  and  C_27
REMARK    7  A    between atoms: C_11  and  C_16
REMARK    8  A    between atoms: C_13  and  C_19
REMARK                            x       y       z     vdW  Elec       q    Type
REMARK                         _______ _______ _______ _____ _____    ______ ____
ROOT
ATOM      2  O   UNL     1       4.641   1.273  22.915  0.00  0.00    -0.365 OA
ATOM     10  C   UNL     1       2.916  -0.233  22.266  0.00  0.00    +0.118 C 
ATOM     11  C   UNL     1       3.213   1.208  22.703  0.00  0.00    +0.155 C 
ATOM     12  C   UNL     1       4.062  -1.021  22.884  0.00  0.00    +0.165 C 
ATOM     13  C   UNL     1       5.208  -0.034  22.707  0.00  0.00    +0.174 C 
ENDROOT
BRANCH  10   6
ATOM      6  N   UNL     1       1.587  -0.734  22.568  0.00  0.00    -0.292 NA
ATOM      7  N   UNL     1      -0.985  -0.719  23.813  0.00  0.00    -0.327 N 
ATOM     14  C   UNL     1       1.455  -1.013  24.004  0.00  0.00    +0.104 C 
ATOM     15  C   UNL     1       0.565   0.235  22.153  0.00  0.00    +0.104 C 
ATOM     17  C   UNL     1       0.076  -1.595  24.326  0.00  0.00    +0.120 C 
ATOM     18  C   UNL     1      -0.844  -0.304  22.413  0.00  0.00    +0.120 C 
BRANCH   7  20
ATOM     20  C   UNL     1      -2.260  -0.830  24.378  0.00  0.00    +0.030 A 
ATOM     22  C   UNL     1      -3.377  -0.974  23.555  0.00  0.00    +0.023 A 
ATOM     23  C   UNL     1      -2.414  -0.795  25.765  0.00  0.00    +0.023 A 
ATOM     24  C   UNL     1      -4.648  -1.084  24.119  0.00  0.00    +0.002 A 
ATOM     25  C   UNL     1      -3.685  -0.906  26.328  0.00  0.00    +0.002 A 
ATOM     26  C   UNL     1      -4.803  -1.050  25.505  0.00  0.00    +0.000 A 
ENDBRANCH   7  20
ENDBRANCH  10   6
BRANCH  12   3
ATOM      3  O   UNL     1       3.834  -1.276  24.264  0.00  0.00    -0.388 OA
ATOM     33  H   UNL     1       4.376  -2.043  24.514  0.00  0.00    +0.210 HD
ENDBRANCH  12   3
BRANCH  11  16
ATOM     16  C   UNL     1       2.543   1.685  23.986  0.00  0.00    +0.139 C 
BRANCH  16   8
ATOM      5  O   UNL     1       0.404   2.033  25.860  0.00  0.00    -0.253 OA
ATOM      8  N   UNL     1       1.248   2.237  23.717  0.00  0.00    -0.297 N 
ATOM      9  N   UNL     1      -0.905   2.943  24.138  0.00  0.00    -0.269 N 
ATOM     21  C   UNL     1       0.246   2.376  24.691  0.00  0.00    +0.304 C 
ATOM     34  H   UNL     1       1.051   2.555  22.773  0.00  0.00    +0.150 HD
ATOM     36  H   UNL     1      -0.871   3.171  23.147  0.00  0.00    +0.156 HD
BRANCH   9  27
ATOM      1 CL   UNL     1      -5.930   2.016  24.650  0.00  0.00    -0.083 Cl
ATOM     27  C   UNL     1      -2.125   3.242  24.790  0.00  0.00    +0.036 A 
ATOM     28  C   UNL     1      -3.290   2.561  24.439  0.00  0.00    +0.043 A 
ATOM     29  C   UNL     1      -2.161   4.220  25.784  0.00  0.00    +0.023 A 
ATOM     30  C   UNL     1      -4.492   2.857  25.082  0.00  0.00    +0.043 A 
ATOM     31  C   UNL     1      -3.363   4.516  26.428  0.00  0.00    +0.003 A 
ATOM     32  C   UNL     1      -4.528   3.833  26.078  0.00  0.00    +0.020 A 
ENDBRANCH   9  27
ENDBRANCH  16   8
ENDBRANCH  11  16
BRANCH  13  19
ATOM     19  C   UNL     1       6.385  -0.224  23.648  0.00  0.00    +0.190 C 
BRANCH  19   4
ATOM      4  O   UNL     1       5.894  -0.559  24.936  0.00  0.00    -0.392 OA
ATOM     35  H   UNL     1       6.665  -0.677  25.516  0.00  0.00    +0.210 HD
ENDBRANCH  19   4
ENDBRANCH  13  19
TORSDOF 8
ENDMDL
MODEL 2
REMARK VINA RESULT:       4.3      3.076      7.322
REMARK  Name = 28961385
REMARK  8 active torsions:
REMARK  status: ('A' for Active; 'I' for Inactive)
REMARK    1  A    between atoms: O_3  and  C_12
REMARK    2  A    between atoms: O_4  and  C_19
REMARK    3  A    between atoms: N_6  and  C_10
REMARK    4  A    between atoms: N_7  and  C_20
REMARK    5  A    between atoms: N_8  and  C_16
REMARK    6  A    between atoms: N_9  and  C_27
REMARK    7  A    between atoms: C_11  and  C_16
REMARK    8  A    between atoms: C_13  and  C_19
REMARK                            x       y       z     vdW  Elec       q    Type
REMARK                         _______ _______ _______ _____ _____    ______ ____
ROOT
ATOM      2  O   UNL     1      -4.981   4.641  24.758  0.00  0.00    -0.365 OA
ATOM     10  C   UNL     1      -2.717   4.531  25.483  0.00  0.00    +0.118 C 
ATOM     11  C   UNL     1      -3.626   4.754  24.267  0.00  0.00    +0.155 C 
ATOM     12  C   UNL     1      -3.578   3.681  26.404  0.00  0.00    +0.165 C 
ATOM     13  C   UNL     1      -4.948   4.298  26.157  0.00  0.00    +0.174 C 
ENDROOT
BRANCH  10   6
ATOM      6  N   UNL     1      -1.395   3.998  25.205  0.00  0.00    -0.292 NA
ATOM      7  N   UNL     1       0.503   2.198  24.057  0.00  0.00    -0.327 N 
ATOM     14  C   UNL     1      -1.277   2.623  25.707  0.00  0.00    +0.104 C 
ATOM     15  C   UNL     1      -1.120   4.028  23.764  0.00  0.00    +0.104 C 
ATOM     17  C   UNL     1       0.131   2.071  25.471  0.00  0.00    +0.120 C 
ATOM     18  C   UNL     1       0.293   3.522  23.462  0.00  0.00    +0.120 C 
BRANCH   7  20
ATOM     20  C   UNL     1       1.520   1.371  23.567  0.00  0.00    +0.030 A 
ATOM     22  C   UNL     1       2.788   1.897  23.321  0.00  0.00    +0.023 A 
ATOM     23  C   UNL     1       1.266   0.021  23.325  0.00  0.00    +0.023 A 
ATOM     24  C   UNL     1       3.802   1.073  22.833  0.00  0.00    +0.002 A 
ATOM     25  C   UNL     1       2.280  -0.803  22.837  0.00  0.00    +0.002 A 
ATOM     26  C   UNL     1       3.548  -0.277  22.591  0.00  0.00    +0.000 A 
ENDBRANCH   7  20
ENDBRANCH  10   6
BRANCH  12   3
ATOM      3  O   UNL     1      -3.571   2.315  26.010  0.00  0.00    -0.388 OA
ATOM     33  H   UNL     1      -3.582   2.290  25.039  0.00  0.00    +0.210 HD
ENDBRANCH  12   3
BRANCH  11  16
ATOM     16  C   UNL     1      -3.480   3.769  23.114  0.00  0.00    +0.139 C 
BRANCH  16   8
ATOM      5  O   UNL     1      -2.027   1.303  23.234  0.00  0.00    -0.253 OA
ATOM      8  N   UNL     1      -4.003   2.482  23.465  0.00  0.00    -0.297 N 
ATOM      9  N   UNL     1      -4.004   0.214  23.877  0.00  0.00    -0.269 N 
ATOM     21  C   UNL     1      -3.226   1.313  23.502  0.00  0.00    +0.304 C 
ATOM     34  H   UNL     1      -4.986   2.417  23.712  0.00  0.00    +0.150 HD
ATOM     36  H   UNL     1      -4.988   0.394  24.065  0.00  0.00    +0.156 HD
BRANCH   9  27
ATOM      1 CL   UNL     1      -0.349  -3.108  25.283  0.00  0.00    -0.083 Cl
ATOM     27  C   UNL     1      -3.593  -1.131  24.028  0.00  0.00    +0.036 A 
ATOM     28  C   UNL     1      -2.322  -1.422  24.522  0.00  0.00    +0.043 A 
ATOM     29  C   UNL     1      -4.460  -2.167  23.681  0.00  0.00    +0.023 A 
ATOM     30  C   UNL     1      -1.918  -2.748  24.671  0.00  0.00    +0.043 A 
ATOM     31  C   UNL     1      -4.056  -3.494  23.830  0.00  0.00    +0.003 A 
ATOM     32  C   UNL     1      -2.785  -3.785  24.326  0.00  0.00    +0.020 A 
ENDBRANCH   9  27
ENDBRANCH  16   8
ENDBRANCH  11  16
BRANCH  13  19
ATOM     19  C   UNL     1      -6.135   3.409  26.482  0.00  0.00    +0.190 C 
BRANCH  19   4
ATOM      4  O   UNL     1      -6.250   2.411  25.480  0.00  0.00    -0.392 OA
ATOM     35  H   UNL     1      -7.080   2.577  25.003  0.00  0.00    +0.210 HD
ENDBRANCH  19   4
ENDBRANCH  13  19
TORSDOF 8
ENDMDL
MODEL 3
REMARK VINA RESULT:       6.5      3.187      6.564
REMARK  Name = 28961385
REMARK  8 active torsions:
REMARK  status: ('A' for Active; 'I' for Inactive)
REMARK    1  A    between atoms: O_3  and  C_12
REMARK    2  A    between atoms: O_4  and  C_19
REMARK    3  A    between atoms: N_6  and  C_10
REMARK    4  A    between atoms: N_7  and  C_20
REMARK    5  A    between atoms: N_8  and  C_16
REMARK    6  A    between atoms: N_9  and  C_27
REMARK    7  A    between atoms: C_11  and  C_16
REMARK    8  A    between atoms: C_13  and  C_19
REMARK                            x       y       z     vdW  Elec       q    Type
REMARK                         _______ _______ _______ _____ _____    ______ ____
ROOT
ATOM      2  O   UNL     1      -2.368   5.319  26.230  0.00  0.00    -0.365 OA
ATOM     10  C   UNL     1      -3.905   3.948  25.038  0.00  0.00    +0.118 C 
ATOM     11  C   UNL     1      -3.125   4.094  26.352  0.00  0.00    +0.155 C 
ATOM     12  C   UNL     1      -3.052   4.722  24.045  0.00  0.00    +0.165 C 
ATOM     13  C   UNL     1      -2.581   5.877  24.919  0.00  0.00    +0.174 C 
ENDROOT
BRANCH  10   6
ATOM      6  N   UNL     1      -4.241   2.592  24.641  0.00  0.00    -0.292 NA
ATOM      7  N   UNL     1      -3.811  -0.214  24.319  0.00  0.00    -0.327 N 
ATOM     14  C   UNL     1      -3.288   2.097  23.639  0.00  0.00    +0.104 C 
ATOM     15  C   UNL     1      -4.249   1.700  25.807  0.00  0.00    +0.104 C 
ATOM     17  C   UNL     1      -3.665   0.689  23.171  0.00  0.00    +0.120 C 
ATOM     18  C   UNL     1      -4.658   0.279  25.410  0.00  0.00    +0.120 C 
BRANCH   7  20
ATOM     20  C   UNL     1      -3.706  -1.591  24.090  0.00  0.00    +0.030 A 
ATOM     22  C   UNL     1      -2.516  -2.257  24.383  0.00  0.00    +0.023 A 
ATOM     23  C   UNL     1      -4.791  -2.296  23.570  0.00  0.00    +0.023 A 
ATOM     24  C   UNL     1      -2.411  -3.629  24.155  0.00  0.00    +0.002 A 
ATOM     25  C   UNL     1      -4.686  -3.668  23.342  0.00  0.00    +0.002 A 
ATOM     26  C   UNL     1      -3.495  -4.335  23.634  0.00  0.00    +0.000 A 
ENDBRANCH   7  20
ENDBRANCH  10   6
BRANCH  12   3
ATOM      3  O   UNL     1      -1.943   3.952  23.600  0.00  0.00    -0.388 OA
ATOM     33  H   UNL     1      -1.604   4.367  22.789  0.00  0.00    +0.210 HD
ENDBRANCH  12   3
BRANCH  11  16
ATOM     16  C   UNL     1      -2.136   2.984  26.688  0.00  0.00    +0.139 C 
BRANCH  16   8
ATOM      5  O   UNL     1      -0.944   0.686  25.462  0.00  0.00    -0.253 OA
ATOM      8  N   UNL     1      -1.037   2.976  25.769  0.00  0.00    -0.297 N 
ATOM      9  N   UNL     1       0.558   2.106  24.350  0.00  0.00    -0.269 N 
ATOM     21  C   UNL     1      -0.504   1.804  25.207  0.00  0.00    +0.304 C 
ATOM     34  H   UNL     1      -0.631   3.868  25.502  0.00  0.00    +0.150 HD
ATOM     36  H   UNL     1       0.797   3.090  24.249  0.00  0.00    +0.156 HD
BRANCH   9  27
ATOM      1 CL   UNL     1       5.234   0.369  23.130  0.00  0.00    -0.083 Cl
ATOM     27  C   UNL     1       1.350   1.207  23.599  0.00  0.00    +0.036 A 
ATOM     28  C   UNL     1       2.739   1.229  23.721  0.00  0.00    +0.043 A 
ATOM     29  C   UNL     1       0.741   0.296  22.736  0.00  0.00    +0.023 A 
ATOM     30  C   UNL     1       3.519   0.342  22.980  0.00  0.00    +0.043 A 
ATOM     31  C   UNL     1       1.520  -0.592  21.995  0.00  0.00    +0.003 A 
ATOM     32  C   UNL     1       2.910  -0.570  22.118  0.00  0.00    +0.020 A 
ENDBRANCH   9  27
ENDBRANCH  16   8
ENDBRANCH  11  16
BRANCH  13  19
ATOM     19  C   UNL     1      -1.313   6.571  24.458  0.00  0.00    +0.190 C 
BRANCH  19   4
ATOM      4  O   UNL     1      -0.208   5.713  24.692  0.00  0.00    -0.392 OA
ATOM     35  H   UNL     1       0.562   6.109  24.250  0.00  0.00    +0.210 HD
ENDBRANCH  19   4
ENDBRANCH  13  19
TORSDOF 8
ENDMDL
MODEL 4
REMARK VINA RESULT:       6.8      3.426      7.033
REMARK  Name = 28961385
REMARK  8 active torsions:
REMARK  status: ('A' for Active; 'I' for Inactive)
REMARK    1  A    between atoms: O_3  and  C_12
REMARK    2  A    between atoms: O_4  and  C_19
REMARK    3  A    between atoms: N_6  and  C_10
REMARK    4  A    between atoms: N_7  and  C_20
REMARK    5  A    between atoms: N_8  and  C_16
REMARK    6  A    between atoms: N_9  and  C_27
REMARK    7  A    between atoms: C_11  and  C_16
REMARK    8  A    between atoms: C_13  and  C_19
REMARK                            x       y       z     vdW  Elec       q    Type
REMARK                         _______ _______ _______ _____ _____    ______ ____
ROOT
ATOM      2  O   UNL     1      -4.614   1.145  24.667  0.00  0.00    -0.365 OA
ATOM     10  C   UNL     1      -2.930   1.512  23.026  0.00  0.00    +0.118 C 
ATOM     11  C   UNL     1      -3.509   0.486  24.009  0.00  0.00    +0.155 C 
ATOM     12  C   UNL     1      -3.314   2.843  23.654  0.00  0.00    +0.165 C 
ATOM     13  C   UNL     1      -4.694   2.506  24.204  0.00  0.00    +0.174 C 
ENDROOT
BRANCH  10   6
ATOM      6  N   UNL     1      -1.523   1.364  22.699  0.00  0.00    -0.292 NA
ATOM      7  N   UNL     1       1.186   0.572  23.139  0.00  0.00    -0.327 N 
ATOM     14  C   UNL     1      -0.690   2.077  23.677  0.00  0.00    +0.104 C 
ATOM     15  C   UNL     1      -1.149  -0.055  22.666  0.00  0.00    +0.104 C 
ATOM     17  C   UNL     1       0.793   1.975  23.311  0.00  0.00    +0.120 C 
ATOM     18  C   UNL     1       0.320  -0.228  22.267  0.00  0.00    +0.120 C 
BRANCH   7  20
ATOM     20  C   UNL     1       2.544   0.250  23.251  0.00  0.00    +0.030 A 
ATOM     22  C   UNL     1       3.513   1.214  22.974  0.00  0.00    +0.023 A 
ATOM     23  C   UNL     1       2.927  -1.034  23.638  0.00  0.00    +0.023 A 
ATOM     24  C   UNL     1       4.866   0.893  23.084  0.00  0.00    +0.002 A 
ATOM     25  C   UNL     1       4.280  -1.354  23.749  0.00  0.00    +0.002 A 
ATOM     26  C   UNL     1       5.250  -0.390  23.472  0.00  0.00    +0.000 A 
ENDBRANCH   7  20
ENDBRANCH  10   6
BRANCH  12   3
ATOM      3  O   UNL     1      -2.430   3.194  24.712  0.00  0.00    -0.388 OA
ATOM     33  H   UNL     1      -2.711   4.059  25.054  0.00  0.00    +0.210 HD
ENDBRANCH  12   3
BRANCH  11  16
ATOM     16  C   UNL     1      -2.572  -0.023  25.098  0.00  0.00    +0.139 C 
BRANCH  16   8
ATOM      5  O   UNL     1      -0.649  -0.214  27.213  0.00  0.00    -0.253 OA
ATOM      8  N   UNL     1      -1.789   1.046  25.644  0.00  0.00    -0.297 N 
ATOM      9  N   UNL     1      -0.251   2.089  27.007  0.00  0.00    -0.269 N 
ATOM     21  C   UNL     1      -0.862   0.874  26.685  0.00  0.00    +0.304 C 
ATOM     34  H   UNL     1      -1.903   1.973  25.247  0.00  0.00    +0.150 HD
ATOM     36  H   UNL     1      -0.543   2.903  26.471  0.00  0.00    +0.156 HD
BRANCH   9  27
ATOM      1 CL   UNL     1       1.038   2.111  31.979  0.00  0.00    -0.083 Cl
ATOM     27  C   UNL     1       0.732   2.332  27.996  0.00  0.00    +0.036 A 
ATOM     28  C   UNL     1       0.435   2.126  29.343  0.00  0.00    +0.043 A 
ATOM     29  C   UNL     1       2.000   2.777  27.622  0.00  0.00    +0.023 A 
ATOM     30  C   UNL     1       1.405   2.366  30.316  0.00  0.00    +0.043 A 
ATOM     31  C   UNL     1       2.970   3.016  28.595  0.00  0.00    +0.003 A 
ATOM     32  C   UNL     1       2.673   2.810  29.942  0.00  0.00    +0.020 A 
ENDBRANCH   9  27
ENDBRANCH  16   8
ENDBRANCH  11  16
BRANCH  13  19
ATOM     19  C   UNL     1      -5.180   3.392  25.337  0.00  0.00    +0.190 C 
BRANCH  19   4
ATOM      4  O   UNL     1      -6.157   2.687  26.085  0.00  0.00    -0.392 OA
ATOM     35  H   UNL     1      -7.022   2.888  25.691  0.00  0.00    +0.210 HD
ENDBRANCH  19   4
ENDBRANCH  13  19
TORSDOF 8
ENDMDL
MODEL 5
REMARK VINA RESULT:       7.5      2.622      6.367
REMARK  Name = 28961385
REMARK  8 active torsions:
REMARK  status: ('A' for Active; 'I' for Inactive)
REMARK    1  A    between atoms: O_3  and  C_12
REMARK    2  A    between atoms: O_4  and  C_19
REMARK    3  A    between atoms: N_6  and  C_10
REMARK    4  A    between atoms: N_7  and  C_20
REMARK    5  A    between atoms: N_8  and  C_16
REMARK    6  A    between atoms: N_9  and  C_27
REMARK    7  A    between atoms: C_11  and  C_16
REMARK    8  A    between atoms: C_13  and  C_19
REMARK                            x       y       z     vdW  Elec       q    Type
REMARK                         _______ _______ _______ _____ _____    ______ ____
ROOT
ATOM      2  O   UNL     1      -3.990  -1.486  25.729  0.00  0.00    -0.365 OA
ATOM     10  C   UNL     1      -2.372  -2.141  24.111  0.00  0.00    +0.118 C 
ATOM     11  C   UNL     1      -2.657  -2.033  25.615  0.00  0.00    +0.155 C 
ATOM     12  C   UNL     1      -3.270  -1.069  23.514  0.00  0.00    +0.165 C 
ATOM     13  C   UNL     1      -4.494  -1.196  24.411  0.00  0.00    +0.174 C 
ENDROOT
BRANCH  10   6
ATOM      6  N   UNL     1      -0.976  -2.070  23.717  0.00  0.00    -0.292 NA
ATOM      7  N   UNL     1       1.651  -0.952  23.613  0.00  0.00    -0.327 N 
ATOM     14  C   UNL     1      -0.719  -0.847  22.946  0.00  0.00    +0.104 C 
ATOM     15  C   UNL     1      -0.105  -2.108  24.898  0.00  0.00    +0.104 C 
ATOM     17  C   UNL     1       0.736  -0.789  22.477  0.00  0.00    +0.120 C 
ATOM     18  C   UNL     1       1.372  -2.091  24.494  0.00  0.00    +0.120 C 
BRANCH   7  20
ATOM     20  C   UNL     1       2.965  -0.490  23.472  0.00  0.00    +0.030 A 
ATOM     22  C   UNL     1       4.029  -1.266  23.928  0.00  0.00    +0.023 A 
ATOM     23  C   UNL     1       3.208   0.748  22.875  0.00  0.00    +0.023 A 
ATOM     24  C   UNL     1       5.338  -0.805  23.788  0.00  0.00    +0.002 A 
ATOM     25  C   UNL     1       4.517   1.208  22.735  0.00  0.00    +0.002 A 
ATOM     26  C   UNL     1       5.583   0.432  23.192  0.00  0.00    +0.000 A 
ENDBRANCH   7  20
ENDBRANCH  10   6
BRANCH  12   3
ATOM      3  O   UNL     1      -2.693   0.224  23.642  0.00  0.00    -0.388 OA
ATOM     33  H   UNL     1      -3.418   0.871  23.637  0.00  0.00    +0.210 HD
ENDBRANCH  12   3
BRANCH  11  16
ATOM     16  C   UNL     1      -1.730  -1.133  26.424  0.00  0.00    +0.139 C 
BRANCH  16   8
ATOM      5  O   UNL     1      -0.418   1.062  25.133  0.00  0.00    -0.253 OA
ATOM      8  N   UNL     1      -2.173   0.229  26.389  0.00  0.00    -0.297 N 
ATOM      9  N   UNL     1      -2.143   2.474  25.868  0.00  0.00    -0.269 N 
ATOM     21  C   UNL     1      -1.473   1.255  25.733  0.00  0.00    +0.304 C 
ATOM     34  H   UNL     1      -3.046   0.460  26.853  0.00  0.00    +0.150 HD
ATOM     36  H   UNL     1      -3.010   2.462  26.399  0.00  0.00    +0.156 HD
BRANCH   9  27
ATOM      1 CL   UNL     1       0.847   5.177  22.685  0.00  0.00    -0.083 Cl
ATOM     27  C   UNL     1      -1.762   3.736  25.354  0.00  0.00    +0.036 A 
ATOM     28  C   UNL     1      -0.761   3.824  24.386  0.00  0.00    +0.043 A 
ATOM     29  C   UNL     1      -2.389   4.894  25.815  0.00  0.00    +0.023 A 
ATOM     30  C   UNL     1      -0.387   5.068  23.880  0.00  0.00    +0.043 A 
ATOM     31  C   UNL     1      -2.015   6.138  25.309  0.00  0.00    +0.003 A 
ATOM     32  C   UNL     1      -1.015   6.226  24.340  0.00  0.00    +0.020 A 
ENDBRANCH   9  27
ENDBRANCH  16   8
ENDBRANCH  11  16
BRANCH  13  19
ATOM     19  C   UNL     1      -5.387   0.030  24.476  0.00  0.00    +0.190 C 
BRANCH  19   4
ATOM      4  O   UNL     1      -4.800   0.981  25.351  0.00  0.00    -0.392 OA
ATOM     35  H   UNL     1      -3.968   1.273  24.941  0.00  0.00    +0.210 HD
ENDBRANCH  19   4
ENDBRANCH  13  19
TORSDOF 8
ENDMDL
MODEL 6
REMARK VINA RESULT:       7.7      3.348      7.069
REMARK  Name = 28961385
REMARK  8 active torsions:
REMARK  status: ('A' for Active; 'I' for Inactive)
REMARK    1  A    between atoms: O_3  and  C_12
REMARK    2  A    between atoms: O_4  and  C_19
REMARK    3  A    between atoms: N_6  and  C_10
REMARK    4  A    between atoms: N_7  and  C_20
REMARK    5  A    between atoms: N_8  and  C_16
REMARK    6  A    between atoms: N_9  and  C_27
REMARK    7  A    between atoms: C_11  and  C_16
REMARK    8  A    between atoms: C_13  and  C_19
REMARK                            x       y       z     vdW  Elec       q    Type
REMARK                         _______ _______ _______ _____ _____    ______ ____
ROOT
ATOM      2  O   UNL     1      -0.746   5.371  24.513  0.00  0.00    -0.365 OA
ATOM     10  C   UNL     1      -1.955   3.817  25.849  0.00  0.00    +0.118 C 
ATOM     11  C   UNL     1      -0.710   4.002  24.972  0.00  0.00    +0.155 C 
ATOM     12  C   UNL     1      -2.917   4.860  25.302  0.00  0.00    +0.165 C 
ATOM     13  C   UNL     1      -1.952   5.996  24.992  0.00  0.00    +0.174 C 
ENDROOT
BRANCH  10   6
ATOM      6  N   UNL     1      -2.486   2.467  25.932  0.00  0.00    -0.292 NA
ATOM      7  N   UNL     1      -3.106  -0.154  24.981  0.00  0.00    -0.327 N 
ATOM     14  C   UNL     1      -3.549   2.270  24.938  0.00  0.00    +0.104 C 
ATOM     15  C   UNL     1      -1.420   1.481  25.725  0.00  0.00    +0.104 C 
ATOM     17  C   UNL     1      -4.155   0.869  25.054  0.00  0.00    +0.120 C 
ATOM     18  C   UNL     1      -1.955   0.053  25.866  0.00  0.00    +0.120 C 
BRANCH   7  20
ATOM     20  C   UNL     1      -3.478  -1.454  24.620  0.00  0.00    +0.030 A 
ATOM     22  C   UNL     1      -4.446  -1.654  23.636  0.00  0.00    +0.023 A 
ATOM     23  C   UNL     1      -2.881  -2.549  25.246  0.00  0.00    +0.023 A 
ATOM     24  C   UNL     1      -4.817  -2.950  23.277  0.00  0.00    +0.002 A 
ATOM     25  C   UNL     1      -3.253  -3.845  24.886  0.00  0.00    +0.002 A 
ATOM     26  C   UNL     1      -4.222  -4.045  23.902  0.00  0.00    +0.000 A 
ENDBRANCH   7  20
ENDBRANCH  10   6
BRANCH  12   3
ATOM      3  O   UNL     1      -3.553   4.410  24.113  0.00  0.00    -0.388 OA
ATOM     33  H   UNL     1      -3.725   5.189  23.559  0.00  0.00    +0.210 HD
ENDBRANCH  12   3
BRANCH  11  16
ATOM     16  C   UNL     1      -0.605   3.114  23.737  0.00  0.00    +0.139 C 
BRANCH  16   8
ATOM      5  O   UNL     1       0.726   0.619  24.194  0.00  0.00    -0.253 OA
ATOM      8  N   UNL     1       0.762   2.805  23.439  0.00  0.00    -0.297 N 
ATOM      9  N   UNL     1       2.688   1.546  23.301  0.00  0.00    -0.269 N 
ATOM     21  C   UNL     1       1.347   1.553  23.693  0.00  0.00    +0.304 C 
ATOM     34  H   UNL     1       1.333   3.526  23.011  0.00  0.00    +0.150 HD
ATOM     36  H   UNL     1       3.051   2.408  22.901  0.00  0.00    +0.156 HD
BRANCH   9  27
ATOM      1 CL   UNL     1       7.580  -0.015  23.217  0.00  0.00    -0.083 Cl
ATOM     27  C   UNL     1       3.614   0.480  23.392  0.00  0.00    +0.036 A 
ATOM     28  C   UNL     1       4.981   0.729  23.273  0.00  0.00    +0.043 A 
ATOM     29  C   UNL     1       3.158  -0.822  23.601  0.00  0.00    +0.023 A 
ATOM     30  C   UNL     1       5.892  -0.323  23.363  0.00  0.00    +0.043 A 
ATOM     31  C   UNL     1       4.069  -1.874  23.691  0.00  0.00    +0.003 A 
ATOM     32  C   UNL     1       5.437  -1.624  23.573  0.00  0.00    +0.020 A 
ENDBRANCH   9  27
ENDBRANCH  16   8
ENDBRANCH  11  16
BRANCH  13  19
ATOM     19  C   UNL     1      -2.436   7.002  23.963  0.00  0.00    +0.190 C 
BRANCH  19   4
ATOM      4  O   UNL     1      -3.524   6.440  23.247  0.00  0.00    -0.392 OA
ATOM     35  H   UNL     1      -3.359   5.485  23.176  0.00  0.00    +0.210 HD
ENDBRANCH  19   4
ENDBRANCH  13  19
TORSDOF 8
ENDMDL
