MODEL 1
REMARK VINA RESULT:       4.6      0.000      0.000
REMARK  Name = 45784429
REMARK  10 active torsions:
REMARK  status: ('A' for Active; 'I' for Inactive)
REMARK    1  A    between atoms: O_2  and  C_11
REMARK    2  A    between atoms: N_5  and  C_15
REMARK    3  A    between atoms: N_6  and  C_24
REMARK    4  A    between atoms: N_7  and  C_25
REMARK    5  A    between atoms: C_8  and  C_18
REMARK    6  A    between atoms: C_10  and  C_20
REMARK    7  A    between atoms: C_14  and  C_19
REMARK    8  A    between atoms: C_19  and  C_21
REMARK    9  A    between atoms: C_19  and  C_22
REMARK   10  A    between atoms: C_24  and  C_26
REMARK                            x       y       z     vdW  Elec       q    Type
REMARK                         _______ _______ _______ _____ _____    ______ ____
ROOT
ATOM      8  C   UNL     1      -2.585  -0.795  24.780  0.00  0.00    -0.027 C 
ATOM      9  C   UNL     1      -2.773   0.389  23.773  0.00  0.00    +0.028 C 
ATOM     10  C   UNL     1      -1.382   0.955  23.311  0.00  0.00    +0.012 C 
ATOM     11  C   UNL     1      -3.773   1.445  24.326  0.00  0.00    +0.122 C 
ATOM     12  C   UNL     1      -3.965  -1.400  25.128  0.00  0.00    +0.007 C 
ATOM     13  C   UNL     1      -1.742  -1.901  24.105  0.00  0.00    +0.009 C 
ATOM     14  C   UNL     1      -5.115   0.817  24.769  0.00  0.00    +0.029 C 
ATOM     15  C   UNL     1      -0.514  -0.182  22.702  0.00  0.00    +0.078 C 
ATOM     16  C   UNL     1      -4.934  -0.378  25.705  0.00  0.00    +0.007 C 
ATOM     17  C   UNL     1      -0.390  -1.405  23.611  0.00  0.00    +0.023 C 
ATOM     18  C   UNL     1      -1.890  -0.353  26.093  0.00  0.00    +0.011 C 
ATOM     20  C   UNL     1      -1.493   2.105  22.295  0.00  0.00    +0.010 C 
ENDROOT
BRANCH  15   5
ATOM      4  O   UNL     1       1.920  -0.874  24.042  0.00  0.00    -0.253 OA
ATOM      5  N   UNL     1       0.818   0.280  22.370  0.00  0.00    -0.296 N 
ATOM      7  N   UNL     1       3.093   0.493  22.536  0.00  0.00    -0.269 N 
ATOM     23  C   UNL     1       1.956  -0.110  23.081  0.00  0.00    +0.304 C 
ATOM     37  H   UNL     1       0.918   0.979  21.641  0.00  0.00    +0.151 HD
ATOM     40  H   UNL     1       2.949   1.102  21.735  0.00  0.00    +0.156 HD
BRANCH   7  25
ATOM      1  F   UNL     1       7.503  -1.314  21.946  0.00  0.00    -0.205 F 
ATOM     25  C   UNL     1       4.435   0.358  22.963  0.00  0.00    +0.037 A 
ATOM     27  C   UNL     1       5.325  -0.428  22.230  0.00  0.00    +0.061 A 
ATOM     28  C   UNL     1       4.870   1.012  24.116  0.00  0.00    +0.023 A 
ATOM     31  C   UNL     1       6.648  -0.559  22.650  0.00  0.00    +0.125 A 
ATOM     32  C   UNL     1       6.193   0.881  24.536  0.00  0.00    +0.005 A 
ATOM     35  C   UNL     1       7.082   0.095  23.802  0.00  0.00    +0.038 A 
ENDBRANCH   7  25
ENDBRANCH  15   5
BRANCH  11   2
ATOM      2  O   UNL     1      -4.083   2.390  23.301  0.00  0.00    -0.391 OA
ATOM     38  H   UNL     1      -3.253   2.809  23.015  0.00  0.00    +0.210 HD
ENDBRANCH  11   2
BRANCH  14  19
ATOM     19  C   UNL     1      -6.036   1.851  25.429  0.00  0.00    +0.077 C 
ATOM     21  C   UNL     1      -7.288   2.056  24.582  0.00  0.00    +0.017 C 
BRANCH  19  22
ATOM      3  O   UNL     1      -5.621   4.213  25.098  0.00  0.00    -0.276 OA
ATOM      6  N   UNL     1      -4.196   3.020  26.486  0.00  0.00    -0.311 N 
ATOM     22  C   UNL     1      -5.284   3.161  25.637  0.00  0.00    +0.216 C 
ATOM     39  H   UNL     1      -4.014   2.128  26.933  0.00  0.00    +0.149 HD
BRANCH   6  24
ATOM     24  C   UNL     1      -3.329   4.122  26.834  0.00  0.00    +0.139 C 
BRANCH  24  26
ATOM     26  C   UNL     1      -2.055   4.107  26.038  0.00  0.00    -0.030 A 
ATOM     29  C   UNL     1      -1.148   3.059  26.196  0.00  0.00    +0.005 A 
ATOM     30  C   UNL     1      -1.780   5.140  25.143  0.00  0.00    +0.005 A 
ATOM     33  C   UNL     1       0.035   3.044  25.458  0.00  0.00    +0.000 A 
ATOM     34  C   UNL     1      -0.596   5.125  24.404  0.00  0.00    +0.000 A 
ATOM     36  C   UNL     1       0.312   4.077  24.562  0.00  0.00    +0.000 A 
ENDBRANCH  24  26
ENDBRANCH   6  24
ENDBRANCH  19  22
ENDBRANCH  14  19
TORSDOF 7
ENDMDL
