MODEL 1
REMARK VINA RESULT:       4.6      0.000      0.000
REMARK  Name = 11885218
REMARK  5 active torsions:
REMARK  status: ('A' for Active; 'I' for Inactive)
REMARK    1  A    between atoms: S_1  and  N_6
REMARK    2  A    between atoms: S_1  and  C_19
REMARK    3  A    between atoms: S_2  and  C_30
REMARK    4  A    between atoms: S_2  and  C_31
REMARK    5  A    between atoms: C_17  and  C_20
REMARK                            x       y       z     vdW  Elec       q    Type
REMARK                         _______ _______ _______ _____ _____    ______ ____
ROOT
ATOM      5  O   UNL     1       0.231   2.246  25.818  0.00  0.00    -0.267 OA
ATOM      6  N   UNL     1      -4.715   2.409  25.220  0.00  0.00    -0.176 NA
ATOM      7  N   UNL     1      -1.663   3.063  24.730  0.00  0.00    -0.311 N 
ATOM      8  C   UNL     1      -3.454   4.444  25.930  0.00  0.00    +0.025 C 
ATOM      9  C   UNL     1      -3.703   3.938  23.540  0.00  0.00    +0.052 C 
ATOM     10  C   UNL     1      -3.688   5.072  24.562  0.00  0.00    +0.017 C 
ATOM     11  C   UNL     1      -4.584   3.458  26.271  0.00  0.00    +0.114 C 
ATOM     12  C   UNL     1      -4.870   2.983  23.849  0.00  0.00    +0.119 C 
ATOM     13  C   UNL     1      -2.073   3.781  25.944  0.00  0.00    +0.130 C 
ATOM     14  C   UNL     1      -2.388   3.182  23.541  0.00  0.00    +0.026 A 
ATOM     15  C   UNL     1      -1.931   2.613  22.415  0.00  0.00    +0.022 A 
ATOM     16  C   UNL     1      -0.454   2.344  24.798  0.00  0.00    +0.259 A 
ATOM     17  C   UNL     1       0.014   1.686  23.527  0.00  0.00    +0.047 A 
ATOM     18  C   UNL     1      -0.716   1.849  22.414  0.00  0.00    +0.015 A 
ENDROOT
BRANCH  17  20
ATOM     20  C   UNL     1       1.240   0.871  23.496  0.00  0.00    -0.013 A 
ATOM     23  C   UNL     1       1.178  -0.496  23.768  0.00  0.00    +0.010 A 
ATOM     24  C   UNL     1       2.467   1.465  23.194  0.00  0.00    +0.010 A 
ATOM     28  C   UNL     1       2.339  -1.268  23.739  0.00  0.00    +0.015 A 
ATOM     29  C   UNL     1       3.628   0.693  23.165  0.00  0.00    +0.015 A 
ATOM     30  C   UNL     1       3.565  -0.673  23.438  0.00  0.00    +0.008 A 
BRANCH  30   2
ATOM      2  S   UNL     1       5.048  -1.659  23.401  0.00  0.00    -0.129 S 
ATOM     31  C   UNL     1       6.341  -0.387  23.478  0.00  0.00    +0.090 C 
ENDBRANCH  30   2
ENDBRANCH  17  20
BRANCH   6   1
ATOM      1  S   UNL     1      -5.757   1.107  25.599  0.00  0.00    +0.061 S 
ATOM      3  O   UNL     1      -6.841   1.074  24.640  0.00  0.00    -0.153 OA
ATOM      4  O   UNL     1      -6.022   1.114  27.022  0.00  0.00    -0.153 OA
BRANCH   1  19
ATOM     19  C   UNL     1      -4.689  -0.256  25.252  0.00  0.00    +0.105 A 
ATOM     21  C   UNL     1      -3.666  -0.556  26.137  0.00  0.00    +0.028 A 
ATOM     22  C   UNL     1      -4.891  -1.000  24.102  0.00  0.00    +0.028 A 
ATOM     25  C   UNL     1      -2.821  -1.631  25.862  0.00  0.00    +0.002 A 
ATOM     26  C   UNL     1      -4.046  -2.075  23.828  0.00  0.00    +0.002 A 
ATOM     27  C   UNL     1      -3.010  -2.391  24.707  0.00  0.00    +0.000 A 
ENDBRANCH   1  19
ENDBRANCH   6   1
TORSDOF 4
ENDMDL
MODEL 2
REMARK VINA RESULT:       7.2      0.506      1.278
REMARK  Name = 11885218
REMARK  5 active torsions:
REMARK  status: ('A' for Active; 'I' for Inactive)
REMARK    1  A    between atoms: S_1  and  N_6
REMARK    2  A    between atoms: S_1  and  C_19
REMARK    3  A    between atoms: S_2  and  C_30
REMARK    4  A    between atoms: S_2  and  C_31
REMARK    5  A    between atoms: C_17  and  C_20
REMARK                            x       y       z     vdW  Elec       q    Type
REMARK                         _______ _______ _______ _____ _____    ______ ____
ROOT
ATOM      5  O   UNL     1       0.410   2.305  25.463  0.00  0.00    -0.267 OA
ATOM      6  N   UNL     1      -4.542   2.196  24.907  0.00  0.00    -0.176 NA
ATOM      7  N   UNL     1      -1.531   2.983  24.363  0.00  0.00    -0.311 N 
ATOM      8  C   UNL     1      -3.381   4.317  25.527  0.00  0.00    +0.025 C 
ATOM      9  C   UNL     1      -3.622   3.708  23.160  0.00  0.00    +0.052 C 
ATOM     10  C   UNL     1      -3.656   4.879  24.139  0.00  0.00    +0.017 C 
ATOM     11  C   UNL     1      -4.457   3.289  25.916  0.00  0.00    +0.114 C 
ATOM     12  C   UNL     1      -4.737   2.707  23.517  0.00  0.00    +0.119 C 
ATOM     13  C   UNL     1      -1.968   3.726  25.554  0.00  0.00    +0.130 C 
ATOM     14  C   UNL     1      -2.270   3.020  23.178  0.00  0.00    +0.026 A 
ATOM     15  C   UNL     1      -1.794   2.431  22.070  0.00  0.00    +0.022 A 
ATOM     16  C   UNL     1      -0.287   2.329  24.447  0.00  0.00    +0.259 A 
ATOM     17  C   UNL     1       0.204   1.648  23.198  0.00  0.00    +0.047 A 
ATOM     18  C   UNL     1      -0.541   1.730  22.086  0.00  0.00    +0.015 A 
ENDROOT
BRANCH  17  20
ATOM     20  C   UNL     1       1.470   0.894  23.186  0.00  0.00    -0.013 A 
ATOM     23  C   UNL     1       2.676   1.551  23.432  0.00  0.00    +0.010 A 
ATOM     24  C   UNL     1       1.465  -0.477  22.928  0.00  0.00    +0.010 A 
ATOM     28  C   UNL     1       3.875   0.838  23.420  0.00  0.00    +0.015 A 
ATOM     29  C   UNL     1       2.664  -1.190  22.916  0.00  0.00    +0.015 A 
ATOM     30  C   UNL     1       3.868  -0.533  23.161  0.00  0.00    +0.008 A 
BRANCH  30   2
ATOM      2  S   UNL     1       5.399  -1.444  23.145  0.00  0.00    -0.129 S 
ATOM     31  C   UNL     1       6.618  -0.115  22.939  0.00  0.00    +0.090 C 
ENDBRANCH  30   2
ENDBRANCH  17  20
BRANCH   6   1
ATOM      1  S   UNL     1      -5.514   0.858  25.346  0.00  0.00    +0.061 S 
ATOM      3  O   UNL     1      -6.625   0.757  24.423  0.00  0.00    -0.153 OA
ATOM      4  O   UNL     1      -5.734   0.884  26.776  0.00  0.00    -0.153 OA
BRANCH   1  19
ATOM     19  C   UNL     1      -4.399  -0.465  24.991  0.00  0.00    +0.105 A 
ATOM     21  C   UNL     1      -4.797  -1.474  24.130  0.00  0.00    +0.028 A 
ATOM     22  C   UNL     1      -3.146  -0.471  25.581  0.00  0.00    +0.028 A 
ATOM     25  C   UNL     1      -3.917  -2.520  23.852  0.00  0.00    +0.002 A 
ATOM     26  C   UNL     1      -2.265  -1.516  25.301  0.00  0.00    +0.002 A 
ATOM     27  C   UNL     1      -2.651  -2.541  24.438  0.00  0.00    +0.000 A 
ENDBRANCH   1  19
ENDBRANCH   6   1
TORSDOF 4
ENDMDL
MODEL 3
REMARK VINA RESULT:       8.3      1.819      4.177
REMARK  Name = 11885218
REMARK  5 active torsions:
REMARK  status: ('A' for Active; 'I' for Inactive)
REMARK    1  A    between atoms: S_1  and  N_6
REMARK    2  A    between atoms: S_1  and  C_19
REMARK    3  A    between atoms: S_2  and  C_30
REMARK    4  A    between atoms: S_2  and  C_31
REMARK    5  A    between atoms: C_17  and  C_20
REMARK                            x       y       z     vdW  Elec       q    Type
REMARK                         _______ _______ _______ _____ _____    ______ ____
ROOT
ATOM      5  O   UNL     1      -0.657   0.178  22.134  0.00  0.00    -0.267 OA
ATOM      6  N   UNL     1      -4.322   1.595  25.201  0.00  0.00    -0.176 NA
ATOM      7  N   UNL     1      -2.231  -0.304  23.786  0.00  0.00    -0.311 N 
ATOM      8  C   UNL     1      -4.752  -0.077  23.398  0.00  0.00    +0.025 C 
ATOM      9  C   UNL     1      -3.916  -0.828  25.582  0.00  0.00    +0.052 C 
ATOM     10  C   UNL     1      -4.869  -1.179  24.443  0.00  0.00    +0.017 C 
ATOM     11  C   UNL     1      -5.147   1.281  24.001  0.00  0.00    +0.114 C 
ATOM     12  C   UNL     1      -4.349   0.504  26.221  0.00  0.00    +0.119 C 
ATOM     13  C   UNL     1      -3.327  -0.076  22.835  0.00  0.00    +0.130 C 
ATOM     14  C   UNL     1      -2.485  -0.737  25.090  0.00  0.00    +0.026 A 
ATOM     15  C   UNL     1      -1.466  -1.052  25.905  0.00  0.00    +0.022 A 
ATOM     16  C   UNL     1      -0.920  -0.166  23.287  0.00  0.00    +0.259 A 
ATOM     17  C   UNL     1       0.201  -0.491  24.237  0.00  0.00    +0.047 A 
ATOM     18  C   UNL     1      -0.105  -0.918  25.471  0.00  0.00    +0.015 A 
ENDROOT
BRANCH  17  20
ATOM     20  C   UNL     1       1.610  -0.338  23.834  0.00  0.00    -0.013 A 
ATOM     23  C   UNL     1       2.505  -1.394  24.007  0.00  0.00    +0.010 A 
ATOM     24  C   UNL     1       2.052   0.864  23.280  0.00  0.00    +0.010 A 
ATOM     28  C   UNL     1       3.839  -1.249  23.627  0.00  0.00    +0.015 A 
ATOM     29  C   UNL     1       3.387   1.009  22.901  0.00  0.00    +0.015 A 
ATOM     30  C   UNL     1       4.280  -0.047  23.074  0.00  0.00    +0.008 A 
BRANCH  30   2
ATOM      2  S   UNL     1       5.984   0.139  22.589  0.00  0.00    -0.129 S 
ATOM     31  C   UNL     1       6.853  -0.617  23.992  0.00  0.00    +0.090 C 
ENDBRANCH  30   2
ENDBRANCH  17  20
BRANCH   6   1
ATOM      1  S   UNL     1      -4.482   3.185  25.814  0.00  0.00    +0.061 S 
ATOM      3  O   UNL     1      -4.594   3.127  27.256  0.00  0.00    -0.153 OA
ATOM      4  O   UNL     1      -5.457   3.901  25.019  0.00  0.00    -0.153 OA
BRANCH   1  19
ATOM     19  C   UNL     1      -2.884   3.829  25.423  0.00  0.00    +0.105 A 
ATOM     21  C   UNL     1      -1.845   2.950  25.164  0.00  0.00    +0.028 A 
ATOM     22  C   UNL     1      -2.698   5.201  25.384  0.00  0.00    +0.028 A 
ATOM     25  C   UNL     1      -0.583   3.459  24.857  0.00  0.00    +0.002 A 
ATOM     26  C   UNL     1      -1.435   5.709  25.077  0.00  0.00    +0.002 A 
ATOM     27  C   UNL     1      -0.378   4.838  24.814  0.00  0.00    +0.000 A 
ENDBRANCH   1  19
ENDBRANCH   6   1
TORSDOF 4
ENDMDL
