MODEL 1
REMARK VINA RESULT:       3.7      0.000      0.000
REMARK  Name = 40779497
REMARK  10 active torsions:
REMARK  status: ('A' for Active; 'I' for Inactive)
REMARK    1  A    between atoms: O_3  and  C_27
REMARK    2  A    between atoms: O_3  and  C_32
REMARK    3  A    between atoms: O_4  and  C_29
REMARK    4  A    between atoms: O_4  and  C_33
REMARK    5  A    between atoms: N_6  and  C_20
REMARK    6  A    between atoms: N_7  and  C_17
REMARK    7  A    between atoms: C_10  and  C_16
REMARK    8  A    between atoms: C_11  and  C_17
REMARK    9  A    between atoms: C_19  and  C_22
REMARK   10  A    between atoms: C_21  and  C_23
REMARK                            x       y       z     vdW  Elec       q    Type
REMARK                         _______ _______ _______ _____ _____    ______ ____
ROOT
ATOM      5  N   UNL     1      -5.811   2.973  24.333  0.00  0.00    -0.297 NA
ATOM      9  C   UNL     1      -4.067   3.720  26.119  0.00  0.00    +0.002 C 
ATOM     10  C   UNL     1      -3.488   3.893  24.687  0.00  0.00    +0.055 C 
ATOM     11  C   UNL     1      -5.667   1.922  25.374  0.00  0.00    +0.074 C 
ATOM     12  C   UNL     1      -4.495   2.251  26.322  0.00  0.00    +0.024 C 
ATOM     13  C   UNL     1      -5.350   4.578  26.186  0.00  0.00    +0.019 C 
ATOM     14  C   UNL     1      -4.497   3.243  23.697  0.00  0.00    +0.094 C 
ATOM     15  C   UNL     1      -6.264   4.216  25.003  0.00  0.00    +0.085 C 
ENDROOT
BRANCH  10  16
ATOM      6  N   UNL     1      -0.982   4.270  24.558  0.00  0.00    -0.270 N 
ATOM      8  N   UNL     1       0.194   3.679  24.289  0.00  0.00    -0.171 NA
ATOM     16  C   UNL     1      -2.057   3.440  24.432  0.00  0.00    +0.044 A 
ATOM     18  C   UNL     1      -1.549   2.222  24.052  0.00  0.00    +0.053 A 
ATOM     19  C   UNL     1      -0.158   2.428  23.980  0.00  0.00    +0.093 A 
ATOM     20  C   UNL     1      -1.001   5.663  24.939  0.00  0.00    +0.172 C 
BRANCH  19  22
ATOM     22  C   UNL     1       0.839   1.454  23.619  0.00  0.00    +0.006 A 
ATOM     24  C   UNL     1       2.176   1.834  23.506  0.00  0.00    +0.059 A 
ATOM     25  C   UNL     1       0.467   0.130  23.383  0.00  0.00    +0.014 A 
ATOM     27  C   UNL     1       3.142   0.890  23.156  0.00  0.00    +0.162 A 
ATOM     28  C   UNL     1       1.432  -0.814  23.033  0.00  0.00    +0.050 A 
ATOM     29  C   UNL     1       2.770  -0.433  22.919  0.00  0.00    +0.162 A 
BRANCH  27   3
ATOM      3  O   UNL     1       4.445   1.272  23.049  0.00  0.00    -0.491 OA
ATOM     32  C   UNL     1       5.359   0.730  24.002  0.00  0.00    +0.277 C 
ENDBRANCH  27   3
BRANCH  29   4
ATOM      4  O   UNL     1       3.704  -1.364  22.578  0.00  0.00    -0.491 OA
ATOM     33  C   UNL     1       4.404  -2.003  23.645  0.00  0.00    +0.277 C 
ENDBRANCH  29   4
ENDBRANCH  19  22
ENDBRANCH  10  16
BRANCH  11  17
ATOM     17  C   UNL     1      -5.538   0.521  24.772  0.00  0.00    +0.123 C 
BRANCH  17   7
ATOM      2  O   UNL     1      -4.364  -1.787  23.530  0.00  0.00    -0.270 OA
ATOM      7  N   UNL     1      -4.253  -0.040  25.056  0.00  0.00    -0.309 N 
ATOM     21  C   UNL     1      -3.759  -1.168  24.402  0.00  0.00    +0.251 C 
ATOM     34  H   UNL     1      -3.699   0.414  25.772  0.00  0.00    +0.149 HD
BRANCH  21  23
ATOM      1  S   UNL     1      -1.563  -0.760  26.022  0.00  0.00    -0.092 S 
ATOM     23  C   UNL     1      -2.418  -1.642  24.829  0.00  0.00    +0.074 A 
ATOM     26  C   UNL     1      -1.710  -2.742  24.394  0.00  0.00    +0.021 A 
ATOM     30  C   UNL     1      -0.451  -2.861  25.049  0.00  0.00    +0.008 A 
ATOM     31  C   UNL     1      -0.243  -1.848  25.960  0.00  0.00    +0.046 A 
ENDBRANCH  21  23
ENDBRANCH  17   7
ENDBRANCH  11  17
TORSDOF 7
ENDMDL
MODEL 2
REMARK VINA RESULT:       6.8      1.411      2.182
REMARK  Name = 40779497
REMARK  10 active torsions:
REMARK  status: ('A' for Active; 'I' for Inactive)
REMARK    1  A    between atoms: O_3  and  C_27
REMARK    2  A    between atoms: O_3  and  C_32
REMARK    3  A    between atoms: O_4  and  C_29
REMARK    4  A    between atoms: O_4  and  C_33
REMARK    5  A    between atoms: N_6  and  C_20
REMARK    6  A    between atoms: N_7  and  C_17
REMARK    7  A    between atoms: C_10  and  C_16
REMARK    8  A    between atoms: C_11  and  C_17
REMARK    9  A    between atoms: C_19  and  C_22
REMARK   10  A    between atoms: C_21  and  C_23
REMARK                            x       y       z     vdW  Elec       q    Type
REMARK                         _______ _______ _______ _____ _____    ______ ____
ROOT
ATOM      5  N   UNL     1      -4.864   3.820  24.719  0.00  0.00    -0.297 NA
ATOM      9  C   UNL     1      -2.646   3.666  26.077  0.00  0.00    +0.002 C 
ATOM     10  C   UNL     1      -2.347   3.734  24.553  0.00  0.00    +0.055 C 
ATOM     11  C   UNL     1      -4.943   2.702  25.696  0.00  0.00    +0.074 C 
ATOM     12  C   UNL     1      -3.571   2.464  26.362  0.00  0.00    +0.024 C 
ATOM     13  C   UNL     1      -3.440   4.942  26.432  0.00  0.00    +0.019 C 
ATOM     14  C   UNL     1      -3.709   3.620  23.808  0.00  0.00    +0.094 C 
ATOM     15  C   UNL     1      -4.641   5.073  25.480  0.00  0.00    +0.085 C 
ENDROOT
BRANCH  10  16
ATOM      6  N   UNL     1      -1.603   1.758  23.147  0.00  0.00    -0.270 N 
ATOM      8  N   UNL     1      -0.535   1.042  22.757  0.00  0.00    -0.171 NA
ATOM     16  C   UNL     1      -1.297   2.791  23.984  0.00  0.00    +0.044 A 
ATOM     18  C   UNL     1       0.065   2.746  24.156  0.00  0.00    +0.053 A 
ATOM     19  C   UNL     1       0.481   1.650  23.376  0.00  0.00    +0.093 A 
ATOM     20  C   UNL     1      -2.914   1.387  22.668  0.00  0.00    +0.172 C 
BRANCH  19  22
ATOM     22  C   UNL     1       1.829   1.172  23.214  0.00  0.00    +0.006 A 
ATOM     24  C   UNL     1       2.110  -0.187  23.358  0.00  0.00    +0.059 A 
ATOM     25  C   UNL     1       2.856   2.068  22.914  0.00  0.00    +0.014 A 
ATOM     27  C   UNL     1       3.416  -0.650  23.201  0.00  0.00    +0.162 A 
ATOM     28  C   UNL     1       4.162   1.605  22.757  0.00  0.00    +0.050 A 
ATOM     29  C   UNL     1       4.442   0.246  22.901  0.00  0.00    +0.162 A 
BRANCH  27   3
ATOM      3  O   UNL     1       3.678  -1.979  23.344  0.00  0.00    -0.491 OA
ATOM     32  C   UNL     1       4.654  -2.345  24.319  0.00  0.00    +0.277 C 
ENDBRANCH  27   3
BRANCH  29   4
ATOM      4  O   UNL     1       5.721  -0.194  22.745  0.00  0.00    -0.491 OA
ATOM     33  C   UNL     1       6.583  -0.100  23.879  0.00  0.00    +0.277 C 
ENDBRANCH  29   4
ENDBRANCH  19  22
ENDBRANCH  10  16
BRANCH  11  17
ATOM     17  C   UNL     1      -5.504   1.422  25.073  0.00  0.00    +0.123 C 
BRANCH  17   7
ATOM      2  O   UNL     1      -4.519  -0.738  26.687  0.00  0.00    -0.270 OA
ATOM      7  N   UNL     1      -4.452   0.515  24.734  0.00  0.00    -0.309 N 
ATOM     21  C   UNL     1      -4.035  -0.511  25.581  0.00  0.00    +0.251 C 
ATOM     34  H   UNL     1      -3.999   0.647  23.837  0.00  0.00    +0.149 HD
BRANCH  21  23
ATOM      1  S   UNL     1      -1.313  -0.965  25.573  0.00  0.00    -0.092 S 
ATOM     23  C   UNL     1      -2.912  -1.352  25.095  0.00  0.00    +0.074 A 
ATOM     26  C   UNL     1      -2.952  -2.457  24.272  0.00  0.00    +0.021 A 
ATOM     30  C   UNL     1      -1.654  -2.992  24.032  0.00  0.00    +0.008 A 
ATOM     31  C   UNL     1      -0.670  -2.277  24.680  0.00  0.00    +0.046 A 
ENDBRANCH  21  23
ENDBRANCH  17   7
ENDBRANCH  11  17
TORSDOF 7
ENDMDL
