MODEL 1
REMARK VINA RESULT:      10.4      0.000      0.000
REMARK  Name = 23757077
REMARK  5 active torsions:
REMARK  status: ('A' for Active; 'I' for Inactive)
REMARK    1  A    between atoms: S_1  and  N_7
REMARK    2  A    between atoms: S_1  and  C_21
REMARK    3  A    between atoms: N_9  and  C_28
REMARK    4  A    between atoms: C_19  and  C_22
REMARK    5  A    between atoms: C_31  and  C_32
REMARK                            x       y       z     vdW  Elec       q    Type
REMARK                         _______ _______ _______ _____ _____    ______ ____
ROOT
ATOM      5  O   UNL     1       0.241   1.986  26.077  0.00  0.00    -0.267 OA
ATOM      7  N   UNL     1      -4.632   2.967  25.742  0.00  0.00    -0.176 NA
ATOM      8  N   UNL     1      -1.518   3.332  25.348  0.00  0.00    -0.311 N 
ATOM     10  C   UNL     1      -3.108   4.522  26.966  0.00  0.00    +0.025 C 
ATOM     11  C   UNL     1      -3.420   4.777  24.543  0.00  0.00    +0.052 C 
ATOM     12  C   UNL     1      -3.251   5.548  25.850  0.00  0.00    +0.017 C 
ATOM     13  C   UNL     1      -4.361   3.634  27.048  0.00  0.00    +0.114 C 
ATOM     14  C   UNL     1      -4.705   3.933  24.605  0.00  0.00    +0.119 C 
ATOM     15  C   UNL     1      -1.829   3.708  26.733  0.00  0.00    +0.130 C 
ATOM     16  C   UNL     1      -2.218   3.889  24.273  0.00  0.00    +0.026 A 
ATOM     17  C   UNL     1      -1.843   3.622  23.013  0.00  0.00    +0.022 A 
ATOM     18  C   UNL     1      -0.420   2.471  25.157  0.00  0.00    +0.260 A 
ATOM     19  C   UNL     1      -0.049   2.164  23.732  0.00  0.00    +0.053 A 
ATOM     20  C   UNL     1      -0.742   2.742  22.740  0.00  0.00    +0.016 A 
ENDROOT
BRANCH  19  22
ATOM      2  S   UNL     1       0.696  -0.377  23.127  0.00  0.00    -0.096 S 
ATOM     22  C   UNL     1       1.030   1.275  23.435  0.00  0.00    +0.024 A 
ATOM     27  C   UNL     1       2.376   1.555  23.352  0.00  0.00    +0.016 A 
ATOM     29  C   UNL     1       3.144   0.399  23.032  0.00  0.00    +0.008 A 
ATOM     30  C   UNL     1       2.356  -0.721  22.882  0.00  0.00    +0.046 A 
ENDBRANCH  19  22
BRANCH   7   1
ATOM      1  S   UNL     1      -5.841   1.757  25.765  0.00  0.00    +0.061 S 
ATOM      3  O   UNL     1      -6.833   2.060  24.756  0.00  0.00    -0.153 OA
ATOM      4  O   UNL     1      -6.227   1.503  27.137  0.00  0.00    -0.153 OA
BRANCH   1  21
ATOM     21  C   UNL     1      -4.903   0.372  25.200  0.00  0.00    +0.106 A 
ATOM     23  C   UNL     1      -4.755   0.141  23.832  0.00  0.00    +0.030 A 
ATOM     24  C   UNL     1      -4.310  -0.491  26.122  0.00  0.00    +0.030 A 
ATOM     25  C   UNL     1      -4.014  -0.953  23.386  0.00  0.00    +0.025 A 
ATOM     26  C   UNL     1      -3.569  -1.586  25.675  0.00  0.00    +0.025 A 
ATOM     28  C   UNL     1      -3.421  -1.817  24.308  0.00  0.00    +0.033 A 
BRANCH  28   9
ATOM      6  O   UNL     1      -0.585  -2.635  24.904  0.00  0.00    -0.276 OA
ATOM      9  N   UNL     1      -2.680  -2.912  23.860  0.00  0.00    -0.286 N 
ATOM     31  C   UNL     1      -1.355  -3.245  24.170  0.00  0.00    +0.214 C 
ATOM     32  C   UNL     1      -0.923  -4.514  23.480  0.00  0.00    +0.109 C 
ATOM     33  H   UNL     1      -3.174  -3.541  23.230  0.00  0.00    +0.155 HD
ENDBRANCH  28   9
ENDBRANCH   1  21
ENDBRANCH   7   1
TORSDOF 4
ENDMDL
MODEL 2
REMARK VINA RESULT:      11.6      2.247      5.115
REMARK  Name = 23757077
REMARK  5 active torsions:
REMARK  status: ('A' for Active; 'I' for Inactive)
REMARK    1  A    between atoms: S_1  and  N_7
REMARK    2  A    between atoms: S_1  and  C_21
REMARK    3  A    between atoms: N_9  and  C_28
REMARK    4  A    between atoms: C_19  and  C_22
REMARK    5  A    between atoms: C_31  and  C_32
REMARK                            x       y       z     vdW  Elec       q    Type
REMARK                         _______ _______ _______ _____ _____    ______ ____
ROOT
ATOM      5  O   UNL     1      -3.544  -0.181  22.612  0.00  0.00    -0.267 OA
ATOM      7  N   UNL     1      -3.922   3.628  25.801  0.00  0.00    -0.176 NA
ATOM      8  N   UNL     1      -4.617   0.891  24.384  0.00  0.00    -0.311 N 
ATOM     10  C   UNL     1      -5.731   3.185  24.138  0.00  0.00    +0.025 C 
ATOM     11  C   UNL     1      -5.765   2.040  26.311  0.00  0.00    +0.052 C 
ATOM     12  C   UNL     1      -6.646   2.703  25.256  0.00  0.00    +0.017 C 
ATOM     13  C   UNL     1      -4.712   4.203  24.675  0.00  0.00    +0.114 C 
ATOM     14  C   UNL     1      -4.783   3.075  26.888  0.00  0.00    +0.119 C 
ATOM     15  C   UNL     1      -5.057   1.970  23.489  0.00  0.00    +0.130 C 
ATOM     16  C   UNL     1      -5.006   0.862  25.726  0.00  0.00    +0.026 A 
ATOM     17  C   UNL     1      -4.690  -0.190  26.497  0.00  0.00    +0.022 A 
ATOM     18  C   UNL     1      -3.878  -0.155  23.798  0.00  0.00    +0.260 A 
ATOM     19  C   UNL     1      -3.510  -1.301  24.699  0.00  0.00    +0.053 A 
ATOM     20  C   UNL     1      -3.927  -1.287  25.973  0.00  0.00    +0.016 A 
ENDROOT
BRANCH  19  22
ATOM      2  S   UNL     1      -1.037  -2.394  24.443  0.00  0.00    -0.096 S 
ATOM     22  C   UNL     1      -2.734  -2.396  24.207  0.00  0.00    +0.024 A 
ATOM     27  C   UNL     1      -3.161  -3.519  23.533  0.00  0.00    +0.016 A 
ATOM     29  C   UNL     1      -2.082  -4.389  23.205  0.00  0.00    +0.008 A 
ATOM     30  C   UNL     1      -0.871  -3.898  23.641  0.00  0.00    +0.046 A 
ENDBRANCH  19  22
BRANCH   7   1
ATOM      1  S   UNL     1      -2.583   4.560  26.319  0.00  0.00    +0.061 S 
ATOM      3  O   UNL     1      -2.429   4.413  27.750  0.00  0.00    -0.153 OA
ATOM      4  O   UNL     1      -2.658   5.871  25.709  0.00  0.00    -0.153 OA
BRANCH   1  21
ATOM     21  C   UNL     1      -1.269   3.674  25.540  0.00  0.00    +0.106 A 
ATOM     23  C   UNL     1      -0.880   2.429  26.034  0.00  0.00    +0.030 A 
ATOM     24  C   UNL     1      -0.621   4.219  24.432  0.00  0.00    +0.030 A 
ATOM     25  C   UNL     1       0.158   1.729  25.420  0.00  0.00    +0.025 A 
ATOM     26  C   UNL     1       0.417   3.519  23.818  0.00  0.00    +0.025 A 
ATOM     28  C   UNL     1       0.807   2.274  24.311  0.00  0.00    +0.033 A 
BRANCH  28   9
ATOM      6  O   UNL     1       0.754  -0.215  22.616  0.00  0.00    -0.276 OA
ATOM      9  N   UNL     1       1.846   1.573  23.697  0.00  0.00    -0.286 N 
ATOM     31  C   UNL     1       1.764   0.413  22.916  0.00  0.00    +0.214 C 
ATOM     32  C   UNL     1       3.121  -0.033  22.434  0.00  0.00    +0.109 C 
ATOM     33  H   UNL     1       2.776   1.962  23.840  0.00  0.00    +0.155 HD
ENDBRANCH  28   9
ENDBRANCH   1  21
ENDBRANCH   7   1
TORSDOF 4
ENDMDL
MODEL 3
REMARK VINA RESULT:      12.2      0.837      1.083
REMARK  Name = 23757077
REMARK  5 active torsions:
REMARK  status: ('A' for Active; 'I' for Inactive)
REMARK    1  A    between atoms: S_1  and  N_7
REMARK    2  A    between atoms: S_1  and  C_21
REMARK    3  A    between atoms: N_9  and  C_28
REMARK    4  A    between atoms: C_19  and  C_22
REMARK    5  A    between atoms: C_31  and  C_32
REMARK                            x       y       z     vdW  Elec       q    Type
REMARK                         _______ _______ _______ _____ _____    ______ ____
ROOT
ATOM      5  O   UNL     1       0.259   1.679  26.242  0.00  0.00    -0.267 OA
ATOM      7  N   UNL     1      -4.454   3.174  25.634  0.00  0.00    -0.176 NA
ATOM      8  N   UNL     1      -1.297   3.274  25.556  0.00  0.00    -0.311 N 
ATOM     10  C   UNL     1      -2.926   4.401  27.181  0.00  0.00    +0.025 C 
ATOM     11  C   UNL     1      -2.978   4.992  24.797  0.00  0.00    +0.052 C 
ATOM     12  C   UNL     1      -2.870   5.569  26.206  0.00  0.00    +0.017 C 
ATOM     13  C   UNL     1      -4.254   3.639  27.036  0.00  0.00    +0.114 C 
ATOM     14  C   UNL     1      -4.333   4.278  24.635  0.00  0.00    +0.119 C 
ATOM     15  C   UNL     1      -1.707   3.500  26.949  0.00  0.00    +0.130 C 
ATOM     16  C   UNL     1      -1.839   4.030  24.512  0.00  0.00    +0.026 A 
ATOM     17  C   UNL     1      -1.368   3.889  23.263  0.00  0.00    +0.022 A 
ATOM     18  C   UNL     1      -0.265   2.340  25.344  0.00  0.00    +0.260 A 
ATOM     19  C   UNL     1       0.214   2.181  23.927  0.00  0.00    +0.053 A 
ATOM     20  C   UNL     1      -0.326   2.946  22.968  0.00  0.00    +0.016 A 
ENDROOT
BRANCH  19  22
ATOM      2  S   UNL     1       2.754   1.796  23.046  0.00  0.00    -0.096 S 
ATOM     22  C   UNL     1       1.235   1.234  23.605  0.00  0.00    +0.024 A 
ATOM     27  C   UNL     1       1.187  -0.140  23.679  0.00  0.00    +0.016 A 
ATOM     29  C   UNL     1       2.412  -0.741  23.271  0.00  0.00    +0.008 A 
ATOM     30  C   UNL     1       3.350   0.197  22.901  0.00  0.00    +0.046 A 
ENDBRANCH  19  22
BRANCH   7   1
ATOM      1  S   UNL     1      -5.761   2.096  25.390  0.00  0.00    +0.061 S 
ATOM      3  O   UNL     1      -6.541   2.546  24.257  0.00  0.00    -0.153 OA
ATOM      4  O   UNL     1      -6.389   1.822  26.664  0.00  0.00    -0.153 OA
BRANCH   1  21
ATOM     21  C   UNL     1      -4.880   0.648  24.896  0.00  0.00    +0.106 A 
ATOM     23  C   UNL     1      -3.503   0.565  25.104  0.00  0.00    +0.030 A 
ATOM     24  C   UNL     1      -5.561  -0.412  24.298  0.00  0.00    +0.030 A 
ATOM     25  C   UNL     1      -2.806  -0.579  24.714  0.00  0.00    +0.025 A 
ATOM     26  C   UNL     1      -4.864  -1.557  23.908  0.00  0.00    +0.025 A 
ATOM     28  C   UNL     1      -3.487  -1.640  24.116  0.00  0.00    +0.033 A 
BRANCH  28   9
ATOM      6  O   UNL     1      -0.798  -2.682  24.980  0.00  0.00    -0.276 OA
ATOM      9  N   UNL     1      -2.790  -2.784  23.725  0.00  0.00    -0.286 N 
ATOM     31  C   UNL     1      -1.533  -3.222  24.162  0.00  0.00    +0.214 C 
ATOM     32  C   UNL     1      -1.129  -4.513  23.496  0.00  0.00    +0.109 C 
ATOM     33  H   UNL     1      -3.263  -3.367  23.037  0.00  0.00    +0.155 HD
ENDBRANCH  28   9
ENDBRANCH   1  21
ENDBRANCH   7   1
TORSDOF 4
ENDMDL
MODEL 4
REMARK VINA RESULT:      12.2      1.967      5.367
REMARK  Name = 23757077
REMARK  5 active torsions:
REMARK  status: ('A' for Active; 'I' for Inactive)
REMARK    1  A    between atoms: S_1  and  N_7
REMARK    2  A    between atoms: S_1  and  C_21
REMARK    3  A    between atoms: N_9  and  C_28
REMARK    4  A    between atoms: C_19  and  C_22
REMARK    5  A    between atoms: C_31  and  C_32
REMARK                            x       y       z     vdW  Elec       q    Type
REMARK                         _______ _______ _______ _____ _____    ______ ____
ROOT
ATOM      5  O   UNL     1      -0.740  -0.472  22.074  0.00  0.00    -0.267 OA
ATOM      7  N   UNL     1      -4.686  -0.164  25.100  0.00  0.00    -0.176 NA
ATOM      8  N   UNL     1      -1.943  -1.209  23.931  0.00  0.00    -0.311 N 
ATOM     10  C   UNL     1      -4.287  -2.223  23.745  0.00  0.00    +0.025 C 
ATOM     11  C   UNL     1      -3.231  -1.993  25.950  0.00  0.00    +0.052 C 
ATOM     12  C   UNL     1      -3.905  -2.985  25.006  0.00  0.00    +0.017 C 
ATOM     13  C   UNL     1      -5.263  -1.082  24.076  0.00  0.00    +0.114 C 
ATOM     14  C   UNL     1      -4.228  -0.882  26.327  0.00  0.00    +0.119 C 
ATOM     15  C   UNL     1      -3.010  -1.720  23.061  0.00  0.00    +0.130 C 
ATOM     16  C   UNL     1      -1.989  -1.394  25.316  0.00  0.00    +0.026 A 
ATOM     17  C   UNL     1      -0.950  -1.023  26.081  0.00  0.00    +0.022 A 
ATOM     18  C   UNL     1      -0.831  -0.623  23.293  0.00  0.00    +0.260 A 
ATOM     19  C   UNL     1       0.299  -0.186  24.184  0.00  0.00    +0.053 A 
ATOM     20  C   UNL     1       0.211  -0.406  25.503  0.00  0.00    +0.016 A 
ENDROOT
BRANCH  19  22
ATOM      2  S   UNL     1       2.756  -0.517  23.073  0.00  0.00    -0.096 S 
ATOM     22  C   UNL     1       1.456   0.448  23.634  0.00  0.00    +0.024 A 
ATOM     27  C   UNL     1       1.704   1.794  23.474  0.00  0.00    +0.016 A 
ATOM     29  C   UNL     1       2.978   2.036  22.884  0.00  0.00    +0.008 A 
ATOM     30  C   UNL     1       3.654   0.867  22.615  0.00  0.00    +0.046 A 
ENDBRANCH  19  22
BRANCH   7   1
ATOM      1  S   UNL     1      -5.555   1.285  25.370  0.00  0.00    +0.061 S 
ATOM      3  O   UNL     1      -6.092   1.271  26.714  0.00  0.00    -0.153 OA
ATOM      4  O   UNL     1      -6.409   1.541  24.230  0.00  0.00    -0.153 OA
BRANCH   1  21
ATOM     21  C   UNL     1      -4.231   2.452  25.331  0.00  0.00    +0.106 A 
ATOM     23  C   UNL     1      -3.047   2.140  24.663  0.00  0.00    +0.030 A 
ATOM     24  C   UNL     1      -4.370   3.685  25.967  0.00  0.00    +0.030 A 
ATOM     25  C   UNL     1      -2.000   3.063  24.632  0.00  0.00    +0.025 A 
ATOM     26  C   UNL     1      -3.324   4.608  25.935  0.00  0.00    +0.025 A 
ATOM     28  C   UNL     1      -2.139   4.297  25.268  0.00  0.00    +0.033 A 
BRANCH  28   9
ATOM      6  O   UNL     1       0.031   4.723  23.224  0.00  0.00    -0.276 OA
ATOM      9  N   UNL     1      -1.092   5.219  25.237  0.00  0.00    -0.286 N 
ATOM     31  C   UNL     1      -0.104   5.373  24.255  0.00  0.00    +0.214 C 
ATOM     32  C   UNL     1       0.850   6.490  24.594  0.00  0.00    +0.109 C 
ATOM     33  H   UNL     1      -1.050   5.855  26.031  0.00  0.00    +0.155 HD
ENDBRANCH  28   9
ENDBRANCH   1  21
ENDBRANCH   7   1
TORSDOF 4
ENDMDL
MODEL 5
REMARK VINA RESULT:      13.2      3.003      4.050
REMARK  Name = 23757077
REMARK  5 active torsions:
REMARK  status: ('A' for Active; 'I' for Inactive)
REMARK    1  A    between atoms: S_1  and  N_7
REMARK    2  A    between atoms: S_1  and  C_21
REMARK    3  A    between atoms: N_9  and  C_28
REMARK    4  A    between atoms: C_19  and  C_22
REMARK    5  A    between atoms: C_31  and  C_32
REMARK                            x       y       z     vdW  Elec       q    Type
REMARK                         _______ _______ _______ _____ _____    ______ ____
ROOT
ATOM      5  O   UNL     1      -1.641   3.029  28.390  0.00  0.00    -0.267 OA
ATOM      7  N   UNL     1      -3.706   1.042  24.314  0.00  0.00    -0.176 NA
ATOM      8  N   UNL     1      -2.264   3.174  26.147  0.00  0.00    -0.311 N 
ATOM     10  C   UNL     1      -4.707   3.065  25.382  0.00  0.00    +0.025 C 
ATOM     11  C   UNL     1      -2.919   3.325  23.718  0.00  0.00    +0.052 C 
ATOM     12  C   UNL     1      -4.233   3.922  24.216  0.00  0.00    +0.017 C 
ATOM     13  C   UNL     1      -4.938   1.614  24.930  0.00  0.00    +0.114 C 
ATOM     14  C   UNL     1      -3.163   1.892  23.211  0.00  0.00    +0.119 C 
ATOM     15  C   UNL     1      -3.684   3.166  26.522  0.00  0.00    +0.130 C 
ATOM     16  C   UNL     1      -1.869   3.324  24.814  0.00  0.00    +0.026 A 
ATOM     17  C   UNL     1      -0.568   3.445  24.506  0.00  0.00    +0.022 A 
ATOM     18  C   UNL     1      -1.331   3.128  27.202  0.00  0.00    +0.260 A 
ATOM     19  C   UNL     1       0.119   3.230  26.817  0.00  0.00    +0.053 A 
ATOM     20  C   UNL     1       0.441   3.394  25.526  0.00  0.00    +0.016 A 
ENDROOT
BRANCH  19  22
ATOM      2  S   UNL     1       0.864   2.260  29.242  0.00  0.00    -0.096 S 
ATOM     22  C   UNL     1       1.143   3.161  27.812  0.00  0.00    +0.024 A 
ATOM     27  C   UNL     1       2.394   3.738  27.801  0.00  0.00    +0.016 A 
ATOM     29  C   UNL     1       3.132   3.438  28.981  0.00  0.00    +0.008 A 
ATOM     30  C   UNL     1       2.419   2.643  29.849  0.00  0.00    +0.046 A 
ENDBRANCH  19  22
BRANCH   7   1
ATOM      1  S   UNL     1      -3.746  -0.639  24.001  0.00  0.00    +0.061 S 
ATOM      3  O   UNL     1      -4.195  -0.858  22.643  0.00  0.00    -0.153 OA
ATOM      4  O   UNL     1      -4.384  -1.310  25.114  0.00  0.00    -0.153 OA
BRANCH   1  21
ATOM     21  C   UNL     1      -2.020  -1.007  24.064  0.00  0.00    +0.106 A 
ATOM     23  C   UNL     1      -1.095  -0.098  23.550  0.00  0.00    +0.030 A 
ATOM     24  C   UNL     1      -1.583  -2.205  24.627  0.00  0.00    +0.030 A 
ATOM     25  C   UNL     1       0.269  -0.388  23.599  0.00  0.00    +0.025 A 
ATOM     26  C   UNL     1      -0.219  -2.495  24.676  0.00  0.00    +0.025 A 
ATOM     28  C   UNL     1       0.707  -1.587  24.163  0.00  0.00    +0.033 A 
BRANCH  28   9
ATOM      6  O   UNL     1       3.044  -0.223  22.843  0.00  0.00    -0.276 OA
ATOM      9  N   UNL     1       2.071  -1.877  24.211  0.00  0.00    -0.286 N 
ATOM     31  C   UNL     1       3.122  -1.205  23.572  0.00  0.00    +0.214 C 
ATOM     32  C   UNL     1       4.456  -1.834  23.882  0.00  0.00    +0.109 C 
ATOM     33  H   UNL     1       2.324  -2.679  24.786  0.00  0.00    +0.155 HD
ENDBRANCH  28   9
ENDBRANCH   1  21
ENDBRANCH   7   1
TORSDOF 4
ENDMDL
MODEL 6
REMARK VINA RESULT:      13.6      2.649      4.576
REMARK  Name = 23757077
REMARK  5 active torsions:
REMARK  status: ('A' for Active; 'I' for Inactive)
REMARK    1  A    between atoms: S_1  and  N_7
REMARK    2  A    between atoms: S_1  and  C_21
REMARK    3  A    between atoms: N_9  and  C_28
REMARK    4  A    between atoms: C_19  and  C_22
REMARK    5  A    between atoms: C_31  and  C_32
REMARK                            x       y       z     vdW  Elec       q    Type
REMARK                         _______ _______ _______ _____ _____    ______ ____
ROOT
ATOM      5  O   UNL     1      -3.008   4.216  26.715  0.00  0.00    -0.267 OA
ATOM      7  N   UNL     1      -4.540  -0.351  25.444  0.00  0.00    -0.176 NA
ATOM      8  N   UNL     1      -4.317   2.800  25.403  0.00  0.00    -0.311 N 
ATOM     10  C   UNL     1      -6.150   1.307  26.389  0.00  0.00    +0.025 C 
ATOM     11  C   UNL     1      -5.718   1.270  23.972  0.00  0.00    +0.052 C 
ATOM     12  C   UNL     1      -6.808   1.453  25.024  0.00  0.00    +0.017 C 
ATOM     13  C   UNL     1      -5.517  -0.086  26.538  0.00  0.00    +0.114 C 
ATOM     14  C   UNL     1      -5.125  -0.146  24.085  0.00  0.00    +0.119 C 
ATOM     15  C   UNL     1      -5.128   2.436  26.572  0.00  0.00    +0.130 C 
ATOM     16  C   UNL     1      -4.626   2.313  24.129  0.00  0.00    +0.026 A 
ATOM     17  C   UNL     1      -3.945   2.748  23.058  0.00  0.00    +0.022 A 
ATOM     18  C   UNL     1      -3.289   3.740  25.614  0.00  0.00    +0.260 A 
ATOM     19  C   UNL     1      -2.523   4.179  24.396  0.00  0.00    +0.053 A 
ATOM     20  C   UNL     1      -2.875   3.695  23.196  0.00  0.00    +0.016 A 
ENDROOT
BRANCH  19  22
ATOM      2  S   UNL     1       0.144   4.599  24.096  0.00  0.00    -0.096 S 
ATOM     22  C   UNL     1      -1.440   5.104  24.511  0.00  0.00    +0.024 A 
ATOM     27  C   UNL     1      -1.471   6.417  24.927  0.00  0.00    +0.016 A 
ATOM     29  C   UNL     1      -0.179   7.016  24.906  0.00  0.00    +0.008 A 
ATOM     30  C   UNL     1       0.791   6.138  24.474  0.00  0.00    +0.046 A 
ENDBRANCH  19  22
BRANCH   7   1
ATOM      1  S   UNL     1      -3.579  -1.754  25.632  0.00  0.00    +0.061 S 
ATOM      3  O   UNL     1      -4.035  -2.768  24.706  0.00  0.00    -0.153 OA
ATOM      4  O   UNL     1      -3.440  -2.043  27.044  0.00  0.00    -0.153 OA
BRANCH   1  21
ATOM     21  C   UNL     1      -2.027  -1.147  25.047  0.00  0.00    +0.106 A 
ATOM     23  C   UNL     1      -1.810   0.227  24.946  0.00  0.00    +0.030 A 
ATOM     24  C   UNL     1      -1.020  -2.042  24.687  0.00  0.00    +0.030 A 
ATOM     25  C   UNL     1      -0.584   0.707  24.484  0.00  0.00    +0.025 A 
ATOM     26  C   UNL     1       0.206  -1.562  24.225  0.00  0.00    +0.025 A 
ATOM     28  C   UNL     1       0.424  -0.188  24.123  0.00  0.00    +0.033 A 
BRANCH  28   9
ATOM      6  O   UNL     1       1.730  -0.438  21.422  0.00  0.00    -0.276 OA
ATOM      9  N   UNL     1       1.649   0.293  23.661  0.00  0.00    -0.286 N 
ATOM     31  C   UNL     1       2.212   0.145  22.386  0.00  0.00    +0.214 C 
ATOM     32  C   UNL     1       3.558   0.816  22.289  0.00  0.00    +0.109 C 
ATOM     33  H   UNL     1       2.196   0.815  24.343  0.00  0.00    +0.155 HD
ENDBRANCH  28   9
ENDBRANCH   1  21
ENDBRANCH   7   1
TORSDOF 4
ENDMDL
MODEL 7
REMARK VINA RESULT:      14.2      2.497      5.941
REMARK  Name = 23757077
REMARK  5 active torsions:
REMARK  status: ('A' for Active; 'I' for Inactive)
REMARK    1  A    between atoms: S_1  and  N_7
REMARK    2  A    between atoms: S_1  and  C_21
REMARK    3  A    between atoms: N_9  and  C_28
REMARK    4  A    between atoms: C_19  and  C_22
REMARK    5  A    between atoms: C_31  and  C_32
REMARK                            x       y       z     vdW  Elec       q    Type
REMARK                         _______ _______ _______ _____ _____    ______ ____
ROOT
ATOM      5  O   UNL     1      -0.270   2.309  22.910  0.00  0.00    -0.267 OA
ATOM      7  N   UNL     1      -2.185  -2.024  24.452  0.00  0.00    -0.176 NA
ATOM      8  N   UNL     1      -0.226   0.451  24.319  0.00  0.00    -0.311 N 
ATOM     10  C   UNL     1       0.100  -1.936  23.448  0.00  0.00    +0.025 C 
ATOM     11  C   UNL     1      -0.188  -1.546  25.856  0.00  0.00    +0.052 C 
ATOM     12  C   UNL     1       0.716  -2.200  24.814  0.00  0.00    +0.017 C 
ATOM     13  C   UNL     1      -1.310  -2.544  23.363  0.00  0.00    +0.114 C 
ATOM     14  C   UNL     1      -1.583  -2.197  25.809  0.00  0.00    +0.119 C 
ATOM     15  C   UNL     1       0.101  -0.424  23.186  0.00  0.00    +0.130 C 
ATOM     16  C   UNL     1      -0.296  -0.050  25.622  0.00  0.00    +0.026 A 
ATOM     17  C   UNL     1      -0.481   0.785  26.657  0.00  0.00    +0.022 A 
ATOM     18  C   UNL     1      -0.357   1.826  24.040  0.00  0.00    +0.260 A 
ATOM     19  C   UNL     1      -0.599   2.728  25.218  0.00  0.00    +0.053 A 
ATOM     20  C   UNL     1      -0.637   2.197  26.448  0.00  0.00    +0.016 A 
ENDROOT
BRANCH  19  22
ATOM      2  S   UNL     1      -2.172   4.894  25.680  0.00  0.00    -0.096 S 
ATOM     22  C   UNL     1      -0.779   4.134  25.034  0.00  0.00    +0.024 A 
ATOM     27  C   UNL     1       0.042   5.027  24.381  0.00  0.00    +0.016 A 
ATOM     29  C   UNL     1      -0.480   6.353  24.410  0.00  0.00    +0.008 A 
ATOM     30  C   UNL     1      -1.678   6.422  25.085  0.00  0.00    +0.046 A 
ENDBRANCH  19  22
BRANCH   7   1
ATOM      1  S   UNL     1      -3.844  -2.421  24.324  0.00  0.00    +0.061 S 
ATOM      3  O   UNL     1      -4.204  -3.309  25.408  0.00  0.00    -0.153 OA
ATOM      4  O   UNL     1      -4.140  -2.765  22.949  0.00  0.00    -0.153 OA
BRANCH   1  21
ATOM     21  C   UNL     1      -4.566  -0.844  24.656  0.00  0.00    +0.106 A 
ATOM     23  C   UNL     1      -3.846   0.115  25.369  0.00  0.00    +0.030 A 
ATOM     24  C   UNL     1      -5.854  -0.558  24.205  0.00  0.00    +0.030 A 
ATOM     25  C   UNL     1      -4.417   1.361  25.632  0.00  0.00    +0.025 A 
ATOM     26  C   UNL     1      -6.424   0.688  24.468  0.00  0.00    +0.025 A 
ATOM     28  C   UNL     1      -5.706   1.648  25.181  0.00  0.00    +0.033 A 
BRANCH  28   9
ATOM      6  O   UNL     1      -4.667   4.424  24.653  0.00  0.00    -0.276 OA
ATOM      9  N   UNL     1      -6.275   2.894  25.445  0.00  0.00    -0.286 N 
ATOM     31  C   UNL     1      -5.744   4.162  25.178  0.00  0.00    +0.214 C 
ATOM     32  C   UNL     1      -6.677   5.262  25.617  0.00  0.00    +0.109 C 
ATOM     33  H   UNL     1      -7.193   2.867  25.886  0.00  0.00    +0.155 HD
ENDBRANCH  28   9
ENDBRANCH   1  21
ENDBRANCH   7   1
TORSDOF 4
ENDMDL
