MODEL 1
REMARK VINA RESULT:      -5.4      0.000      0.000
REMARK  Name = 26744389
REMARK  5 active torsions:
REMARK  status: ('A' for Active; 'I' for Inactive)
REMARK    1  A    between atoms: O_2  and  C_10
REMARK    2  A    between atoms: N_4  and  C_12
REMARK    3  A    between atoms: C_8  and  C_13
REMARK    4  A    between atoms: C_12  and  C_14
REMARK    5  A    between atoms: C_18  and  C_22
REMARK                            x       y       z     vdW  Elec       q    Type
REMARK                         _______ _______ _______ _____ _____    ______ ____
ROOT
ATOM      4  N   UNL     1      -7.789  -9.642  11.290  0.00  0.00    -0.285 NA
ATOM      8  C   UNL     1      -6.698 -10.249  10.502  0.00  0.00    +0.149 C 
ATOM      9  C   UNL     1      -6.563  -9.350   9.258  0.00  0.00    +0.061 C 
ATOM     10  C   UNL     1      -7.650  -8.294   9.416  0.00  0.00    +0.130 C 
ATOM     11  C   UNL     1      -8.658  -8.956  10.336  0.00  0.00    +0.116 C 
ENDROOT
BRANCH   8  13
ATOM      3  O   UNL     1      -4.264 -10.458  10.556  0.00  0.00    -0.336 OA
ATOM      5  N   UNL     1      -5.220 -10.385  12.579  0.00  0.00    -0.190 NA
ATOM      7  N   UNL     1      -3.218 -10.553  11.484  0.00  0.00    -0.056 NA
ATOM     13  C   UNL     1      -5.406 -10.362  11.284  0.00  0.00    +0.245 A 
ATOM     18  C   UNL     1      -3.863 -10.503  12.654  0.00  0.00    +0.202 A 
BRANCH  18  22
ATOM      1  F   UNL     1      -1.214 -10.750  17.541  0.00  0.00    -0.205 F 
ATOM     22  C   UNL     1      -3.180 -10.567  13.914  0.00  0.00    +0.023 A 
ATOM     24  C   UNL     1      -1.789 -10.476  13.958  0.00  0.00    +0.014 A 
ATOM     25  C   UNL     1      -3.907 -10.720  15.094  0.00  0.00    +0.014 A 
ATOM     26  C   UNL     1      -1.125 -10.538  15.184  0.00  0.00    +0.039 A 
ATOM     27  C   UNL     1      -3.244 -10.781  16.320  0.00  0.00    +0.039 A 
ATOM     28  C   UNL     1      -1.853 -10.691  16.364  0.00  0.00    +0.123 A 
ENDBRANCH  18  22
ENDBRANCH   8  13
BRANCH  10   2
ATOM      2  O   UNL     1      -8.218  -7.967   8.162  0.00  0.00    -0.390 OA
ATOM     29  H   UNL     1      -8.754  -8.726   7.877  0.00  0.00    +0.210 HD
ENDBRANCH  10   2
BRANCH   4  12
ATOM     12  C   UNL     1      -8.519 -10.609  12.099  0.00  0.00    +0.122 C 
BRANCH  12  14
ATOM      6  N   UNL     1     -10.717  -8.921  14.521  0.00  0.00    -0.360 N 
ATOM     14  C   UNL     1      -9.201  -9.956  13.273  0.00  0.00    -0.008 A 
ATOM     15  C   UNL     1      -8.662  -9.789  14.580  0.00  0.00    +0.004 A 
ATOM     16  C   UNL     1     -10.465  -9.412  13.268  0.00  0.00    +0.088 A 
ATOM     17  C   UNL     1      -9.634  -9.136  15.343  0.00  0.00    +0.047 A 
ATOM     19  C   UNL     1      -7.439 -10.131  15.189  0.00  0.00    +0.010 A 
ATOM     20  C   UNL     1      -9.442  -8.809  16.689  0.00  0.00    +0.026 A 
ATOM     21  C   UNL     1      -7.232  -9.809  16.535  0.00  0.00    +0.001 A 
ATOM     23  C   UNL     1      -8.219  -9.158  17.272  0.00  0.00    +0.002 A 
ATOM     30  H   UNL     1     -11.574  -8.466  14.802  0.00  0.00    +0.165 HD
ENDBRANCH  12  14
ENDBRANCH   4  12
TORSDOF 5
ENDMDL
MODEL 2
REMARK VINA RESULT:      -4.5      2.939      3.768
REMARK  Name = 26744389
REMARK  5 active torsions:
REMARK  status: ('A' for Active; 'I' for Inactive)
REMARK    1  A    between atoms: O_2  and  C_10
REMARK    2  A    between atoms: N_4  and  C_12
REMARK    3  A    between atoms: C_8  and  C_13
REMARK    4  A    between atoms: C_12  and  C_14
REMARK    5  A    between atoms: C_18  and  C_22
REMARK                            x       y       z     vdW  Elec       q    Type
REMARK                         _______ _______ _______ _____ _____    ______ ____
ROOT
ATOM      4  N   UNL     1      -6.073  -9.593  11.223  0.00  0.00    -0.285 NA
ATOM      8  C   UNL     1      -5.005  -9.966  10.274  0.00  0.00    +0.149 C 
ATOM      9  C   UNL     1      -5.211  -9.034   9.065  0.00  0.00    +0.061 C 
ATOM     10  C   UNL     1      -6.444  -8.208   9.409  0.00  0.00    +0.130 C 
ATOM     11  C   UNL     1      -7.176  -9.068  10.422  0.00  0.00    +0.116 C 
ENDROOT
BRANCH   8  13
ATOM      3  O   UNL     1      -3.279 -10.781  11.801  0.00  0.00    -0.336 OA
ATOM      5  N   UNL     1      -2.687  -8.959  10.639  0.00  0.00    -0.190 NA
ATOM      7  N   UNL     1      -1.976 -10.466  12.208  0.00  0.00    -0.056 NA
ATOM     13  C   UNL     1      -3.621  -9.845  10.876  0.00  0.00    +0.245 A 
ATOM     18  C   UNL     1      -1.698  -9.381  11.479  0.00  0.00    +0.202 A 
BRANCH  18  22
ATOM      1  F   UNL     1       3.180  -6.725  11.810  0.00  0.00    -0.205 F 
ATOM     22  C   UNL     1      -0.440  -8.696  11.564  0.00  0.00    +0.023 A 
ATOM     24  C   UNL     1      -0.262  -7.679  12.502  0.00  0.00    +0.014 A 
ATOM     25  C   UNL     1       0.605  -9.047  10.709  0.00  0.00    +0.014 A 
ATOM     26  C   UNL     1       0.962  -7.013  12.585  0.00  0.00    +0.039 A 
ATOM     27  C   UNL     1       1.828  -8.381  10.792  0.00  0.00    +0.039 A 
ATOM     28  C   UNL     1       2.006  -7.364  11.730  0.00  0.00    +0.123 A 
ENDBRANCH  18  22
ENDBRANCH   8  13
BRANCH  10   2
ATOM      2  O   UNL     1      -7.227  -7.972   8.256  0.00  0.00    -0.390 OA
ATOM     29  H   UNL     1      -7.741  -7.161   8.412  0.00  0.00    +0.210 HD
ENDBRANCH  10   2
BRANCH   4  12
ATOM     12  C   UNL     1      -6.493 -10.697  12.077  0.00  0.00    +0.122 C 
BRANCH  12  14
ATOM      6  N   UNL     1      -7.917  -9.381  15.206  0.00  0.00    -0.360 N 
ATOM     14  C   UNL     1      -6.823 -10.233  13.471  0.00  0.00    -0.008 A 
ATOM     15  C   UNL     1      -5.973 -10.304  14.611  0.00  0.00    +0.004 A 
ATOM     16  C   UNL     1      -8.010  -9.661  13.868  0.00  0.00    +0.088 A 
ATOM     17  C   UNL     1      -6.684  -9.763  15.685  0.00  0.00    +0.047 A 
ATOM     19  C   UNL     1      -4.665 -10.778  14.833  0.00  0.00    +0.010 A 
ATOM     20  C   UNL     1      -6.149  -9.672  16.975  0.00  0.00    +0.026 A 
ATOM     21  C   UNL     1      -4.117 -10.693  16.117  0.00  0.00    +0.001 A 
ATOM     23  C   UNL     1      -4.849 -10.148  17.171  0.00  0.00    +0.002 A 
ATOM     30  H   UNL     1      -8.646  -8.957  15.760  0.00  0.00    +0.165 HD
ENDBRANCH  12  14
ENDBRANCH   4  12
TORSDOF 5
ENDMDL
MODEL 3
REMARK VINA RESULT:      -3.9      2.924      3.707
REMARK  Name = 26744389
REMARK  5 active torsions:
REMARK  status: ('A' for Active; 'I' for Inactive)
REMARK    1  A    between atoms: O_2  and  C_10
REMARK    2  A    between atoms: N_4  and  C_12
REMARK    3  A    between atoms: C_8  and  C_13
REMARK    4  A    between atoms: C_12  and  C_14
REMARK    5  A    between atoms: C_18  and  C_22
REMARK                            x       y       z     vdW  Elec       q    Type
REMARK                         _______ _______ _______ _____ _____    ______ ____
ROOT
ATOM      4  N   UNL     1      -6.080  -9.700  11.184  0.00  0.00    -0.285 NA
ATOM      8  C   UNL     1      -4.986 -10.094  10.276  0.00  0.00    +0.149 C 
ATOM      9  C   UNL     1      -5.179  -9.219   9.023  0.00  0.00    +0.061 C 
ATOM     10  C   UNL     1      -6.433  -8.402   9.303  0.00  0.00    +0.130 C 
ATOM     11  C   UNL     1      -7.174  -9.230  10.336  0.00  0.00    +0.116 C 
ENDROOT
BRANCH   8  13
ATOM      3  O   UNL     1      -3.300 -10.781  11.907  0.00  0.00    -0.336 OA
ATOM      5  N   UNL     1      -2.677  -9.057  10.619  0.00  0.00    -0.190 NA
ATOM      7  N   UNL     1      -2.008 -10.432  12.321  0.00  0.00    -0.056 NA
ATOM     13  C   UNL     1      -3.617  -9.923  10.902  0.00  0.00    +0.245 A 
ATOM     18  C   UNL     1      -1.711  -9.408  11.516  0.00  0.00    +0.202 A 
BRANCH  18  22
ATOM      1  F   UNL     1       3.157  -6.724  11.762  0.00  0.00    -0.205 F 
ATOM     22  C   UNL     1      -0.455  -8.716  11.579  0.00  0.00    +0.023 A 
ATOM     24  C   UNL     1       0.563  -9.036  10.681  0.00  0.00    +0.014 A 
ATOM     25  C   UNL     1      -0.254  -7.724  12.538  0.00  0.00    +0.014 A 
ATOM     26  C   UNL     1       1.784  -8.362  10.744  0.00  0.00    +0.039 A 
ATOM     27  C   UNL     1       0.966  -7.051  12.601  0.00  0.00    +0.039 A 
ATOM     28  C   UNL     1       1.985  -7.370  11.703  0.00  0.00    +0.123 A 
ENDBRANCH  18  22
ENDBRANCH   8  13
BRANCH  10   2
ATOM      2  O   UNL     1      -7.195  -8.229   8.124  0.00  0.00    -0.390 OA
ATOM     29  H   UNL     1      -7.314  -9.106   7.722  0.00  0.00    +0.210 HD
ENDBRANCH  10   2
BRANCH   4  12
ATOM     12  C   UNL     1      -6.501 -10.773  12.076  0.00  0.00    +0.122 C 
BRANCH  12  14
ATOM      6  N   UNL     1      -6.165  -9.622  15.555  0.00  0.00    -0.360 N 
ATOM     14  C   UNL     1      -6.650 -10.295  13.496  0.00  0.00    -0.008 A 
ATOM     15  C   UNL     1      -7.872 -10.033  14.177  0.00  0.00    +0.004 A 
ATOM     16  C   UNL     1      -5.619 -10.034  14.369  0.00  0.00    +0.088 A 
ATOM     17  C   UNL     1      -7.539  -9.613  15.468  0.00  0.00    +0.047 A 
ATOM     19  C   UNL     1      -9.233 -10.113  13.820  0.00  0.00    +0.010 A 
ATOM     20  C   UNL     1      -8.503  -9.266  16.421  0.00  0.00    +0.026 A 
ATOM     21  C   UNL     1     -10.208  -9.770  14.763  0.00  0.00    +0.001 A 
ATOM     23  C   UNL     1      -9.847  -9.354  16.044  0.00  0.00    +0.002 A 
ATOM     30  H   UNL     1      -5.637  -9.363  16.376  0.00  0.00    +0.165 HD
ENDBRANCH  12  14
ENDBRANCH   4  12
TORSDOF 5
ENDMDL
MODEL 4
REMARK VINA RESULT:      -3.5     14.673     16.543
REMARK  Name = 26744389
REMARK  5 active torsions:
REMARK  status: ('A' for Active; 'I' for Inactive)
REMARK    1  A    between atoms: O_2  and  C_10
REMARK    2  A    between atoms: N_4  and  C_12
REMARK    3  A    between atoms: C_8  and  C_13
REMARK    4  A    between atoms: C_12  and  C_14
REMARK    5  A    between atoms: C_18  and  C_22
REMARK                            x       y       z     vdW  Elec       q    Type
REMARK                         _______ _______ _______ _____ _____    ______ ____
ROOT
ATOM      4  N   UNL     1      -3.241  -0.509  24.623  0.00  0.00    -0.285 NA
ATOM      8  C   UNL     1      -2.063  -1.393  24.724  0.00  0.00    +0.149 C 
ATOM      9  C   UNL     1      -2.477  -2.684  23.993  0.00  0.00    +0.061 C 
ATOM     10  C   UNL     1      -3.917  -2.447  23.559  0.00  0.00    +0.130 C 
ATOM     11  C   UNL     1      -4.408  -1.383  24.522  0.00  0.00    +0.116 C 
ENDROOT
BRANCH   8  13
ATOM      3  O   UNL     1      -0.996   0.299  23.319  0.00  0.00    -0.336 OA
ATOM      5  N   UNL     1       0.440  -1.104  24.312  0.00  0.00    -0.190 NA
ATOM      7  N   UNL     1       0.284   0.698  22.911  0.00  0.00    -0.056 NA
ATOM     13  C   UNL     1      -0.813  -0.767  24.141  0.00  0.00    +0.245 A 
ATOM     18  C   UNL     1       1.075  -0.178  23.537  0.00  0.00    +0.202 A 
BRANCH  18  22
ATOM      1  F   UNL     1       6.617  -0.081  23.051  0.00  0.00    -0.205 F 
ATOM     22  C   UNL     1       2.504  -0.153  23.412  0.00  0.00    +0.023 A 
ATOM     24  C   UNL     1       3.138   0.973  22.886  0.00  0.00    +0.014 A 
ATOM     25  C   UNL     1       3.259  -1.254  23.815  0.00  0.00    +0.014 A 
ATOM     26  C   UNL     1       4.528   0.997  22.765  0.00  0.00    +0.039 A 
ATOM     27  C   UNL     1       4.649  -1.230  23.694  0.00  0.00    +0.039 A 
ATOM     28  C   UNL     1       5.283  -0.105  23.168  0.00  0.00    +0.123 A 
ENDBRANCH  18  22
ENDBRANCH   8  13
BRANCH  10   2
ATOM      2  O   UNL     1      -4.675  -3.638  23.661  0.00  0.00    -0.390 OA
ATOM     29  H   UNL     1      -4.305  -4.275  23.026  0.00  0.00    +0.210 HD
ENDBRANCH  10   2
BRANCH   4  12
ATOM     12  C   UNL     1      -3.353   0.427  25.734  0.00  0.00    +0.122 C 
BRANCH  12  14
ATOM      6  N   UNL     1      -4.266   3.754  24.450  0.00  0.00    -0.360 N 
ATOM     14  C   UNL     1      -3.451   1.853  25.259  0.00  0.00    -0.008 A 
ATOM     15  C   UNL     1      -2.398   2.809  25.225  0.00  0.00    +0.004 A 
ATOM     16  C   UNL     1      -4.586   2.463  24.776  0.00  0.00    +0.088 A 
ATOM     17  C   UNL     1      -2.935   3.993  24.713  0.00  0.00    +0.047 A 
ATOM     19  C   UNL     1      -1.035   2.781  25.580  0.00  0.00    +0.010 A 
ATOM     20  C   UNL     1      -2.175   5.154  24.540  0.00  0.00    +0.026 A 
ATOM     21  C   UNL     1      -0.261   3.936  25.412  0.00  0.00    +0.001 A 
ATOM     23  C   UNL     1      -0.824   5.103  24.899  0.00  0.00    +0.002 A 
ATOM     30  H   UNL     1      -4.911   4.433  24.072  0.00  0.00    +0.165 HD
ENDBRANCH  12  14
ENDBRANCH   4  12
TORSDOF 5
ENDMDL
MODEL 5
REMARK VINA RESULT:      -2.7     14.869     16.732
REMARK  Name = 26744389
REMARK  5 active torsions:
REMARK  status: ('A' for Active; 'I' for Inactive)
REMARK    1  A    between atoms: O_2  and  C_10
REMARK    2  A    between atoms: N_4  and  C_12
REMARK    3  A    between atoms: C_8  and  C_13
REMARK    4  A    between atoms: C_12  and  C_14
REMARK    5  A    between atoms: C_18  and  C_22
REMARK                            x       y       z     vdW  Elec       q    Type
REMARK                         _______ _______ _______ _____ _____    ______ ____
ROOT
ATOM      4  N   UNL     1      -1.863   2.679  25.309  0.00  0.00    -0.285 NA
ATOM      8  C   UNL     1      -1.358   2.829  23.930  0.00  0.00    +0.149 C 
ATOM      9  C   UNL     1      -0.858   4.284  23.850  0.00  0.00    +0.061 C 
ATOM     10  C   UNL     1      -1.167   4.882  25.217  0.00  0.00    +0.130 C 
ATOM     11  C   UNL     1      -2.290   4.008  25.741  0.00  0.00    +0.116 C 
ENDROOT
BRANCH   8  13
ATOM      3  O   UNL     1      -0.683   0.703  22.930  0.00  0.00    -0.336 OA
ATOM      5  N   UNL     1       1.004   1.862  23.842  0.00  0.00    -0.190 NA
ATOM      7  N   UNL     1       0.471  -0.066  22.732  0.00  0.00    -0.056 NA
ATOM     13  C   UNL     1      -0.280   1.821  23.590  0.00  0.00    +0.245 A 
ATOM     18  C   UNL     1       1.422   0.683  23.297  0.00  0.00    +0.202 A 
BRANCH  18  22
ATOM      1  F   UNL     1       6.765  -0.865  23.433  0.00  0.00    -0.205 F 
ATOM     22  C   UNL     1       2.800   0.284  23.332  0.00  0.00    +0.023 A 
ATOM     24  C   UNL     1       3.800   1.202  23.011  0.00  0.00    +0.014 A 
ATOM     25  C   UNL     1       3.138  -1.021  23.687  0.00  0.00    +0.014 A 
ATOM     26  C   UNL     1       5.139   0.813  23.045  0.00  0.00    +0.039 A 
ATOM     27  C   UNL     1       4.478  -1.410  23.722  0.00  0.00    +0.039 A 
ATOM     28  C   UNL     1       5.478  -0.493  23.400  0.00  0.00    +0.123 A 
ENDBRANCH  18  22
ENDBRANCH   8  13
BRANCH  10   2
ATOM      2  O   UNL     1      -1.566   6.233  25.095  0.00  0.00    -0.390 OA
ATOM     29  H   UNL     1      -1.230   6.562  24.243  0.00  0.00    +0.210 HD
ENDBRANCH  10   2
BRANCH   4  12
ATOM     12  C   UNL     1      -2.933   1.696  25.424  0.00  0.00    +0.122 C 
BRANCH  12  14
ATOM      6  N   UNL     1      -1.095  -1.480  25.722  0.00  0.00    -0.360 N 
ATOM     14  C   UNL     1      -2.403   0.286  25.401  0.00  0.00    -0.008 A 
ATOM     15  C   UNL     1      -3.033  -0.846  24.813  0.00  0.00    +0.004 A 
ATOM     16  C   UNL     1      -1.214  -0.135  25.952  0.00  0.00    +0.088 A 
ATOM     17  C   UNL     1      -2.191  -1.941  25.027  0.00  0.00    +0.047 A 
ATOM     19  C   UNL     1      -4.241  -1.046  24.115  0.00  0.00    +0.010 A 
ATOM     20  C   UNL     1      -2.499  -3.229  24.578  0.00  0.00    +0.026 A 
ATOM     21  C   UNL     1      -4.562  -2.330  23.660  0.00  0.00    +0.001 A 
ATOM     23  C   UNL     1      -3.703  -3.403  23.888  0.00  0.00    +0.002 A 
ATOM     30  H   UNL     1      -0.317  -2.051  26.018  0.00  0.00    +0.165 HD
ENDBRANCH  12  14
ENDBRANCH   4  12
TORSDOF 5
ENDMDL
MODEL 6
REMARK VINA RESULT:      -1.6     14.894     16.742
REMARK  Name = 26744389
REMARK  5 active torsions:
REMARK  status: ('A' for Active; 'I' for Inactive)
REMARK    1  A    between atoms: O_2  and  C_10
REMARK    2  A    between atoms: N_4  and  C_12
REMARK    3  A    between atoms: C_8  and  C_13
REMARK    4  A    between atoms: C_12  and  C_14
REMARK    5  A    between atoms: C_18  and  C_22
REMARK                            x       y       z     vdW  Elec       q    Type
REMARK                         _______ _______ _______ _____ _____    ______ ____
ROOT
ATOM      4  N   UNL     1      -1.162   2.523  25.775  0.00  0.00    -0.285 NA
ATOM      8  C   UNL     1      -1.143   2.370  24.307  0.00  0.00    +0.149 C 
ATOM      9  C   UNL     1      -1.030   3.806  23.762  0.00  0.00    +0.061 C 
ATOM     10  C   UNL     1      -1.040   4.697  24.998  0.00  0.00    +0.130 C 
ATOM     11  C   UNL     1      -1.726   3.844  26.047  0.00  0.00    +0.116 C 
ENDROOT
BRANCH   8  13
ATOM      3  O   UNL     1      -0.378   0.409  23.064  0.00  0.00    -0.336 OA
ATOM      5  N   UNL     1       1.268   1.570  24.044  0.00  0.00    -0.190 NA
ATOM      7  N   UNL     1       0.812  -0.261  22.749  0.00  0.00    -0.056 NA
ATOM     13  C   UNL     1      -0.020   1.474  23.828  0.00  0.00    +0.245 A 
ATOM     18  C   UNL     1       1.736   0.484  23.363  0.00  0.00    +0.202 A 
BRANCH  18  22
ATOM      1  F   UNL     1       7.163  -0.726  23.171  0.00  0.00    -0.205 F 
ATOM     22  C   UNL     1       3.135   0.172  23.314  0.00  0.00    +0.023 A 
ATOM     24  C   UNL     1       3.586  -1.081  23.730  0.00  0.00    +0.014 A 
ATOM     25  C   UNL     1       4.045   1.122  22.850  0.00  0.00    +0.014 A 
ATOM     26  C   UNL     1       4.947  -1.383  23.681  0.00  0.00    +0.039 A 
ATOM     27  C   UNL     1       5.406   0.819  22.801  0.00  0.00    +0.039 A 
ATOM     28  C   UNL     1       5.857  -0.434  23.217  0.00  0.00    +0.123 A 
ENDBRANCH  18  22
ENDBRANCH   8  13
BRANCH  10   2
ATOM      2  O   UNL     1      -1.750   5.895  24.748  0.00  0.00    -0.390 OA
ATOM     29  H   UNL     1      -2.682   5.657  24.602  0.00  0.00    +0.210 HD
ENDBRANCH  10   2
BRANCH   4  12
ATOM     12  C   UNL     1      -1.897   1.463  26.453  0.00  0.00    +0.122 C 
BRANCH  12  14
ATOM      6  N   UNL     1      -4.765   0.634  24.300  0.00  0.00    -0.360 N 
ATOM     14  C   UNL     1      -2.956   0.861  25.568  0.00  0.00    -0.008 A 
ATOM     15  C   UNL     1      -3.018  -0.488  25.118  0.00  0.00    +0.004 A 
ATOM     16  C   UNL     1      -4.044   1.525  25.049  0.00  0.00    +0.088 A 
ATOM     17  C   UNL     1      -4.162  -0.603  24.324  0.00  0.00    +0.047 A 
ATOM     19  C   UNL     1      -2.208  -1.625  25.309  0.00  0.00    +0.010 A 
ATOM     20  C   UNL     1      -4.537  -1.803  23.711  0.00  0.00    +0.026 A 
ATOM     21  C   UNL     1      -2.571  -2.832  24.702  0.00  0.00    +0.001 A 
ATOM     23  C   UNL     1      -3.719  -2.918  23.915  0.00  0.00    +0.002 A 
ATOM     30  H   UNL     1      -5.616   0.853  23.801  0.00  0.00    +0.165 HD
ENDBRANCH  12  14
ENDBRANCH   4  12
TORSDOF 5
ENDMDL
