MODEL 1
REMARK VINA RESULT:      -1.0      0.000      0.000
REMARK  Name = 26742198
REMARK  11 active torsions:
REMARK  status: ('A' for Active; 'I' for Inactive)
REMARK    1  A    between atoms: O_1  and  C_11
REMARK    2  A    between atoms: O_4  and  C_26
REMARK    3  A    between atoms: O_4  and  C_30
REMARK    4  A    between atoms: O_5  and  C_27
REMARK    5  A    between atoms: O_5  and  C_32
REMARK    6  A    between atoms: O_6  and  C_31
REMARK    7  A    between atoms: O_6  and  C_33
REMARK    8  A    between atoms: N_8  and  C_10
REMARK    9  A    between atoms: N_9  and  C_19
REMARK   10  A    between atoms: C_17  and  C_18
REMARK   11  A    between atoms: C_30  and  C_31
REMARK                            x       y       z     vdW  Elec       q    Type
REMARK                         _______ _______ _______ _____ _____    ______ ____
ROOT
ATOM      2  O   UNL     1      15.995  -4.892  27.426  0.00  0.00    -0.252 OA
ATOM      7  N   UNL     1      17.037  -6.919  27.035  0.00  0.00    -0.284 N 
ATOM      9  N   UNL     1      16.037  -6.472  29.129  0.00  0.00    -0.269 N 
ATOM     10  C   UNL     1      16.308  -9.328  27.116  0.00  0.00    +0.119 C 
ATOM     11  C   UNL     1      15.481  -9.120  25.834  0.00  0.00    +0.136 C 
ATOM     12  C   UNL     1      16.250  -8.580  24.625  0.00  0.00    +0.035 C 
ATOM     13  C   UNL     1      17.405  -8.294  27.398  0.00  0.00    +0.134 C 
ATOM     14  C   UNL     1      16.401  -7.057  24.634  0.00  0.00    +0.022 C 
ATOM     15  C   UNL     1      17.386  -6.526  25.668  0.00  0.00    +0.109 C 
ATOM     16  C   UNL     1      16.324  -6.004  27.847  0.00  0.00    +0.307 C 
ATOM     36  H   UNL     1      16.328  -7.411  29.376  0.00  0.00    +0.156 HD
ENDROOT
BRANCH   9  19
ATOM     19  C   UNL     1      15.344  -5.799  30.167  0.00  0.00    +0.038 A 
ATOM     22  C   UNL     1      14.007  -6.105  30.425  0.00  0.00    +0.069 A 
ATOM     23  C   UNL     1      15.998  -4.830  30.929  0.00  0.00    +0.023 A 
ATOM     27  C   UNL     1      13.324  -5.443  31.444  0.00  0.00    +0.122 A 
ATOM     28  C   UNL     1      15.314  -4.168  31.949  0.00  0.00    +0.005 A 
ATOM     29  C   UNL     1      13.978  -4.474  32.207  0.00  0.00    +0.046 A 
BRANCH  27   5
ATOM      5  O   UNL     1      12.021  -5.741  31.697  0.00  0.00    -0.495 OA
ATOM     32  C   UNL     1      11.374  -5.003  32.733  0.00  0.00    +0.277 C 
ENDBRANCH  27   5
ENDBRANCH   9  19
BRANCH  10   8
ATOM      3  O   UNL     1      13.833 -10.781  27.201  0.00  0.00    -0.270 OA
ATOM      8  N   UNL     1      15.406  -9.437  28.247  0.00  0.00    -0.305 N 
ATOM     17  C   UNL     1      14.233 -10.164  28.186  0.00  0.00    +0.244 C 
ATOM     34  H   UNL     1      15.723  -9.050  29.129  0.00  0.00    +0.149 HD
BRANCH  17  18
ATOM     18  C   UNL     1      13.407 -10.155  29.421  0.00  0.00    +0.037 A 
ATOM     20  C   UNL     1      13.884  -9.532  30.574  0.00  0.00    +0.016 A 
ATOM     21  C   UNL     1      12.156 -10.771  29.427  0.00  0.00    +0.016 A 
ATOM     24  C   UNL     1      13.110  -9.525  31.735  0.00  0.00    +0.046 A 
ATOM     25  C   UNL     1      11.381 -10.764  30.588  0.00  0.00    +0.046 A 
ATOM     26  C   UNL     1      11.859 -10.141  31.741  0.00  0.00    +0.121 A 
BRANCH  26   4
ATOM      4  O   UNL     1      11.102 -10.133  32.872  0.00  0.00    -0.490 OA
BRANCH   4  30
ATOM     30  C   UNL     1       9.744 -10.553  32.749  0.00  0.00    +0.257 C 
BRANCH  30  31
ATOM     31  C   UNL     1       8.855  -9.329  32.642  0.00  0.00    +0.200 C 
BRANCH  31   6
ATOM      6  O   UNL     1       7.494  -9.735  32.719  0.00  0.00    -0.380 OA
ATOM     33  C   UNL     1       6.891  -9.777  31.433  0.00  0.00    +0.194 C 
ENDBRANCH  31   6
ENDBRANCH  30  31
ENDBRANCH   4  30
ENDBRANCH  26   4
ENDBRANCH  17  18
ENDBRANCH  10   8
BRANCH  11   1
ATOM      1  O   UNL     1      14.938 -10.393  25.453  0.00  0.00    -0.390 OA
ATOM     35  H   UNL     1      15.139 -10.528  24.511  0.00  0.00    +0.210 HD
ENDBRANCH  11   1
TORSDOF 9
ENDMDL
MODEL 2
REMARK VINA RESULT:       1.1     16.546     20.090
REMARK  Name = 26742198
REMARK  11 active torsions:
REMARK  status: ('A' for Active; 'I' for Inactive)
REMARK    1  A    between atoms: O_1  and  C_11
REMARK    2  A    between atoms: O_4  and  C_26
REMARK    3  A    between atoms: O_4  and  C_30
REMARK    4  A    between atoms: O_5  and  C_27
REMARK    5  A    between atoms: O_5  and  C_32
REMARK    6  A    between atoms: O_6  and  C_31
REMARK    7  A    between atoms: O_6  and  C_33
REMARK    8  A    between atoms: N_8  and  C_10
REMARK    9  A    between atoms: N_9  and  C_19
REMARK   10  A    between atoms: C_17  and  C_18
REMARK   11  A    between atoms: C_30  and  C_31
REMARK                            x       y       z     vdW  Elec       q    Type
REMARK                         _______ _______ _______ _____ _____    ______ ____
ROOT
ATOM      2  O   UNL     1      -5.944   1.066  24.715  0.00  0.00    -0.252 OA
ATOM      7  N   UNL     1      -4.980   2.674  26.068  0.00  0.00    -0.284 N 
ATOM      9  N   UNL     1      -3.812   0.684  25.555  0.00  0.00    -0.269 N 
ATOM     10  C   UNL     1      -2.862   4.034  25.967  0.00  0.00    +0.119 C 
ATOM     11  C   UNL     1      -3.454   4.869  24.817  0.00  0.00    +0.136 C 
ATOM     12  C   UNL     1      -4.798   5.543  25.107  0.00  0.00    +0.035 C 
ATOM     13  C   UNL     1      -3.861   3.248  26.827  0.00  0.00    +0.134 C 
ATOM     14  C   UNL     1      -5.998   4.618  24.894  0.00  0.00    +0.022 C 
ATOM     15  C   UNL     1      -6.158   3.537  25.956  0.00  0.00    +0.109 C 
ATOM     16  C   UNL     1      -4.978   1.431  25.390  0.00  0.00    +0.307 C 
ATOM     36  H   UNL     1      -3.062   1.080  26.110  0.00  0.00    +0.156 HD
ENDROOT
BRANCH   9  19
ATOM     19  C   UNL     1      -3.508  -0.588  25.010  0.00  0.00    +0.038 A 
ATOM     22  C   UNL     1      -2.292  -1.203  25.310  0.00  0.00    +0.069 A 
ATOM     23  C   UNL     1      -4.425  -1.226  24.173  0.00  0.00    +0.023 A 
ATOM     27  C   UNL     1      -1.992  -2.455  24.773  0.00  0.00    +0.122 A 
ATOM     28  C   UNL     1      -4.124  -2.478  23.637  0.00  0.00    +0.005 A 
ATOM     29  C   UNL     1      -2.909  -3.092  23.937  0.00  0.00    +0.046 A 
BRANCH  27   5
ATOM      5  O   UNL     1      -0.806  -3.056  25.066  0.00  0.00    -0.495 OA
ATOM     32  C   UNL     1       0.226  -2.229  25.601  0.00  0.00    +0.277 C 
ENDBRANCH  27   5
ENDBRANCH   9  19
BRANCH  10   8
ATOM      3  O   UNL     1      -2.768   2.930  23.318  0.00  0.00    -0.270 OA
ATOM      8  N   UNL     1      -1.844   3.150  25.433  0.00  0.00    -0.305 N 
ATOM     17  C   UNL     1      -1.890   2.672  24.137  0.00  0.00    +0.244 C 
ATOM     34  H   UNL     1      -1.027   2.983  26.011  0.00  0.00    +0.149 HD
BRANCH  17  18
ATOM     18  C   UNL     1      -0.785   1.755  23.751  0.00  0.00    +0.037 A 
ATOM     20  C   UNL     1       0.516   2.011  24.184  0.00  0.00    +0.016 A 
ATOM     21  C   UNL     1      -1.049   0.642  22.954  0.00  0.00    +0.016 A 
ATOM     24  C   UNL     1       1.554   1.153  23.820  0.00  0.00    +0.046 A 
ATOM     25  C   UNL     1      -0.011  -0.216  22.590  0.00  0.00    +0.046 A 
ATOM     26  C   UNL     1       1.289   0.040  23.023  0.00  0.00    +0.121 A 
BRANCH  26   4
ATOM      4  O   UNL     1       2.301  -0.799  22.668  0.00  0.00    -0.490 OA
BRANCH   4  30
ATOM     30  C   UNL     1       3.634  -0.345  22.902  0.00  0.00    +0.257 C 
BRANCH  30  31
ATOM     31  C   UNL     1       4.361  -1.363  23.758  0.00  0.00    +0.200 C 
BRANCH  31   6
ATOM      6  O   UNL     1       5.478  -0.736  24.377  0.00  0.00    -0.380 OA
ATOM     33  C   UNL     1       5.726   0.549  23.822  0.00  0.00    +0.194 C 
ENDBRANCH  31   6
ENDBRANCH  30  31
ENDBRANCH   4  30
ENDBRANCH  26   4
ENDBRANCH  17  18
ENDBRANCH  10   8
BRANCH  11   1
ATOM      1  O   UNL     1      -2.518   5.912  24.508  0.00  0.00    -0.390 OA
ATOM     35  H   UNL     1      -1.711   5.491  24.166  0.00  0.00    +0.210 HD
ENDBRANCH  11   1
TORSDOF 9
ENDMDL
