MODEL 1
REMARK VINA RESULT:      -0.8      0.000      0.000
REMARK  Name = 11882886
REMARK  2 active torsions:
REMARK  status: ('A' for Active; 'I' for Inactive)
REMARK    1  A    between atoms: N_5  and  C_8
REMARK    2  A    between atoms: C_17  and  C_20
REMARK                            x       y       z     vdW  Elec       q    Type
REMARK                         _______ _______ _______ _____ _____    ______ ____
ROOT
ATOM      1  O   UNL     1      -1.733   2.311  22.380  0.00  0.00    -0.273 OA
ATOM      2  O   UNL     1      -4.700  -1.075  25.012  0.00  0.00    -0.270 OA
ATOM      4  N   UNL     1      -2.727   0.033  24.495  0.00  0.00    -0.286 N 
ATOM      6  N   UNL     1      -3.707   2.637  23.486  0.00  0.00    -0.283 N 
ATOM      8  C   UNL     1       0.080  -0.033  23.693  0.00  0.00    +0.077 C 
ATOM      9  C   UNL     1      -1.961   1.272  24.546  0.00  0.00    +0.164 C 
ATOM     10  C   UNL     1      -0.439   1.082  24.600  0.00  0.00    +0.054 C 
ATOM     11  C   UNL     1      -0.695  -1.316  23.976  0.00  0.00    +0.041 C 
ATOM     12  C   UNL     1      -2.180  -1.100  23.744  0.00  0.00    +0.111 C 
ATOM     13  C   UNL     1      -2.443   2.091  23.362  0.00  0.00    +0.238 C 
ATOM     14  C   UNL     1      -4.048  -0.033  24.939  0.00  0.00    +0.249 C 
ATOM     15  C   UNL     1      -4.749   1.233  25.282  0.00  0.00    +0.058 A 
ATOM     16  C   UNL     1      -4.648   2.410  24.516  0.00  0.00    +0.046 A 
ATOM     18  C   UNL     1      -5.707   1.152  26.307  0.00  0.00    +0.015 A 
ATOM     19  C   UNL     1      -5.558   3.454  24.755  0.00  0.00    +0.024 A 
ATOM     21  C   UNL     1      -6.568   2.218  26.562  0.00  0.00    +0.001 A 
ATOM     22  C   UNL     1      -6.502   3.364  25.777  0.00  0.00    +0.002 A 
ATOM     28  H   UNL     1      -3.944   3.360  22.812  0.00  0.00    +0.155 HD
ENDROOT
BRANCH   8   5
ATOM      3  O   UNL     1       2.055   0.063  21.681  0.00  0.00    -0.270 OA
ATOM      5  N   UNL     1       1.496  -0.233  23.890  0.00  0.00    -0.308 N 
ATOM     17  C   UNL     1       2.410  -0.170  22.838  0.00  0.00    +0.244 C 
ATOM     27  H   UNL     1       1.805  -0.438  24.834  0.00  0.00    +0.149 HD
BRANCH  17  20
ATOM      7  N   UNL     1       6.486  -0.731  23.896  0.00  0.00    -0.263 NA
ATOM     20  C   UNL     1       3.820  -0.364  23.203  0.00  0.00    +0.040 A 
ATOM     23  C   UNL     1       4.731   0.650  22.969  0.00  0.00    +0.033 A 
ATOM     24  C   UNL     1       4.218  -1.557  23.778  0.00  0.00    +0.033 A 
ATOM     25  C   UNL     1       6.047   0.417  23.332  0.00  0.00    +0.111 A 
ATOM     26  C   UNL     1       5.558  -1.690  24.104  0.00  0.00    +0.111 A 
ENDBRANCH  17  20
ENDBRANCH   8   5
TORSDOF 2
ENDMDL
