MODEL 1
REMARK VINA RESULT:       9.0      0.000      0.000
REMARK  Name = 45783575
REMARK  6 active torsions:
REMARK  status: ('A' for Active; 'I' for Inactive)
REMARK    1  A    between atoms: O_2  and  C_20
REMARK    2  A    between atoms: O_2  and  C_29
REMARK    3  A    between atoms: N_4  and  C_9
REMARK    4  A    between atoms: C_10  and  C_18
REMARK    5  A    between atoms: C_19  and  C_27
REMARK    6  A    between atoms: C_26  and  C_28
REMARK                            x       y       z     vdW  Elec       q    Type
REMARK                         _______ _______ _______ _____ _____    ______ ____
ROOT
ATOM      1  O   UNL     1      -2.127   3.495  24.590  0.00  0.00    -0.336 OA
ATOM      6  N   UNL     1      -1.966   1.512  23.562  0.00  0.00    -0.190 NA
ATOM      7  N   UNL     1      -0.771   3.321  24.290  0.00  0.00    -0.056 NA
ATOM     18  C   UNL     1      -2.761   2.386  24.128  0.00  0.00    +0.245 A 
ATOM     26  C   UNL     1      -0.756   2.131  23.686  0.00  0.00    +0.204 A 
ENDROOT
BRANCH  26  28
ATOM      8  N   UNL     1       1.515  -0.279  21.992  0.00  0.00    -0.221 NA
ATOM     28  C   UNL     1       0.450   1.528  23.194  0.00  0.00    +0.041 A 
ATOM     29  C   UNL     1       2.701   0.323  22.232  0.00  0.00    +0.215 A 
ATOM     30  C   UNL     1       1.689   2.116  23.423  0.00  0.00    +0.018 A 
ATOM     31  C   UNL     1       0.417   0.342  22.480  0.00  0.00    +0.126 A 
ATOM     32  C   UNL     1       2.841   1.510  22.936  0.00  0.00    +0.068 A 
BRANCH  29   2
ATOM      2  O   UNL     1       3.822  -0.295  21.743  0.00  0.00    -0.473 OA
BRANCH   2  20
ATOM     20  C   UNL     1       4.934  -0.397  22.625  0.00  0.00    +0.175 C 
ATOM     21  C   UNL     1       5.179   0.952  23.300  0.00  0.00    +0.044 C 
ATOM     22  C   UNL     1       4.675  -1.500  23.650  0.00  0.00    +0.044 C 
ATOM     23  C   UNL     1       6.302   0.868  24.329  0.00  0.00    +0.004 C 
ATOM     24  C   UNL     1       5.798  -1.584  24.679  0.00  0.00    +0.004 C 
ATOM     25  C   UNL     1       6.045  -0.236  25.352  0.00  0.00    +0.000 C 
ENDBRANCH   2  20
ENDBRANCH  29   2
ENDBRANCH  26  28
BRANCH  18  10
ATOM      4  N   UNL     1      -4.634   1.723  25.626  0.00  0.00    -0.288 NA
ATOM     10  C   UNL     1      -4.260   2.330  24.333  0.00  0.00    +0.146 C 
ATOM     11  C   UNL     1      -5.906   2.331  26.015  0.00  0.00    +0.085 C 
ATOM     12  C   UNL     1      -4.910   3.725  24.353  0.00  0.00    +0.030 C 
ATOM     15  C   UNL     1      -5.677   3.788  25.666  0.00  0.00    +0.017 C 
BRANCH   4   9
ATOM      3  O   UNL     1      -1.691  -3.664  25.267  0.00  0.00    -0.276 OA
ATOM      5  N   UNL     1      -3.537  -2.297  24.919  0.00  0.00    -0.302 N 
ATOM      9  C   UNL     1      -4.715   0.265  25.575  0.00  0.00    +0.060 C 
ATOM     13  C   UNL     1      -3.605  -0.354  26.435  0.00  0.00    +0.038 C 
ATOM     14  C   UNL     1      -4.602  -0.219  24.124  0.00  0.00    +0.038 C 
ATOM     16  C   UNL     1      -3.611  -1.878  26.320  0.00  0.00    +0.109 C 
ATOM     17  C   UNL     1      -4.588  -1.746  24.055  0.00  0.00    +0.109 C 
ATOM     19  C   UNL     1      -2.543  -3.186  24.513  0.00  0.00    +0.212 C 
ATOM     27  C   UNL     1      -2.531  -3.567  23.054  0.00  0.00    +0.109 C 
ENDBRANCH   4   9
ENDBRANCH  18  10
TORSDOF 5
ENDMDL
MODEL 2
REMARK VINA RESULT:      10.2      1.853      4.372
REMARK  Name = 45783575
REMARK  6 active torsions:
REMARK  status: ('A' for Active; 'I' for Inactive)
REMARK    1  A    between atoms: O_2  and  C_20
REMARK    2  A    between atoms: O_2  and  C_29
REMARK    3  A    between atoms: N_4  and  C_9
REMARK    4  A    between atoms: C_10  and  C_18
REMARK    5  A    between atoms: C_19  and  C_27
REMARK    6  A    between atoms: C_26  and  C_28
REMARK                            x       y       z     vdW  Elec       q    Type
REMARK                         _______ _______ _______ _____ _____    ______ ____
ROOT
ATOM      1  O   UNL     1      -3.331  -0.868  25.003  0.00  0.00    -0.336 OA
ATOM      6  N   UNL     1      -2.286   1.003  24.351  0.00  0.00    -0.190 NA
ATOM      7  N   UNL     1      -2.133  -1.279  24.407  0.00  0.00    -0.056 NA
ATOM     18  C   UNL     1      -3.343   0.489  24.928  0.00  0.00    +0.245 A 
ATOM     26  C   UNL     1      -1.573  -0.120  24.049  0.00  0.00    +0.204 A 
ENDROOT
BRANCH  26  28
ATOM      8  N   UNL     1       1.899   0.940  23.240  0.00  0.00    -0.221 NA
ATOM     28  C   UNL     1      -0.302  -0.049  23.385  0.00  0.00    +0.041 A 
ATOM     29  C   UNL     1       2.135   0.143  22.173  0.00  0.00    +0.215 A 
ATOM     30  C   UNL     1      -0.023  -0.850  22.284  0.00  0.00    +0.018 A 
ATOM     31  C   UNL     1       0.683   0.821  23.820  0.00  0.00    +0.126 A 
ATOM     32  C   UNL     1       1.216  -0.759  21.661  0.00  0.00    +0.068 A 
BRANCH  29   2
ATOM      2  O   UNL     1       3.363   0.253  21.576  0.00  0.00    -0.473 OA
BRANCH   2  20
ATOM     20  C   UNL     1       4.493  -0.096  22.368  0.00  0.00    +0.175 C 
ATOM     21  C   UNL     1       4.938   1.114  23.189  0.00  0.00    +0.044 C 
ATOM     22  C   UNL     1       4.145  -1.286  23.262  0.00  0.00    +0.044 C 
ATOM     23  C   UNL     1       6.088   0.762  24.128  0.00  0.00    +0.004 C 
ATOM     24  C   UNL     1       5.295  -1.637  24.200  0.00  0.00    +0.004 C 
ATOM     25  C   UNL     1       5.741  -0.428  25.020  0.00  0.00    +0.000 C 
ENDBRANCH   2  20
ENDBRANCH  29   2
ENDBRANCH  26  28
BRANCH  18  10
ATOM      4  N   UNL     1      -5.040   2.289  24.661  0.00  0.00    -0.288 NA
ATOM     10  C   UNL     1      -4.552   1.187  25.514  0.00  0.00    +0.146 C 
ATOM     11  C   UNL     1      -6.480   2.391  24.901  0.00  0.00    +0.085 C 
ATOM     12  C   UNL     1      -5.763   0.249  25.670  0.00  0.00    +0.030 C 
ATOM     15  C   UNL     1      -6.898   0.935  24.924  0.00  0.00    +0.017 C 
BRANCH   4   9
ATOM      3  O   UNL     1      -0.229   5.931  23.479  0.00  0.00    -0.276 OA
ATOM      5  N   UNL     1      -1.940   5.156  24.845  0.00  0.00    -0.302 N 
ATOM      9  C   UNL     1      -4.351   3.554  24.905  0.00  0.00    +0.060 C 
ATOM     13  C   UNL     1      -3.785   4.107  23.590  0.00  0.00    +0.038 C 
ATOM     14  C   UNL     1      -3.228   3.353  25.930  0.00  0.00    +0.038 C 
ATOM     16  C   UNL     1      -2.978   5.381  23.837  0.00  0.00    +0.109 C 
ATOM     17  C   UNL     1      -2.431   4.642  26.130  0.00  0.00    +0.109 C 
ATOM     19  C   UNL     1      -0.612   5.466  24.556  0.00  0.00    +0.212 C 
ATOM     27  C   UNL     1       0.397   5.203  25.644  0.00  0.00    +0.109 C 
ENDBRANCH   4   9
ENDBRANCH  18  10
TORSDOF 5
ENDMDL
MODEL 3
REMARK VINA RESULT:      12.3      2.069      4.528
REMARK  Name = 45783575
REMARK  6 active torsions:
REMARK  status: ('A' for Active; 'I' for Inactive)
REMARK    1  A    between atoms: O_2  and  C_20
REMARK    2  A    between atoms: O_2  and  C_29
REMARK    3  A    between atoms: N_4  and  C_9
REMARK    4  A    between atoms: C_10  and  C_18
REMARK    5  A    between atoms: C_19  and  C_27
REMARK    6  A    between atoms: C_26  and  C_28
REMARK                            x       y       z     vdW  Elec       q    Type
REMARK                         _______ _______ _______ _____ _____    ______ ____
ROOT
ATOM      1  O   UNL     1      -1.012   0.678  23.477  0.00  0.00    -0.336 OA
ATOM      6  N   UNL     1       0.143  -1.085  24.235  0.00  0.00    -0.190 NA
ATOM      7  N   UNL     1       0.320   0.898  23.108  0.00  0.00    -0.056 NA
ATOM     18  C   UNL     1      -1.029  -0.510  24.136  0.00  0.00    +0.245 A 
ATOM     26  C   UNL     1       0.939  -0.184  23.589  0.00  0.00    +0.204 A 
ENDROOT
BRANCH  26  28
ATOM      8  N   UNL     1       4.277  -1.808  23.818  0.00  0.00    -0.221 NA
ATOM     28  C   UNL     1       2.351  -0.395  23.445  0.00  0.00    +0.041 A 
ATOM     29  C   UNL     1       5.029  -0.864  23.209  0.00  0.00    +0.215 A 
ATOM     30  C   UNL     1       3.158   0.553  22.826  0.00  0.00    +0.018 A 
ATOM     31  C   UNL     1       2.953  -1.548  23.920  0.00  0.00    +0.126 A 
ATOM     32  C   UNL     1       4.522   0.322  22.701  0.00  0.00    +0.068 A 
BRANCH  29   2
ATOM      2  O   UNL     1       6.371  -1.115  23.100  0.00  0.00    -0.473 OA
BRANCH   2  20
ATOM     20  C   UNL     1       7.229   0.017  23.011  0.00  0.00    +0.175 C 
ATOM     21  C   UNL     1       6.944   0.970  24.171  0.00  0.00    +0.044 C 
ATOM     22  C   UNL     1       8.687  -0.444  23.006  0.00  0.00    +0.044 C 
ATOM     23  C   UNL     1       7.907   2.153  24.174  0.00  0.00    +0.004 C 
ATOM     24  C   UNL     1       9.649   0.739  23.009  0.00  0.00    +0.004 C 
ATOM     25  C   UNL     1       9.363   1.693  24.167  0.00  0.00    +0.000 C 
ENDBRANCH   2  20
ENDBRANCH  29   2
ENDBRANCH  26  28
BRANCH  18  10
ATOM      4  N   UNL     1      -3.475  -0.675  23.708  0.00  0.00    -0.288 NA
ATOM     10  C   UNL     1      -2.376  -0.980  24.645  0.00  0.00    +0.146 C 
ATOM     11  C   UNL     1      -4.488  -1.712  23.907  0.00  0.00    +0.085 C 
ATOM     12  C   UNL     1      -2.438  -2.507  24.836  0.00  0.00    +0.030 C 
ATOM     15  C   UNL     1      -3.639  -2.962  24.019  0.00  0.00    +0.017 C 
BRANCH   4   9
ATOM      3  O   UNL     1      -2.449   5.276  24.867  0.00  0.00    -0.276 OA
ATOM      5  N   UNL     1      -3.779   3.372  24.890  0.00  0.00    -0.302 N 
ATOM      9  C   UNL     1      -4.023   0.669  23.882  0.00  0.00    +0.060 C 
ATOM     13  C   UNL     1      -3.110   1.700  23.205  0.00  0.00    +0.038 C 
ATOM     14  C   UNL     1      -4.176   0.986  25.375  0.00  0.00    +0.038 C 
ATOM     16  C   UNL     1      -3.614   3.121  23.457  0.00  0.00    +0.109 C 
ATOM     17  C   UNL     1      -4.658   2.421  25.584  0.00  0.00    +0.109 C 
ATOM     19  C   UNL     1      -3.155   4.470  25.480  0.00  0.00    +0.212 C 
ATOM     27  C   UNL     1      -3.371   4.658  26.960  0.00  0.00    +0.109 C 
ENDBRANCH   4   9
ENDBRANCH  18  10
TORSDOF 5
ENDMDL
