MODEL 1
REMARK VINA RESULT:      -0.1      0.000      0.000
REMARK  Name = 75367729
REMARK  8 active torsions:
REMARK  status: ('A' for Active; 'I' for Inactive)
REMARK    1  A    between atoms: S_2  and  C_22
REMARK    2  A    between atoms: S_2  and  C_26
REMARK    3  A    between atoms: O_4  and  C_10
REMARK    4  A    between atoms: O_4  and  C_16
REMARK    5  A    between atoms: N_7  and  C_13
REMARK    6  A    between atoms: C_13  and  C_15
REMARK    7  A    between atoms: C_17  and  C_21
REMARK    8  A    between atoms: C_18  and  C_25
REMARK                            x       y       z     vdW  Elec       q    Type
REMARK                         _______ _______ _______ _____ _____    ______ ____
ROOT
ATOM      3  O   UNL     1      -2.581   6.010  24.349  0.00  0.00    -0.375 OA
ATOM      7  N   UNL     1      -0.996   3.628  25.589  0.00  0.00    -0.292 NA
ATOM      9  C   UNL     1      -2.085   2.873  24.959  0.00  0.00    +0.131 C 
ATOM     10  C   UNL     1      -3.126   3.660  24.147  0.00  0.00    +0.213 C 
ATOM     11  C   UNL     1      -0.501   4.752  24.793  0.00  0.00    +0.113 C 
ATOM     12  C   UNL     1      -3.508   5.005  24.750  0.00  0.00    +0.205 C 
ATOM     14  C   UNL     1      -1.351   5.995  25.061  0.00  0.00    +0.175 C 
ENDROOT
BRANCH  10   4
ATOM      4  O   UNL     1      -4.310   2.867  24.056  0.00  0.00    -0.485 OA
BRANCH   4  16
ATOM     16  C   UNL     1      -4.146   1.511  24.145  0.00  0.00    +0.121 A 
ATOM     19  C   UNL     1      -4.609   0.825  25.267  0.00  0.00    +0.047 A 
ATOM     20  C   UNL     1      -3.516   0.816  23.113  0.00  0.00    +0.047 A 
ATOM     22  C   UNL     1      -3.812  -1.252  24.326  0.00  0.00    +0.088 A 
ATOM     23  C   UNL     1      -4.442  -0.557  25.358  0.00  0.00    +0.030 A 
ATOM     24  C   UNL     1      -3.349  -0.566  23.204  0.00  0.00    +0.030 A 
BRANCH  22   2
ATOM      2  S   UNL     1      -3.600  -2.981  24.441  0.00  0.00    -0.006 S 
ATOM      5  O   UNL     1      -3.532  -3.357  25.846  0.00  0.00    -0.170 OA
ATOM      6  O   UNL     1      -4.582  -3.612  23.571  0.00  0.00    -0.170 OA
ATOM     26  C   UNL     1      -1.987  -3.276  23.749  0.00  0.00    +0.200 C 
ENDBRANCH  22   2
ENDBRANCH   4  16
ENDBRANCH  10   4
BRANCH   7  13
ATOM     13  C   UNL     1       0.089   2.722  25.970  0.00  0.00    +0.129 C 
BRANCH  13  15
ATOM      1  S   UNL     1       1.141   1.751  23.569  0.00  0.00    -0.076 S 
ATOM      8  N   UNL     1       0.015  -0.533  24.010  0.00  0.00    -0.249 NA
ATOM     15  C   UNL     1       0.223   1.573  25.007  0.00  0.00    +0.026 A 
ATOM     17  C   UNL     1      -0.296   0.297  25.069  0.00  0.00    +0.050 A 
ATOM     18  C   UNL     1       0.768   0.127  23.158  0.00  0.00    +0.076 A 
ATOM     21  C   UNL     1      -1.141  -0.246  26.152  0.00  0.00    +0.066 C 
ATOM     25  C   UNL     1       1.297  -0.435  21.897  0.00  0.00    +0.073 C 
ENDBRANCH  13  15
ENDBRANCH   7  13
TORSDOF 5
ENDMDL
MODEL 2
REMARK VINA RESULT:      -0.0      2.727      4.600
REMARK  Name = 75367729
REMARK  8 active torsions:
REMARK  status: ('A' for Active; 'I' for Inactive)
REMARK    1  A    between atoms: S_2  and  C_22
REMARK    2  A    between atoms: S_2  and  C_26
REMARK    3  A    between atoms: O_4  and  C_10
REMARK    4  A    between atoms: O_4  and  C_16
REMARK    5  A    between atoms: N_7  and  C_13
REMARK    6  A    between atoms: C_13  and  C_15
REMARK    7  A    between atoms: C_17  and  C_21
REMARK    8  A    between atoms: C_18  and  C_25
REMARK                            x       y       z     vdW  Elec       q    Type
REMARK                         _______ _______ _______ _____ _____    ______ ____
ROOT
ATOM      3  O   UNL     1      -5.358   4.113  24.779  0.00  0.00    -0.375 OA
ATOM      7  N   UNL     1      -4.589   1.139  25.320  0.00  0.00    -0.292 NA
ATOM      9  C   UNL     1      -3.319   1.774  25.691  0.00  0.00    +0.131 C 
ATOM     10  C   UNL     1      -3.241   3.308  25.636  0.00  0.00    +0.213 C 
ATOM     11  C   UNL     1      -5.779   1.878  25.745  0.00  0.00    +0.113 C 
ATOM     12  C   UNL     1      -3.981   3.932  24.460  0.00  0.00    +0.205 C 
ATOM     14  C   UNL     1      -6.141   2.930  24.696  0.00  0.00    +0.175 C 
ENDROOT
BRANCH  10   4
ATOM      4  O   UNL     1      -1.866   3.679  25.537  0.00  0.00    -0.485 OA
BRANCH   4  16
ATOM     16  C   UNL     1      -1.042   2.807  24.879  0.00  0.00    +0.121 A 
ATOM     19  C   UNL     1       0.221   2.517  25.394  0.00  0.00    +0.047 A 
ATOM     20  C   UNL     1      -1.466   2.209  23.693  0.00  0.00    +0.047 A 
ATOM     22  C   UNL     1       0.637   1.030  23.537  0.00  0.00    +0.088 A 
ATOM     23  C   UNL     1       1.060   1.628  24.723  0.00  0.00    +0.030 A 
ATOM     24  C   UNL     1      -0.627   1.320  23.022  0.00  0.00    +0.030 A 
BRANCH  22   2
ATOM      2  S   UNL     1       1.688  -0.081  22.695  0.00  0.00    -0.006 S 
ATOM      5  O   UNL     1       2.014  -1.188  23.583  0.00  0.00    -0.170 OA
ATOM      6  O   UNL     1       1.104  -0.350  21.389  0.00  0.00    -0.170 OA
ATOM     26  C   UNL     1       3.191   0.838  22.442  0.00  0.00    +0.200 C 
ENDBRANCH  22   2
ENDBRANCH   4  16
ENDBRANCH  10   4
BRANCH   7  13
ATOM     13  C   UNL     1      -4.618  -0.244  25.798  0.00  0.00    +0.129 C 
BRANCH  13  15
ATOM      1  S   UNL     1      -1.887  -0.729  26.144  0.00  0.00    -0.076 S 
ATOM      8  N   UNL     1      -1.969  -2.490  24.254  0.00  0.00    -0.249 NA
ATOM     15  C   UNL     1      -3.394  -1.010  25.372  0.00  0.00    +0.026 A 
ATOM     17  C   UNL     1      -3.242  -1.975  24.400  0.00  0.00    +0.050 A 
ATOM     18  C   UNL     1      -1.172  -1.906  25.121  0.00  0.00    +0.076 A 
ATOM     21  C   UNL     1      -4.307  -2.494  23.517  0.00  0.00    +0.066 C 
ATOM     25  C   UNL     1       0.271  -2.199  25.261  0.00  0.00    +0.073 C 
ENDBRANCH  13  15
ENDBRANCH   7  13
TORSDOF 5
ENDMDL
MODEL 3
REMARK VINA RESULT:       0.5      2.912      5.375
REMARK  Name = 75367729
REMARK  8 active torsions:
REMARK  status: ('A' for Active; 'I' for Inactive)
REMARK    1  A    between atoms: S_2  and  C_22
REMARK    2  A    between atoms: S_2  and  C_26
REMARK    3  A    between atoms: O_4  and  C_10
REMARK    4  A    between atoms: O_4  and  C_16
REMARK    5  A    between atoms: N_7  and  C_13
REMARK    6  A    between atoms: C_13  and  C_15
REMARK    7  A    between atoms: C_17  and  C_21
REMARK    8  A    between atoms: C_18  and  C_25
REMARK                            x       y       z     vdW  Elec       q    Type
REMARK                         _______ _______ _______ _____ _____    ______ ____
ROOT
ATOM      3  O   UNL     1       2.212   0.671  22.549  0.00  0.00    -0.375 OA
ATOM      7  N   UNL     1       0.424  -0.737  24.681  0.00  0.00    -0.292 NA
ATOM      9  C   UNL     1      -0.266   0.557  24.625  0.00  0.00    +0.131 C 
ATOM     10  C   UNL     1       0.251   1.602  23.623  0.00  0.00    +0.213 C 
ATOM     11  C   UNL     1       0.879  -1.235  23.382  0.00  0.00    +0.113 C 
ATOM     12  C   UNL     1       1.767   1.646  23.488  0.00  0.00    +0.205 C 
ATOM     14  C   UNL     1       2.255  -0.656  23.055  0.00  0.00    +0.175 C 
ENDROOT
BRANCH  10   4
ATOM      4  O   UNL     1      -0.190   2.888  24.056  0.00  0.00    -0.485 OA
BRANCH   4  16
ATOM     16  C   UNL     1      -1.496   2.985  24.455  0.00  0.00    +0.121 A 
ATOM     19  C   UNL     1      -1.800   3.408  25.748  0.00  0.00    +0.047 A 
ATOM     20  C   UNL     1      -2.521   2.660  23.567  0.00  0.00    +0.047 A 
ATOM     22  C   UNL     1      -4.157   3.181  25.267  0.00  0.00    +0.088 A 
ATOM     23  C   UNL     1      -3.132   3.506  26.154  0.00  0.00    +0.030 A 
ATOM     24  C   UNL     1      -3.852   2.759  23.973  0.00  0.00    +0.030 A 
BRANCH  22   2
ATOM      2  S   UNL     1      -5.823   3.302  25.776  0.00  0.00    -0.006 S 
ATOM      5  O   UNL     1      -5.973   2.636  27.062  0.00  0.00    -0.170 OA
ATOM      6  O   UNL     1      -6.238   4.689  25.627  0.00  0.00    -0.170 OA
ATOM     26  C   UNL     1      -6.720   2.332  24.584  0.00  0.00    +0.200 C 
ENDBRANCH  22   2
ENDBRANCH   4  16
ENDBRANCH  10   4
BRANCH   7  13
ATOM     13  C   UNL     1      -0.412  -1.723  25.370  0.00  0.00    +0.129 C 
BRANCH  13  15
ATOM      1  S   UNL     1      -2.839  -0.342  25.490  0.00  0.00    -0.076 S 
ATOM      8  N   UNL     1      -3.907  -2.100  23.925  0.00  0.00    -0.249 NA
ATOM     15  C   UNL     1      -1.852  -1.634  24.941  0.00  0.00    +0.026 A 
ATOM     17  C   UNL     1      -2.589  -2.463  24.123  0.00  0.00    +0.050 A 
ATOM     18  C   UNL     1      -4.150  -0.997  24.598  0.00  0.00    +0.076 A 
ATOM     21  C   UNL     1      -2.097  -3.685  23.454  0.00  0.00    +0.066 C 
ATOM     25  C   UNL     1      -5.458  -0.307  24.629  0.00  0.00    +0.073 C 
ENDBRANCH  13  15
ENDBRANCH   7  13
TORSDOF 5
ENDMDL
MODEL 4
REMARK VINA RESULT:       0.8      2.896      4.747
REMARK  Name = 75367729
REMARK  8 active torsions:
REMARK  status: ('A' for Active; 'I' for Inactive)
REMARK    1  A    between atoms: S_2  and  C_22
REMARK    2  A    between atoms: S_2  and  C_26
REMARK    3  A    between atoms: O_4  and  C_10
REMARK    4  A    between atoms: O_4  and  C_16
REMARK    5  A    between atoms: N_7  and  C_13
REMARK    6  A    between atoms: C_13  and  C_15
REMARK    7  A    between atoms: C_17  and  C_21
REMARK    8  A    between atoms: C_18  and  C_25
REMARK                            x       y       z     vdW  Elec       q    Type
REMARK                         _______ _______ _______ _____ _____    ______ ____
ROOT
ATOM      3  O   UNL     1      -6.372   1.643  24.934  0.00  0.00    -0.375 OA
ATOM      7  N   UNL     1      -3.913   3.110  26.170  0.00  0.00    -0.292 NA
ATOM      9  C   UNL     1      -3.215   1.979  25.550  0.00  0.00    +0.131 C 
ATOM     10  C   UNL     1      -4.052   0.975  24.742  0.00  0.00    +0.213 C 
ATOM     11  C   UNL     1      -5.008   3.657  25.367  0.00  0.00    +0.113 C 
ATOM     12  C   UNL     1      -5.417   0.668  25.343  0.00  0.00    +0.205 C 
ATOM     14  C   UNL     1      -6.294   2.875  25.637  0.00  0.00    +0.175 C 
ENDROOT
BRANCH  10   4
ATOM      4  O   UNL     1      -3.322  -0.249  24.661  0.00  0.00    -0.485 OA
BRANCH   4  16
ATOM     16  C   UNL     1      -2.032  -0.163  24.214  0.00  0.00    +0.121 A 
ATOM     19  C   UNL     1      -1.089  -1.109  24.616  0.00  0.00    +0.047 A 
ATOM     20  C   UNL     1      -1.659   0.871  23.356  0.00  0.00    +0.047 A 
ATOM     22  C   UNL     1       0.599   0.014  23.303  0.00  0.00    +0.088 A 
ATOM     23  C   UNL     1       0.226  -1.021  24.161  0.00  0.00    +0.030 A 
ATOM     24  C   UNL     1      -0.343   0.960  22.900  0.00  0.00    +0.030 A 
BRANCH  22   2
ATOM      2  S   UNL     1       2.246   0.126  22.735  0.00  0.00    -0.006 S 
ATOM      5  O   UNL     1       2.277  -0.182  21.312  0.00  0.00    -0.170 OA
ATOM      6  O   UNL     1       2.801   1.384  23.214  0.00  0.00    -0.170 OA
ATOM     26  C   UNL     1       3.093  -1.198  23.569  0.00  0.00    +0.200 C 
ENDBRANCH  22   2
ENDBRANCH   4  16
ENDBRANCH  10   4
BRANCH   7  13
ATOM     13  C   UNL     1      -2.954   4.149  26.546  0.00  0.00    +0.129 C 
BRANCH  13  15
ATOM      1  S   UNL     1      -1.740   5.304  24.308  0.00  0.00    -0.076 S 
ATOM      8  N   UNL     1       0.280   3.717  24.596  0.00  0.00    -0.249 NA
ATOM     15  C   UNL     1      -1.775   4.188  25.611  0.00  0.00    +0.026 A 
ATOM     17  C   UNL     1      -0.621   3.433  25.603  0.00  0.00    +0.050 A 
ATOM     18  C   UNL     1      -0.205   4.687  23.852  0.00  0.00    +0.076 A 
ATOM     21  C   UNL     1      -0.275   2.365  26.564  0.00  0.00    +0.066 C 
ATOM     25  C   UNL     1       0.480   5.261  22.673  0.00  0.00    +0.073 C 
ENDBRANCH  13  15
ENDBRANCH   7  13
TORSDOF 5
ENDMDL
MODEL 5
REMARK VINA RESULT:       1.1      0.986      1.747
REMARK  Name = 75367729
REMARK  8 active torsions:
REMARK  status: ('A' for Active; 'I' for Inactive)
REMARK    1  A    between atoms: S_2  and  C_22
REMARK    2  A    between atoms: S_2  and  C_26
REMARK    3  A    between atoms: O_4  and  C_10
REMARK    4  A    between atoms: O_4  and  C_16
REMARK    5  A    between atoms: N_7  and  C_13
REMARK    6  A    between atoms: C_13  and  C_15
REMARK    7  A    between atoms: C_17  and  C_21
REMARK    8  A    between atoms: C_18  and  C_25
REMARK                            x       y       z     vdW  Elec       q    Type
REMARK                         _______ _______ _______ _____ _____    ______ ____
ROOT
ATOM      3  O   UNL     1      -2.225   6.033  25.106  0.00  0.00    -0.375 OA
ATOM      7  N   UNL     1      -0.615   3.478  24.328  0.00  0.00    -0.292 NA
ATOM      9  C   UNL     1      -1.968   2.993  24.033  0.00  0.00    +0.131 C 
ATOM     10  C   UNL     1      -3.137   3.973  24.219  0.00  0.00    +0.213 C 
ATOM     11  C   UNL     1      -0.377   4.872  23.949  0.00  0.00    +0.113 C 
ATOM     12  C   UNL     1      -3.005   4.886  25.430  0.00  0.00    +0.205 C 
ATOM     14  C   UNL     1      -0.824   5.803  25.076  0.00  0.00    +0.175 C 
ENDROOT
BRANCH  10   4
ATOM      4  O   UNL     1      -4.335   3.211  24.370  0.00  0.00    -0.485 OA
BRANCH   4  16
ATOM     16  C   UNL     1      -4.200   1.850  24.354  0.00  0.00    +0.121 A 
ATOM     19  C   UNL     1      -4.675   1.089  25.422  0.00  0.00    +0.047 A 
ATOM     20  C   UNL     1      -3.587   1.223  23.270  0.00  0.00    +0.047 A 
ATOM     22  C   UNL     1      -3.924  -0.926  24.321  0.00  0.00    +0.088 A 
ATOM     23  C   UNL     1      -4.537  -0.299  25.405  0.00  0.00    +0.030 A 
ATOM     24  C   UNL     1      -3.449  -0.165  23.253  0.00  0.00    +0.030 A 
BRANCH  22   2
ATOM      2  S   UNL     1      -3.748  -2.663  24.301  0.00  0.00    -0.006 S 
ATOM      5  O   UNL     1      -3.610  -3.139  25.670  0.00  0.00    -0.170 OA
ATOM      6  O   UNL     1      -4.794  -3.210  23.448  0.00  0.00    -0.170 OA
ATOM     26  C   UNL     1      -2.186  -2.940  23.497  0.00  0.00    +0.200 C 
ENDBRANCH  22   2
ENDBRANCH   4  16
ENDBRANCH  10   4
BRANCH   7  13
ATOM     13  C   UNL     1       0.381   2.584  23.735  0.00  0.00    +0.129 C 
BRANCH  13  15
ATOM      1  S   UNL     1      -0.644   0.807  25.634  0.00  0.00    -0.076 S 
ATOM      8  N   UNL     1       0.236  -1.181  24.236  0.00  0.00    -0.249 NA
ATOM     15  C   UNL     1       0.184   1.157  24.173  0.00  0.00    +0.026 A 
ATOM     17  C   UNL     1       0.574  -0.019  23.570  0.00  0.00    +0.050 A 
ATOM     18  C   UNL     1      -0.409  -0.867  25.338  0.00  0.00    +0.076 A 
ATOM     21  C   UNL     1       1.312  -0.140  22.295  0.00  0.00    +0.066 C 
ATOM     25  C   UNL     1      -0.929  -1.850  26.313  0.00  0.00    +0.073 C 
ENDBRANCH  13  15
ENDBRANCH   7  13
TORSDOF 5
ENDMDL
MODEL 6
REMARK VINA RESULT:       1.3      2.188      5.769
REMARK  Name = 75367729
REMARK  8 active torsions:
REMARK  status: ('A' for Active; 'I' for Inactive)
REMARK    1  A    between atoms: S_2  and  C_22
REMARK    2  A    between atoms: S_2  and  C_26
REMARK    3  A    between atoms: O_4  and  C_10
REMARK    4  A    between atoms: O_4  and  C_16
REMARK    5  A    between atoms: N_7  and  C_13
REMARK    6  A    between atoms: C_13  and  C_15
REMARK    7  A    between atoms: C_17  and  C_21
REMARK    8  A    between atoms: C_18  and  C_25
REMARK                            x       y       z     vdW  Elec       q    Type
REMARK                         _______ _______ _______ _____ _____    ______ ____
ROOT
ATOM      3  O   UNL     1      -2.749  -3.595  23.864  0.00  0.00    -0.375 OA
ATOM      7  N   UNL     1      -1.408  -1.060  25.090  0.00  0.00    -0.292 NA
ATOM      9  C   UNL     1      -2.815  -0.679  25.261  0.00  0.00    +0.131 C 
ATOM     10  C   UNL     1      -3.890  -1.691  24.832  0.00  0.00    +0.213 C 
ATOM     11  C   UNL     1      -1.130  -2.473  25.355  0.00  0.00    +0.113 C 
ATOM     12  C   UNL     1      -3.556  -2.461  23.562  0.00  0.00    +0.205 C 
ATOM     14  C   UNL     1      -1.379  -3.299  24.093  0.00  0.00    +0.175 C 
ENDROOT
BRANCH  10   4
ATOM      4  O   UNL     1      -5.106  -0.979  24.609  0.00  0.00    -0.485 OA
BRANCH   4  16
ATOM     16  C   UNL     1      -5.053   0.381  24.746  0.00  0.00    +0.121 A 
ATOM     19  C   UNL     1      -4.185   1.129  23.950  0.00  0.00    +0.047 A 
ATOM     20  C   UNL     1      -5.866   1.020  25.681  0.00  0.00    +0.047 A 
ATOM     22  C   UNL     1      -4.944   3.154  25.026  0.00  0.00    +0.088 A 
ATOM     23  C   UNL     1      -4.131   2.516  24.091  0.00  0.00    +0.030 A 
ATOM     24  C   UNL     1      -5.812   2.407  25.822  0.00  0.00    +0.030 A 
BRANCH  22   2
ATOM      2  S   UNL     1      -4.874   4.890  25.204  0.00  0.00    -0.006 S 
ATOM      5  O   UNL     1      -4.295   5.465  23.998  0.00  0.00    -0.170 OA
ATOM      6  O   UNL     1      -6.176   5.346  25.669  0.00  0.00    -0.170 OA
ATOM     26  C   UNL     1      -3.701   5.153  26.516  0.00  0.00    +0.200 C 
ENDBRANCH  22   2
ENDBRANCH   4  16
ENDBRANCH  10   4
BRANCH   7  13
ATOM     13  C   UNL     1      -0.549  -0.186  25.890  0.00  0.00    +0.129 C 
BRANCH  13  15
ATOM      1  S   UNL     1      -1.053   2.556  26.096  0.00  0.00    -0.076 S 
ATOM      8  N   UNL     1       0.104   2.932  23.816  0.00  0.00    -0.249 NA
ATOM     15  C   UNL     1      -0.423   1.185  25.280  0.00  0.00    +0.026 A 
ATOM     17  C   UNL     1       0.153   1.579  24.091  0.00  0.00    +0.050 A 
ATOM     18  C   UNL     1      -0.510   3.545  24.803  0.00  0.00    +0.076 A 
ATOM     21  C   UNL     1       0.805   0.692  23.105  0.00  0.00    +0.066 C 
ATOM     25  C   UNL     1      -0.753   5.003  24.861  0.00  0.00    +0.073 C 
ENDBRANCH  13  15
ENDBRANCH   7  13
TORSDOF 5
ENDMDL
MODEL 7
REMARK VINA RESULT:       1.6      1.808      5.662
REMARK  Name = 75367729
REMARK  8 active torsions:
REMARK  status: ('A' for Active; 'I' for Inactive)
REMARK    1  A    between atoms: S_2  and  C_22
REMARK    2  A    between atoms: S_2  and  C_26
REMARK    3  A    between atoms: O_4  and  C_10
REMARK    4  A    between atoms: O_4  and  C_16
REMARK    5  A    between atoms: N_7  and  C_13
REMARK    6  A    between atoms: C_13  and  C_15
REMARK    7  A    between atoms: C_17  and  C_21
REMARK    8  A    between atoms: C_18  and  C_25
REMARK                            x       y       z     vdW  Elec       q    Type
REMARK                         _______ _______ _______ _____ _____    ______ ____
ROOT
ATOM      3  O   UNL     1      -4.608  -2.966  23.835  0.00  0.00    -0.375 OA
ATOM      7  N   UNL     1      -2.179  -1.366  24.959  0.00  0.00    -0.292 NA
ATOM      9  C   UNL     1      -3.217  -0.341  25.114  0.00  0.00    +0.131 C 
ATOM     10  C   UNL     1      -4.657  -0.715  24.726  0.00  0.00    +0.213 C 
ATOM     11  C   UNL     1      -2.619  -2.725  25.280  0.00  0.00    +0.113 C 
ATOM     12  C   UNL     1      -4.766  -1.593  23.487  0.00  0.00    +0.205 C 
ATOM     14  C   UNL     1      -3.263  -3.368  24.051  0.00  0.00    +0.175 C 
ENDROOT
BRANCH  10   4
ATOM      4  O   UNL     1      -5.377   0.492  24.474  0.00  0.00    -0.485 OA
BRANCH   4  16
ATOM     16  C   UNL     1      -4.662   1.657  24.547  0.00  0.00    +0.121 A 
ATOM     19  C   UNL     1      -3.722   1.961  23.563  0.00  0.00    +0.047 A 
ATOM     20  C   UNL     1      -4.874   2.539  25.605  0.00  0.00    +0.047 A 
ATOM     22  C   UNL     1      -3.205   4.031  24.696  0.00  0.00    +0.088 A 
ATOM     23  C   UNL     1      -2.993   3.148  23.637  0.00  0.00    +0.030 A 
ATOM     24  C   UNL     1      -4.145   3.727  25.680  0.00  0.00    +0.030 A 
BRANCH  22   2
ATOM      2  S   UNL     1      -2.291   5.515  24.791  0.00  0.00    -0.006 S 
ATOM      5  O   UNL     1      -2.640   6.358  23.655  0.00  0.00    -0.170 OA
ATOM      6  O   UNL     1      -2.421   6.036  26.144  0.00  0.00    -0.170 OA
ATOM     26  C   UNL     1      -0.601   5.010  24.560  0.00  0.00    +0.200 C 
ENDBRANCH  22   2
ENDBRANCH   4  16
ENDBRANCH  10   4
BRANCH   7  13
ATOM     13  C   UNL     1      -0.987  -0.994  25.723  0.00  0.00    +0.129 C 
BRANCH  13  15
ATOM      1  S   UNL     1       0.925  -0.932  23.685  0.00  0.00    -0.076 S 
ATOM      8  N   UNL     1       1.208   1.612  24.039  0.00  0.00    -0.249 NA
ATOM     15  C   UNL     1      -0.025  -0.180  24.900  0.00  0.00    +0.026 A 
ATOM     17  C   UNL     1       0.261   1.168  24.941  0.00  0.00    +0.050 A 
ATOM     18  C   UNL     1       1.628   0.591  23.325  0.00  0.00    +0.076 A 
ATOM     21  C   UNL     1      -0.350   2.159  25.852  0.00  0.00    +0.066 C 
ATOM     25  C   UNL     1       2.647   0.679  22.257  0.00  0.00    +0.073 C 
ENDBRANCH  13  15
ENDBRANCH   7  13
TORSDOF 5
ENDMDL
MODEL 8
REMARK VINA RESULT:       2.1      2.447      6.782
REMARK  Name = 75367729
REMARK  8 active torsions:
REMARK  status: ('A' for Active; 'I' for Inactive)
REMARK    1  A    between atoms: S_2  and  C_22
REMARK    2  A    between atoms: S_2  and  C_26
REMARK    3  A    between atoms: O_4  and  C_10
REMARK    4  A    between atoms: O_4  and  C_16
REMARK    5  A    between atoms: N_7  and  C_13
REMARK    6  A    between atoms: C_13  and  C_15
REMARK    7  A    between atoms: C_17  and  C_21
REMARK    8  A    between atoms: C_18  and  C_25
REMARK                            x       y       z     vdW  Elec       q    Type
REMARK                         _______ _______ _______ _____ _____    ______ ____
ROOT
ATOM      3  O   UNL     1      -1.486  -3.395  25.429  0.00  0.00    -0.375 OA
ATOM      7  N   UNL     1      -3.483  -1.199  24.473  0.00  0.00    -0.292 NA
ATOM      9  C   UNL     1      -2.225  -0.523  24.139  0.00  0.00    +0.131 C 
ATOM     10  C   UNL     1      -0.913  -1.283  24.392  0.00  0.00    +0.213 C 
ATOM     11  C   UNL     1      -3.488  -2.636  24.196  0.00  0.00    +0.113 C 
ATOM     12  C   UNL     1      -0.906  -2.116  25.667  0.00  0.00    +0.205 C 
ATOM     14  C   UNL     1      -2.906  -3.399  25.386  0.00  0.00    +0.175 C 
ENDROOT
BRANCH  10   4
ATOM      4  O   UNL     1       0.144  -0.328  24.485  0.00  0.00    -0.485 OA
BRANCH   4  16
ATOM     16  C   UNL     1      -0.227   0.982  24.627  0.00  0.00    +0.121 A 
ATOM     19  C   UNL     1      -0.925   1.390  25.764  0.00  0.00    +0.047 A 
ATOM     20  C   UNL     1       0.093   1.908  23.635  0.00  0.00    +0.047 A 
ATOM     22  C   UNL     1      -0.982   3.651  24.917  0.00  0.00    +0.088 A 
ATOM     23  C   UNL     1      -1.302   2.725  25.908  0.00  0.00    +0.030 A 
ATOM     24  C   UNL     1      -0.284   3.243  23.780  0.00  0.00    +0.030 A 
BRANCH  22   2
ATOM      2  S   UNL     1      -1.458   5.322  25.096  0.00  0.00    -0.006 S 
ATOM      5  O   UNL     1      -2.327   5.443  26.258  0.00  0.00    -0.170 OA
ATOM      6  O   UNL     1      -0.258   6.142  25.003  0.00  0.00    -0.170 OA
ATOM     26  C   UNL     1      -2.459   5.653  23.663  0.00  0.00    +0.200 C 
ENDBRANCH  22   2
ENDBRANCH   4  16
ENDBRANCH  10   4
BRANCH   7  13
ATOM     13  C   UNL     1      -4.606  -0.524  23.820  0.00  0.00    +0.129 C 
BRANCH  13  15
ATOM      1  S   UNL     1      -5.599   1.497  25.477  0.00  0.00    -0.076 S 
ATOM      8  N   UNL     1      -4.274   3.251  24.117  0.00  0.00    -0.249 NA
ATOM     15  C   UNL     1      -4.651   0.942  24.159  0.00  0.00    +0.026 A 
ATOM     17  C   UNL     1      -4.022   2.013  23.559  0.00  0.00    +0.050 A 
ATOM     18  C   UNL     1      -5.093   3.100  25.135  0.00  0.00    +0.076 A 
ATOM     21  C   UNL     1      -3.119   1.948  22.391  0.00  0.00    +0.066 C 
ATOM     25  C   UNL     1      -5.591   4.208  25.980  0.00  0.00    +0.073 C 
ENDBRANCH  13  15
ENDBRANCH   7  13
TORSDOF 5
ENDMDL
MODEL 9
REMARK VINA RESULT:       2.1      3.202      6.535
REMARK  Name = 75367729
REMARK  8 active torsions:
REMARK  status: ('A' for Active; 'I' for Inactive)
REMARK    1  A    between atoms: S_2  and  C_22
REMARK    2  A    between atoms: S_2  and  C_26
REMARK    3  A    between atoms: O_4  and  C_10
REMARK    4  A    between atoms: O_4  and  C_16
REMARK    5  A    between atoms: N_7  and  C_13
REMARK    6  A    between atoms: C_13  and  C_15
REMARK    7  A    between atoms: C_17  and  C_21
REMARK    8  A    between atoms: C_18  and  C_25
REMARK                            x       y       z     vdW  Elec       q    Type
REMARK                         _______ _______ _______ _____ _____    ______ ____
ROOT
ATOM      3  O   UNL     1      -3.666  -3.040  23.986  0.00  0.00    -0.375 OA
ATOM      7  N   UNL     1      -4.369  -0.116  24.814  0.00  0.00    -0.292 NA
ATOM      9  C   UNL     1      -2.917  -0.068  25.020  0.00  0.00    +0.131 C 
ATOM     10  C   UNL     1      -2.101  -1.323  24.670  0.00  0.00    +0.213 C 
ATOM     11  C   UNL     1      -4.786  -0.867  23.628  0.00  0.00    +0.113 C 
ATOM     12  C   UNL     1      -2.783  -2.636  25.029  0.00  0.00    +0.205 C 
ATOM     14  C   UNL     1      -4.909  -2.352  23.968  0.00  0.00    +0.175 C 
ENDROOT
BRANCH  10   4
ATOM      4  O   UNL     1      -0.864  -1.261  25.380  0.00  0.00    -0.485 OA
BRANCH   4  16
ATOM     16  C   UNL     1       0.210  -0.764  24.694  0.00  0.00    +0.121 A 
ATOM     19  C   UNL     1       0.258   0.589  24.358  0.00  0.00    +0.047 A 
ATOM     20  C   UNL     1       1.257  -1.610  24.330  0.00  0.00    +0.047 A 
ATOM     22  C   UNL     1       2.401   0.249  23.294  0.00  0.00    +0.088 A 
ATOM     23  C   UNL     1       1.354   1.095  23.658  0.00  0.00    +0.030 A 
ATOM     24  C   UNL     1       2.352  -1.104  23.630  0.00  0.00    +0.030 A 
BRANCH  22   2
ATOM      2  S   UNL     1       3.771   0.881  22.416  0.00  0.00    -0.006 S 
ATOM      5  O   UNL     1       3.731   0.377  21.051  0.00  0.00    -0.170 OA
ATOM      6  O   UNL     1       3.832   2.317  22.655  0.00  0.00    -0.170 OA
ATOM     26  C   UNL     1       5.182   0.135  23.202  0.00  0.00    +0.200 C 
ENDBRANCH  22   2
ENDBRANCH   4  16
ENDBRANCH  10   4
BRANCH   7  13
ATOM     13  C   UNL     1      -4.922   1.239  24.812  0.00  0.00    +0.129 C 
BRANCH  13  15
ATOM      1  S   UNL     1      -3.558   3.458  25.826  0.00  0.00    -0.076 S 
ATOM      8  N   UNL     1      -2.117   3.542  23.681  0.00  0.00    -0.249 NA
ATOM     15  C   UNL     1      -3.853   2.280  24.614  0.00  0.00    +0.026 A 
ATOM     17  C   UNL     1      -2.995   2.482  23.554  0.00  0.00    +0.050 A 
ATOM     18  C   UNL     1      -2.325   4.129  24.840  0.00  0.00    +0.076 A 
ATOM     21  C   UNL     1      -2.936   1.676  22.317  0.00  0.00    +0.066 C 
ATOM     25  C   UNL     1      -1.573   5.306  25.328  0.00  0.00    +0.073 C 
ENDBRANCH  13  15
ENDBRANCH   7  13
TORSDOF 5
ENDMDL
MODEL 10
REMARK VINA RESULT:       2.9      2.443      4.505
REMARK  Name = 75367729
REMARK  8 active torsions:
REMARK  status: ('A' for Active; 'I' for Inactive)
REMARK    1  A    between atoms: S_2  and  C_22
REMARK    2  A    between atoms: S_2  and  C_26
REMARK    3  A    between atoms: O_4  and  C_10
REMARK    4  A    between atoms: O_4  and  C_16
REMARK    5  A    between atoms: N_7  and  C_13
REMARK    6  A    between atoms: C_13  and  C_15
REMARK    7  A    between atoms: C_17  and  C_21
REMARK    8  A    between atoms: C_18  and  C_25
REMARK                            x       y       z     vdW  Elec       q    Type
REMARK                         _______ _______ _______ _____ _____    ______ ____
ROOT
ATOM      3  O   UNL     1       0.252   5.075  23.687  0.00  0.00    -0.375 OA
ATOM      7  N   UNL     1      -2.158   4.106  25.413  0.00  0.00    -0.292 NA
ATOM      9  C   UNL     1      -1.198   3.047  25.747  0.00  0.00    +0.131 C 
ATOM     10  C   UNL     1       0.213   3.142  25.146  0.00  0.00    +0.213 C 
ATOM     11  C   UNL     1      -1.570   5.443  25.314  0.00  0.00    +0.113 C 
ATOM     12  C   UNL     1       0.251   3.650  23.710  0.00  0.00    +0.205 C 
ATOM     14  C   UNL     1      -1.020   5.668  23.906  0.00  0.00    +0.175 C 
ENDROOT
BRANCH  10   4
ATOM      4  O   UNL     1       0.794   1.839  25.167  0.00  0.00    -0.485 OA
BRANCH   4  16
ATOM     16  C   UNL     1      -0.063   0.784  25.010  0.00  0.00    +0.121 A 
ATOM     19  C   UNL     1      -0.113   0.100  23.796  0.00  0.00    +0.047 A 
ATOM     20  C   UNL     1      -0.888   0.395  26.064  0.00  0.00    +0.047 A 
ATOM     22  C   UNL     1      -1.813  -1.365  24.691  0.00  0.00    +0.088 A 
ATOM     23  C   UNL     1      -0.988  -0.975  23.636  0.00  0.00    +0.030 A 
ATOM     24  C   UNL     1      -1.763  -0.680  25.905  0.00  0.00    +0.030 A 
BRANCH  22   2
ATOM      2  S   UNL     1      -2.910  -2.708  24.490  0.00  0.00    -0.006 S 
ATOM      5  O   UNL     1      -2.331  -3.654  23.547  0.00  0.00    -0.170 OA
ATOM      6  O   UNL     1      -3.311  -3.161  25.815  0.00  0.00    -0.170 OA
ATOM     26  C   UNL     1      -4.337  -1.999  23.700  0.00  0.00    +0.200 C 
ENDBRANCH  22   2
ENDBRANCH   4  16
ENDBRANCH  10   4
BRANCH   7  13
ATOM     13  C   UNL     1      -3.280   4.082  26.353  0.00  0.00    +0.129 C 
BRANCH  13  15
ATOM      1  S   UNL     1      -4.351   1.671  25.430  0.00  0.00    -0.076 S 
ATOM      8  N   UNL     1      -6.604   2.855  24.977  0.00  0.00    -0.249 NA
ATOM     15  C   UNL     1      -4.466   3.344  25.791  0.00  0.00    +0.026 A 
ATOM     17  C   UNL     1      -5.731   3.797  25.487  0.00  0.00    +0.050 A 
ATOM     18  C   UNL     1      -5.984   1.698  24.903  0.00  0.00    +0.076 A 
ATOM     21  C   UNL     1      -6.224   5.180  25.655  0.00  0.00    +0.066 C 
ATOM     25  C   UNL     1      -6.599   0.449  24.403  0.00  0.00    +0.073 C 
ENDBRANCH  13  15
ENDBRANCH   7  13
TORSDOF 5
ENDMDL
