MODEL 1
REMARK VINA RESULT:      -2.5      0.000      0.000
REMARK  Name = 7134581
REMARK  13 active torsions:
REMARK  status: ('A' for Active; 'I' for Inactive)
REMARK    1  A    between atoms: S_1  and  C_31
REMARK    2  A    between atoms: S_1  and  C_33
REMARK    3  A    between atoms: O_6  and  C_32
REMARK    4  A    between atoms: N_9  and  C_22
REMARK    5  A    between atoms: N_10  and  C_19
REMARK    6  A    between atoms: C_12  and  C_15
REMARK    7  A    between atoms: C_15  and  C_22
REMARK    8  A    between atoms: C_16  and  C_25
REMARK    9  A    between atoms: C_22  and  C_27
REMARK   10  A    between atoms: C_26  and  C_28
REMARK   11  A    between atoms: C_28  and  C_30
REMARK   12  A    between atoms: C_29  and  C_31
REMARK   13  A    between atoms: C_30  and  C_32
REMARK                            x       y       z     vdW  Elec       q    Type
REMARK                         _______ _______ _______ _____ _____    ______ ____
ROOT
ATOM      3  O   UNL     1      -2.821   4.606  26.811  0.00  0.00    -0.276 OA
ATOM      8  N   UNL     1      -1.914   3.256  25.144  0.00  0.00    -0.290 N 
ATOM     16  C   UNL     1      -1.916   2.769  23.755  0.00  0.00    +0.164 C 
ATOM     19  C   UNL     1       0.289   1.565  24.239  0.00  0.00    +0.077 C 
ATOM     20  C   UNL     1      -0.522   2.399  23.244  0.00  0.00    +0.054 C 
ATOM     23  C   UNL     1       0.303   2.244  25.608  0.00  0.00    +0.041 C 
ATOM     24  C   UNL     1      -1.115   2.489  26.107  0.00  0.00    +0.110 C 
ATOM     26  C   UNL     1      -2.728   4.291  25.621  0.00  0.00    +0.217 C 
ENDROOT
BRANCH  16  25
ATOM      2  O   UNL     1      -2.922   0.860  22.730  0.00  0.00    -0.274 OA
ATOM      9  N   UNL     1      -3.642   1.513  24.845  0.00  0.00    -0.302 N 
ATOM     25  C   UNL     1      -2.864   1.606  23.704  0.00  0.00    +0.234 C 
ATOM     34  H   UNL     1      -3.567   2.239  25.553  0.00  0.00    +0.150 HD
BRANCH   9  22
ATOM     22  C   UNL     1      -4.648   0.495  25.035  0.00  0.00    +0.159 C 
BRANCH  22  27
ATOM      4  O   UNL     1      -6.684   1.623  24.335  0.00  0.00    -0.274 OA
ATOM     11  N   UNL     1      -6.349   1.260  26.578  0.00  0.00    -0.328 N 
ATOM     27  C   UNL     1      -5.996   1.173  25.248  0.00  0.00    +0.231 C 
ATOM     36  H   UNL     1      -7.221   1.699  26.857  0.00  0.00    +0.145 HD
ATOM     37  H   UNL     1      -5.762   0.903  27.325  0.00  0.00    +0.145 HD
ENDBRANCH  22  27
BRANCH  22  15
ATOM     15  C   UNL     1      -4.287  -0.474  26.165  0.00  0.00    +0.035 C 
BRANCH  15  12
ATOM     12  C   UNL     1      -3.226  -1.508  25.789  0.00  0.00    -0.009 C 
ATOM     13  C   UNL     1      -1.829  -0.875  25.792  0.00  0.00    +0.003 C 
ATOM     14  C   UNL     1      -3.540  -2.134  24.424  0.00  0.00    +0.003 C 
ATOM     17  C   UNL     1      -0.756  -1.875  25.369  0.00  0.00    +0.000 C 
ATOM     18  C   UNL     1      -2.464  -3.132  24.002  0.00  0.00    +0.000 C 
ATOM     21  C   UNL     1      -1.075  -2.502  24.015  0.00  0.00    +0.000 C 
ENDBRANCH  15  12
ENDBRANCH  22  15
ENDBRANCH   9  22
ENDBRANCH  16  25
BRANCH  19  10
ATOM      5  O   UNL     1       1.176  -0.387  22.296  0.00  0.00    -0.275 OA
ATOM     10  N   UNL     1       1.634   1.359  23.760  0.00  0.00    -0.312 N 
ATOM     29  C   UNL     1       1.967   0.394  22.823  0.00  0.00    +0.223 C 
ATOM     35  H   UNL     1       2.375   1.910  24.184  0.00  0.00    +0.149 HD
BRANCH  29  31
ATOM     31  C   UNL     1       3.443   0.367  22.500  0.00  0.00    +0.164 C 
BRANCH  31   1
ATOM      1  S   UNL     1       4.253  -0.853  23.560  0.00  0.00    -0.155 S 
ATOM     33  C   UNL     1       5.740   0.090  23.969  0.00  0.00    +0.085 C 
ENDBRANCH  31   1
ENDBRANCH  29  31
ENDBRANCH  19  10
BRANCH  26  28
ATOM     28  C   UNL     1      -3.522   5.058  24.594  0.00  0.00    +0.107 C 
BRANCH  28  30
ATOM     30  C   UNL     1      -4.836   4.351  24.329  0.00  0.00    +0.129 C 
BRANCH  30  32
ATOM      7  O   UNL     1      -6.576   5.644  25.396  0.00  0.00    -0.251 OA
ATOM     32  C   UNL     1      -5.848   4.660  25.404  0.00  0.00    +0.305 C 
BRANCH  32   6
ATOM      6  O   UNL     1      -5.850   3.739  26.399  0.00  0.00    -0.481 OA
ATOM     38  H   UNL     1      -5.555   4.121  27.252  0.00  0.00    +0.295 HD
ENDBRANCH  32   6
ENDBRANCH  30  32
ENDBRANCH  28  30
ENDBRANCH  26  28
TORSDOF 12
ENDMDL
MODEL 2
REMARK VINA RESULT:      -0.5      2.309      5.192
REMARK  Name = 7134581
REMARK  13 active torsions:
REMARK  status: ('A' for Active; 'I' for Inactive)
REMARK    1  A    between atoms: S_1  and  C_31
REMARK    2  A    between atoms: S_1  and  C_33
REMARK    3  A    between atoms: O_6  and  C_32
REMARK    4  A    between atoms: N_9  and  C_22
REMARK    5  A    between atoms: N_10  and  C_19
REMARK    6  A    between atoms: C_12  and  C_15
REMARK    7  A    between atoms: C_15  and  C_22
REMARK    8  A    between atoms: C_16  and  C_25
REMARK    9  A    between atoms: C_22  and  C_27
REMARK   10  A    between atoms: C_26  and  C_28
REMARK   11  A    between atoms: C_28  and  C_30
REMARK   12  A    between atoms: C_29  and  C_31
REMARK   13  A    between atoms: C_30  and  C_32
REMARK                            x       y       z     vdW  Elec       q    Type
REMARK                         _______ _______ _______ _____ _____    ______ ____
ROOT
ATOM      3  O   UNL     1      -4.296  -0.487  23.546  0.00  0.00    -0.276 OA
ATOM      8  N   UNL     1      -2.116   0.139  24.078  0.00  0.00    -0.290 N 
ATOM     16  C   UNL     1      -1.084   0.434  25.084  0.00  0.00    +0.164 C 
ATOM     19  C   UNL     1       0.634   0.561  23.192  0.00  0.00    +0.077 C 
ATOM     20  C   UNL     1       0.331   0.086  24.616  0.00  0.00    +0.054 C 
ATOM     23  C   UNL     1      -0.458   0.088  22.234  0.00  0.00    +0.041 C 
ATOM     24  C   UNL     1      -1.830   0.557  22.700  0.00  0.00    +0.110 C 
ATOM     26  C   UNL     1      -3.388  -0.367  24.374  0.00  0.00    +0.217 C 
ENDROOT
BRANCH  16  25
ATOM      2  O   UNL     1      -0.714   2.360  26.448  0.00  0.00    -0.274 OA
ATOM      9  N   UNL     1      -1.986   2.579  24.511  0.00  0.00    -0.302 N 
ATOM     25  C   UNL     1      -1.221   1.887  25.435  0.00  0.00    +0.234 C 
ATOM     34  H   UNL     1      -2.429   2.065  23.753  0.00  0.00    +0.150 HD
BRANCH   9  22
ATOM     22  C   UNL     1      -2.287   3.986  24.630  0.00  0.00    +0.159 C 
BRANCH  22  27
ATOM      4  O   UNL     1      -0.888   5.918  25.094  0.00  0.00    -0.274 OA
ATOM     11  N   UNL     1       0.090   4.052  24.179  0.00  0.00    -0.328 N 
ATOM     27  C   UNL     1      -0.979   4.765  24.679  0.00  0.00    +0.231 C 
ATOM     36  H   UNL     1       1.018   4.460  24.146  0.00  0.00    +0.145 HD
ATOM     37  H   UNL     1      -0.003   3.107  23.820  0.00  0.00    +0.145 HD
ENDBRANCH  22  27
BRANCH  22  15
ATOM     15  C   UNL     1      -3.200   4.284  25.824  0.00  0.00    +0.035 C 
BRANCH  15  12
ATOM     12  C   UNL     1      -4.604   3.695  25.702  0.00  0.00    -0.009 C 
ATOM     13  C   UNL     1      -4.895   2.743  26.869  0.00  0.00    +0.003 C 
ATOM     14  C   UNL     1      -4.777   2.979  24.356  0.00  0.00    +0.003 C 
ATOM     17  C   UNL     1      -6.274   2.100  26.742  0.00  0.00    +0.000 C 
ATOM     18  C   UNL     1      -6.156   2.335  24.233  0.00  0.00    +0.000 C 
ATOM     21  C   UNL     1      -6.445   1.396  25.400  0.00  0.00    +0.000 C 
ENDBRANCH  15  12
ENDBRANCH  22  15
ENDBRANCH   9  22
ENDBRANCH  16  25
BRANCH  19  10
ATOM      5  O   UNL     1       3.103   2.068  23.106  0.00  0.00    -0.275 OA
ATOM     10  N   UNL     1       1.928   0.093  22.760  0.00  0.00    -0.312 N 
ATOM     29  C   UNL     1       3.062   0.891  22.752  0.00  0.00    +0.223 C 
ATOM     35  H   UNL     1       1.987  -0.849  22.384  0.00  0.00    +0.149 HD
BRANCH  29  31
ATOM     31  C   UNL     1       4.287   0.173  22.239  0.00  0.00    +0.164 C 
BRANCH  31   1
ATOM      1  S   UNL     1       5.537   0.136  23.545  0.00  0.00    -0.155 S 
ATOM     33  C   UNL     1       5.164  -1.496  24.229  0.00  0.00    +0.085 C 
ENDBRANCH  31   1
ENDBRANCH  29  31
ENDBRANCH  19  10
BRANCH  26  28
ATOM     28  C   UNL     1      -3.633  -0.795  25.800  0.00  0.00    +0.107 C 
BRANCH  28  30
ATOM     30  C   UNL     1      -3.263  -2.255  25.969  0.00  0.00    +0.129 C 
BRANCH  30  32
ATOM      7  O   UNL     1      -1.832  -3.023  24.180  0.00  0.00    -0.251 OA
ATOM     32  C   UNL     1      -2.960  -2.898  24.638  0.00  0.00    +0.305 C 
BRANCH  32   6
ATOM      6  O   UNL     1      -4.078  -3.303  23.987  0.00  0.00    -0.481 OA
ATOM     38  H   UNL     1      -3.984  -4.210  23.628  0.00  0.00    +0.295 HD
ENDBRANCH  32   6
ENDBRANCH  30  32
ENDBRANCH  28  30
ENDBRANCH  26  28
TORSDOF 12
ENDMDL
MODEL 3
REMARK VINA RESULT:       0.3      2.127      4.934
REMARK  Name = 7134581
REMARK  13 active torsions:
REMARK  status: ('A' for Active; 'I' for Inactive)
REMARK    1  A    between atoms: S_1  and  C_31
REMARK    2  A    between atoms: S_1  and  C_33
REMARK    3  A    between atoms: O_6  and  C_32
REMARK    4  A    between atoms: N_9  and  C_22
REMARK    5  A    between atoms: N_10  and  C_19
REMARK    6  A    between atoms: C_12  and  C_15
REMARK    7  A    between atoms: C_15  and  C_22
REMARK    8  A    between atoms: C_16  and  C_25
REMARK    9  A    between atoms: C_22  and  C_27
REMARK   10  A    between atoms: C_26  and  C_28
REMARK   11  A    between atoms: C_28  and  C_30
REMARK   12  A    between atoms: C_29  and  C_31
REMARK   13  A    between atoms: C_30  and  C_32
REMARK                            x       y       z     vdW  Elec       q    Type
REMARK                         _______ _______ _______ _____ _____    ______ ____
ROOT
ATOM      3  O   UNL     1      -2.168  -2.532  23.857  0.00  0.00    -0.276 OA
ATOM      8  N   UNL     1      -0.898  -0.607  24.184  0.00  0.00    -0.290 N 
ATOM     16  C   UNL     1      -0.587   0.597  24.970  0.00  0.00    +0.164 C 
ATOM     19  C   UNL     1       1.470   0.955  23.491  0.00  0.00    +0.077 C 
ATOM     20  C   UNL     1       0.890   0.993  24.908  0.00  0.00    +0.054 C 
ATOM     23  C   UNL     1       1.172  -0.391  22.834  0.00  0.00    +0.041 C 
ATOM     24  C   UNL     1      -0.324  -0.677  22.834  0.00  0.00    +0.110 C 
ATOM     26  C   UNL     1      -1.809  -1.596  24.576  0.00  0.00    +0.217 C 
ENDROOT
BRANCH  16  25
ATOM      2  O   UNL     1      -2.054   1.612  23.382  0.00  0.00    -0.274 OA
ATOM      9  N   UNL     1      -1.561   2.754  25.350  0.00  0.00    -0.302 N 
ATOM     25  C   UNL     1      -1.486   1.689  24.468  0.00  0.00    +0.234 C 
ATOM     34  H   UNL     1      -0.978   2.746  26.183  0.00  0.00    +0.150 HD
BRANCH   9  22
ATOM     22  C   UNL     1      -2.341   3.941  25.091  0.00  0.00    +0.159 C 
BRANCH  22  27
ATOM      4  O   UNL     1      -1.697   6.284  25.077  0.00  0.00    -0.274 OA
ATOM     11  N   UNL     1      -0.162   4.722  24.385  0.00  0.00    -0.328 N 
ATOM     27  C   UNL     1      -1.392   5.112  24.872  0.00  0.00    +0.231 C 
ATOM     36  H   UNL     1       0.560   5.408  24.187  0.00  0.00    +0.145 HD
ATOM     37  H   UNL     1       0.071   3.752  24.200  0.00  0.00    +0.145 HD
ENDBRANCH  22  27
BRANCH  22  15
ATOM     15  C   UNL     1      -3.369   4.211  26.194  0.00  0.00    +0.035 C 
BRANCH  15  12
ATOM     12  C   UNL     1      -4.761   3.651  25.903  0.00  0.00    -0.009 C 
ATOM     13  C   UNL     1      -5.097   2.505  26.866  0.00  0.00    +0.003 C 
ATOM     14  C   UNL     1      -4.865   3.188  24.444  0.00  0.00    +0.003 C 
ATOM     17  C   UNL     1      -6.462   1.894  26.562  0.00  0.00    +0.000 C 
ATOM     18  C   UNL     1      -6.232   2.576  24.144  0.00  0.00    +0.000 C 
ATOM     21  C   UNL     1      -6.565   1.442  25.108  0.00  0.00    +0.000 C 
ENDBRANCH  15  12
ENDBRANCH  22  15
ENDBRANCH   9  22
ENDBRANCH  16  25
BRANCH  19  10
ATOM      5  O   UNL     1       3.422   0.139  21.517  0.00  0.00    -0.275 OA
ATOM     10  N   UNL     1       2.890   1.209  23.510  0.00  0.00    -0.312 N 
ATOM     29  C   UNL     1       3.753   0.777  22.515  0.00  0.00    +0.223 C 
ATOM     35  H   UNL     1       3.275   1.671  24.329  0.00  0.00    +0.149 HD
BRANCH  29  31
ATOM     31  C   UNL     1       5.192   1.152  22.776  0.00  0.00    +0.164 C 
BRANCH  31   1
ATOM      1  S   UNL     1       5.778   0.256  24.233  0.00  0.00    -0.155 S 
ATOM     33  C   UNL     1       4.971  -1.331  23.916  0.00  0.00    +0.085 C 
ENDBRANCH  31   1
ENDBRANCH  29  31
ENDBRANCH  19  10
BRANCH  26  28
ATOM     28  C   UNL     1      -2.365  -1.489  25.975  0.00  0.00    +0.107 C 
BRANCH  28  30
ATOM     30  C   UNL     1      -3.866  -1.292  25.917  0.00  0.00    +0.129 C 
BRANCH  30  32
ATOM      7  O   UNL     1      -4.286  -0.068  23.877  0.00  0.00    -0.251 OA
ATOM     32  C   UNL     1      -4.340  -1.123  24.495  0.00  0.00    +0.305 C 
BRANCH  32   6
ATOM      6  O   UNL     1      -4.857  -2.265  23.977  0.00  0.00    -0.481 OA
ATOM     38  H   UNL     1      -5.291  -2.814  24.663  0.00  0.00    +0.295 HD
ENDBRANCH  32   6
ENDBRANCH  30  32
ENDBRANCH  28  30
ENDBRANCH  26  28
TORSDOF 12
ENDMDL
MODEL 4
REMARK VINA RESULT:       0.4      3.080      6.753
REMARK  Name = 7134581
REMARK  13 active torsions:
REMARK  status: ('A' for Active; 'I' for Inactive)
REMARK    1  A    between atoms: S_1  and  C_31
REMARK    2  A    between atoms: S_1  and  C_33
REMARK    3  A    between atoms: O_6  and  C_32
REMARK    4  A    between atoms: N_9  and  C_22
REMARK    5  A    between atoms: N_10  and  C_19
REMARK    6  A    between atoms: C_12  and  C_15
REMARK    7  A    between atoms: C_15  and  C_22
REMARK    8  A    between atoms: C_16  and  C_25
REMARK    9  A    between atoms: C_22  and  C_27
REMARK   10  A    between atoms: C_26  and  C_28
REMARK   11  A    between atoms: C_28  and  C_30
REMARK   12  A    between atoms: C_29  and  C_31
REMARK   13  A    between atoms: C_30  and  C_32
REMARK                            x       y       z     vdW  Elec       q    Type
REMARK                         _______ _______ _______ _____ _____    ______ ____
ROOT
ATOM      3  O   UNL     1       1.401  -0.450  21.173  0.00  0.00    -0.276 OA
ATOM      8  N   UNL     1       0.361   0.259  23.132  0.00  0.00    -0.290 N 
ATOM     16  C   UNL     1       0.306   0.304  24.602  0.00  0.00    +0.164 C 
ATOM     19  C   UNL     1      -1.594   2.006  24.416  0.00  0.00    +0.077 C 
ATOM     20  C   UNL     1      -0.311   1.596  25.143  0.00  0.00    +0.054 C 
ATOM     23  C   UNL     1      -1.362   2.028  22.906  0.00  0.00    +0.041 C 
ATOM     24  C   UNL     1      -0.849   0.681  22.416  0.00  0.00    +0.110 C 
ATOM     26  C   UNL     1       1.417  -0.293  22.396  0.00  0.00    +0.217 C 
ENDROOT
BRANCH  16  25
ATOM      2  O   UNL     1       0.119  -1.960  25.341  0.00  0.00    -0.274 OA
ATOM      9  N   UNL     1      -1.820  -0.705  25.054  0.00  0.00    -0.302 N 
ATOM     25  C   UNL     1      -0.451  -0.913  25.047  0.00  0.00    +0.234 C 
ATOM     34  H   UNL     1      -2.186   0.178  24.708  0.00  0.00    +0.150 HD
BRANCH   9  22
ATOM     22  C   UNL     1      -2.773  -1.726  25.421  0.00  0.00    +0.159 C 
BRANCH  22  27
ATOM      4  O   UNL     1      -4.204  -2.647  23.686  0.00  0.00    -0.274 OA
ATOM     11  N   UNL     1      -1.990  -3.257  23.718  0.00  0.00    -0.328 N 
ATOM     27  C   UNL     1      -3.086  -2.567  24.190  0.00  0.00    +0.231 C 
ATOM     36  H   UNL     1      -2.066  -3.862  22.907  0.00  0.00    +0.145 HD
ATOM     37  H   UNL     1      -1.076  -3.198  24.155  0.00  0.00    +0.145 HD
ENDBRANCH  22  27
BRANCH  22  15
ATOM     15  C   UNL     1      -4.029  -1.140  26.073  0.00  0.00    +0.035 C 
BRANCH  15  12
ATOM     12  C   UNL     1      -4.302   0.319  25.708  0.00  0.00    -0.009 C 
ATOM     13  C   UNL     1      -5.505   0.857  26.493  0.00  0.00    +0.003 C 
ATOM     14  C   UNL     1      -4.525   0.467  24.197  0.00  0.00    +0.003 C 
ATOM     17  C   UNL     1      -5.831   2.298  26.108  0.00  0.00    +0.000 C 
ATOM     18  C   UNL     1      -4.853   1.908  23.815  0.00  0.00    +0.000 C 
ATOM     21  C   UNL     1      -6.044   2.443  24.604  0.00  0.00    +0.000 C 
ENDBRANCH  15  12
ENDBRANCH  22  15
ENDBRANCH   9  22
ENDBRANCH  16  25
BRANCH  19  10
ATOM      5  O   UNL     1      -0.150   4.514  24.348  0.00  0.00    -0.275 OA
ATOM     10  N   UNL     1      -2.056   3.293  24.878  0.00  0.00    -0.312 N 
ATOM     29  C   UNL     1      -1.291   4.447  24.805  0.00  0.00    +0.223 C 
ATOM     35  H   UNL     1      -2.962   3.332  25.335  0.00  0.00    +0.149 HD
BRANCH  29  31
ATOM     31  C   UNL     1      -1.992   5.659  25.370  0.00  0.00    +0.164 C 
BRANCH  31   1
ATOM      1  S   UNL     1      -3.677   5.198  25.836  0.00  0.00    -0.155 S 
ATOM     33  C   UNL     1      -3.290   4.194  27.289  0.00  0.00    +0.085 C 
ENDBRANCH  31   1
ENDBRANCH  29  31
ENDBRANCH  19  10
BRANCH  26  28
ATOM     28  C   UNL     1       2.645  -0.702  23.173  0.00  0.00    +0.107 C 
BRANCH  28  30
ATOM     30  C   UNL     1       3.795   0.227  22.840  0.00  0.00    +0.129 C 
BRANCH  30  32
ATOM      7  O   UNL     1       6.112   0.426  23.495  0.00  0.00    -0.251 OA
ATOM     32  C   UNL     1       5.061  -0.200  23.541  0.00  0.00    +0.305 C 
BRANCH  32   6
ATOM      6  O   UNL     1       4.918  -1.369  24.211  0.00  0.00    -0.481 OA
ATOM     38  H   UNL     1       5.361  -2.112  23.750  0.00  0.00    +0.295 HD
ENDBRANCH  32   6
ENDBRANCH  30  32
ENDBRANCH  28  30
ENDBRANCH  26  28
TORSDOF 12
ENDMDL
