MODEL 1
REMARK VINA RESULT:      -0.6      0.000      0.000
REMARK  Name = 38026924
REMARK  10 active torsions:
REMARK  status: ('A' for Active; 'I' for Inactive)
REMARK    1  A    between atoms: N_5  and  C_15
REMARK    2  A    between atoms: C_7  and  C_11
REMARK    3  A    between atoms: C_8  and  C_15
REMARK    4  A    between atoms: C_10  and  C_14
REMARK    5  A    between atoms: C_11  and  C_16
REMARK    6  A    between atoms: C_11  and  C_17
REMARK    7  A    between atoms: C_12  and  C_18
REMARK    8  A    between atoms: C_14  and  C_19
REMARK    9  A    between atoms: C_24  and  C_26
REMARK   10  A    between atoms: C_25  and  C_27
REMARK                            x       y       z     vdW  Elec       q    Type
REMARK                         _______ _______ _______ _____ _____    ______ ____
ROOT
ATOM      7  C   UNL     1       0.846   0.476  23.198  0.00  0.00    +0.000 C 
ATOM      8  C   UNL     1       0.130  -0.369  24.281  0.00  0.00    +0.032 C 
ATOM      9  C   UNL     1       1.606   1.644  23.845  0.00  0.00    +0.012 C 
ATOM     10  C   UNL     1       0.674   2.571  24.649  0.00  0.00    +0.023 C 
ATOM     12  C   UNL     1      -0.256   1.787  25.551  0.00  0.00    -0.073 C 
ATOM     13  C   UNL     1      -0.477   0.471  25.380  0.00  0.00    -0.022 C 
ATOM     18  C   UNL     1      -0.894   2.541  26.686  0.00  0.00    +0.039 C 
ENDROOT
BRANCH   7  11
ATOM     11  C   UNL     1       1.811  -0.371  22.362  0.00  0.00    -0.013 C 
ATOM     16  C   UNL     1       1.231  -0.624  20.974  0.00  0.00    +0.007 C 
ATOM     17  C   UNL     1       3.170   0.314  22.263  0.00  0.00    +0.007 C 
ENDBRANCH   7  11
BRANCH  10  14
ATOM     14  C   UNL     1      -0.115   3.502  23.722  0.00  0.00    +0.103 C 
BRANCH  14  19
ATOM      1  O   UNL     1      -0.863   5.236  25.152  0.00  0.00    -0.276 OA
ATOM      3  O   UNL     1      -6.350   0.709  24.466  0.00  0.00    -0.276 OA
ATOM      4  N   UNL     1      -2.464   3.708  24.451  0.00  0.00    -0.298 N 
ATOM      6  N   UNL     1      -4.735   2.198  25.219  0.00  0.00    -0.299 N 
ATOM     19  C   UNL     1      -1.174   4.232  24.507  0.00  0.00    +0.216 C 
ATOM     20  C   UNL     1      -3.550   4.358  25.189  0.00  0.00    +0.126 C 
ATOM     21  C   UNL     1      -2.882   2.560  23.634  0.00  0.00    +0.126 C 
ATOM     22  C   UNL     1      -4.317   3.344  26.036  0.00  0.00    +0.126 C 
ATOM     23  C   UNL     1      -3.648   1.548  24.481  0.00  0.00    +0.126 C 
ATOM     25  C   UNL     1      -6.025   1.674  25.160  0.00  0.00    +0.213 C 
ATOM     27  C   UNL     1      -7.069   2.356  26.009  0.00  0.00    +0.109 C 
ENDBRANCH  14  19
ENDBRANCH  10  14
BRANCH   8  15
ATOM     15  C   UNL     1      -0.953  -1.259  23.661  0.00  0.00    +0.112 C 
BRANCH  15   5
ATOM      2  O   UNL     1      -3.803  -1.798  23.785  0.00  0.00    -0.276 OA
ATOM      5  N   UNL     1      -1.657  -1.981  24.673  0.00  0.00    -0.315 N 
ATOM     24  C   UNL     1      -3.034  -2.195  24.656  0.00  0.00    +0.210 C 
ATOM     26  C   UNL     1      -3.512  -3.007  25.829  0.00  0.00    +0.109 C 
ATOM     28  H   UNL     1      -1.113  -2.414  25.415  0.00  0.00    +0.149 HD
ENDBRANCH  15   5
ENDBRANCH   8  15
TORSDOF 5
ENDMDL
MODEL 2
REMARK VINA RESULT:      -0.4      1.680      6.499
REMARK  Name = 38026924
REMARK  10 active torsions:
REMARK  status: ('A' for Active; 'I' for Inactive)
REMARK    1  A    between atoms: N_5  and  C_15
REMARK    2  A    between atoms: C_7  and  C_11
REMARK    3  A    between atoms: C_8  and  C_15
REMARK    4  A    between atoms: C_10  and  C_14
REMARK    5  A    between atoms: C_11  and  C_16
REMARK    6  A    between atoms: C_11  and  C_17
REMARK    7  A    between atoms: C_12  and  C_18
REMARK    8  A    between atoms: C_14  and  C_19
REMARK    9  A    between atoms: C_24  and  C_26
REMARK   10  A    between atoms: C_25  and  C_27
REMARK                            x       y       z     vdW  Elec       q    Type
REMARK                         _______ _______ _______ _____ _____    ______ ____
ROOT
ATOM      7  C   UNL     1      -3.687   2.440  24.065  0.00  0.00    +0.000 C 
ATOM      8  C   UNL     1      -4.491   3.565  24.761  0.00  0.00    +0.032 C 
ATOM      9  C   UNL     1      -4.570   1.201  23.854  0.00  0.00    +0.012 C 
ATOM     10  C   UNL     1      -5.129   0.652  25.180  0.00  0.00    +0.023 C 
ATOM     12  C   UNL     1      -5.704   1.753  26.047  0.00  0.00    -0.073 C 
ATOM     13  C   UNL     1      -5.419   3.050  25.837  0.00  0.00    -0.022 C 
ATOM     18  C   UNL     1      -6.653   1.332  27.135  0.00  0.00    +0.039 C 
ENDROOT
BRANCH   7  11
ATOM     11  C   UNL     1      -3.109   2.900  22.723  0.00  0.00    -0.013 C 
ATOM     16  C   UNL     1      -2.632   1.701  21.909  0.00  0.00    +0.007 C 
ATOM     17  C   UNL     1      -4.147   3.703  21.945  0.00  0.00    +0.007 C 
ENDBRANCH   7  11
BRANCH  10  14
ATOM     14  C   UNL     1      -4.064  -0.147  25.941  0.00  0.00    +0.103 C 
BRANCH  14  19
ATOM      1  O   UNL     1      -3.796  -2.201  24.791  0.00  0.00    -0.276 OA
ATOM      3  O   UNL     1       2.157   1.563  23.572  0.00  0.00    -0.276 OA
ATOM      4  N   UNL     1      -2.184  -0.576  24.401  0.00  0.00    -0.298 N 
ATOM      6  N   UNL     1       0.580  -0.085  24.013  0.00  0.00    -0.299 N 
ATOM     19  C   UNL     1      -3.343  -1.072  24.994  0.00  0.00    +0.216 C 
ATOM     20  C   UNL     1      -1.422  -1.414  23.471  0.00  0.00    +0.126 C 
ATOM     21  C   UNL     1      -1.659   0.787  24.564  0.00  0.00    +0.126 C 
ATOM     22  C   UNL     1       0.056  -1.447  23.851  0.00  0.00    +0.126 C 
ATOM     23  C   UNL     1      -0.182   0.753  24.944  0.00  0.00    +0.126 C 
ATOM     25  C   UNL     1       1.738   0.413  23.419  0.00  0.00    +0.213 C 
ATOM     27  C   UNL     1       2.504  -0.539  22.534  0.00  0.00    +0.109 C 
ENDBRANCH  14  19
ENDBRANCH  10  14
BRANCH   8  15
ATOM     15  C   UNL     1      -3.558   4.625  25.358  0.00  0.00    +0.112 C 
BRANCH  15   5
ATOM      2  O   UNL     1      -0.839   5.191  24.511  0.00  0.00    -0.276 OA
ATOM      5  N   UNL     1      -2.355   4.028  25.844  0.00  0.00    -0.315 N 
ATOM     24  C   UNL     1      -1.084   4.358  25.381  0.00  0.00    +0.210 C 
ATOM     26  C   UNL     1       0.009   3.597  26.080  0.00  0.00    +0.109 C 
ATOM     28  H   UNL     1      -2.428   3.368  26.614  0.00  0.00    +0.149 HD
ENDBRANCH  15   5
ENDBRANCH   8  15
TORSDOF 5
ENDMDL
MODEL 3
REMARK VINA RESULT:      -0.2      2.317      4.691
REMARK  Name = 38026924
REMARK  10 active torsions:
REMARK  status: ('A' for Active; 'I' for Inactive)
REMARK    1  A    between atoms: N_5  and  C_15
REMARK    2  A    between atoms: C_7  and  C_11
REMARK    3  A    between atoms: C_8  and  C_15
REMARK    4  A    between atoms: C_10  and  C_14
REMARK    5  A    between atoms: C_11  and  C_16
REMARK    6  A    between atoms: C_11  and  C_17
REMARK    7  A    between atoms: C_12  and  C_18
REMARK    8  A    between atoms: C_14  and  C_19
REMARK    9  A    between atoms: C_24  and  C_26
REMARK   10  A    between atoms: C_25  and  C_27
REMARK                            x       y       z     vdW  Elec       q    Type
REMARK                         _______ _______ _______ _____ _____    ______ ____
ROOT
ATOM      7  C   UNL     1      -1.256   1.148  25.107  0.00  0.00    +0.000 C 
ATOM      8  C   UNL     1       0.083   0.521  24.646  0.00  0.00    +0.032 C 
ATOM      9  C   UNL     1      -2.030   0.164  25.997  0.00  0.00    +0.012 C 
ATOM     10  C   UNL     1      -2.336  -1.160  25.274  0.00  0.00    +0.023 C 
ATOM     12  C   UNL     1      -1.115  -1.708  24.564  0.00  0.00    -0.073 C 
ATOM     13  C   UNL     1      -0.038  -0.946  24.303  0.00  0.00    -0.022 C 
ATOM     18  C   UNL     1      -1.142  -3.167  24.199  0.00  0.00    +0.039 C 
ENDROOT
BRANCH   7  11
ATOM     11  C   UNL     1      -1.038   2.466  25.857  0.00  0.00    -0.013 C 
ATOM     16  C   UNL     1       0.206   2.379  26.736  0.00  0.00    +0.007 C 
ATOM     17  C   UNL     1      -0.925   3.625  24.872  0.00  0.00    +0.007 C 
ENDBRANCH   7  11
BRANCH  10  14
ATOM     14  C   UNL     1      -3.511  -1.001  24.302  0.00  0.00    +0.103 C 
BRANCH  14  19
ATOM      1  O   UNL     1      -2.541   0.426  22.677  0.00  0.00    -0.276 OA
ATOM      3  O   UNL     1      -6.994   4.499  26.507  0.00  0.00    -0.276 OA
ATOM      4  N   UNL     1      -4.272   1.320  23.941  0.00  0.00    -0.298 N 
ATOM      6  N   UNL     1      -5.220   3.625  25.289  0.00  0.00    -0.299 N 
ATOM     19  C   UNL     1      -3.392   0.308  23.563  0.00  0.00    +0.216 C 
ATOM     20  C   UNL     1      -4.219   2.623  23.273  0.00  0.00    +0.126 C 
ATOM     21  C   UNL     1      -5.344   1.188  24.938  0.00  0.00    +0.126 C 
ATOM     22  C   UNL     1      -4.148   3.756  24.294  0.00  0.00    +0.126 C 
ATOM     23  C   UNL     1      -5.273   2.322  25.957  0.00  0.00    +0.126 C 
ATOM     25  C   UNL     1      -6.102   4.635  25.667  0.00  0.00    +0.213 C 
ATOM     27  C   UNL     1      -5.930   5.969  24.984  0.00  0.00    +0.109 C 
ENDBRANCH  14  19
ENDBRANCH  10  14
BRANCH   8  15
ATOM     15  C   UNL     1       0.665   1.278  23.447  0.00  0.00    +0.112 C 
BRANCH  15   5
ATOM      2  O   UNL     1       2.455  -0.144  21.657  0.00  0.00    -0.276 OA
ATOM      5  N   UNL     1       2.094   1.261  23.480  0.00  0.00    -0.315 N 
ATOM     24  C   UNL     1       2.881   0.548  22.579  0.00  0.00    +0.210 C 
ATOM     26  C   UNL     1       4.355   0.724  22.825  0.00  0.00    +0.109 C 
ATOM     28  H   UNL     1       2.561   1.851  24.163  0.00  0.00    +0.149 HD
ENDBRANCH  15   5
ENDBRANCH   8  15
TORSDOF 5
ENDMDL
MODEL 4
REMARK VINA RESULT:      -0.0      2.283      4.733
REMARK  Name = 38026924
REMARK  10 active torsions:
REMARK  status: ('A' for Active; 'I' for Inactive)
REMARK    1  A    between atoms: N_5  and  C_15
REMARK    2  A    between atoms: C_7  and  C_11
REMARK    3  A    between atoms: C_8  and  C_15
REMARK    4  A    between atoms: C_10  and  C_14
REMARK    5  A    between atoms: C_11  and  C_16
REMARK    6  A    between atoms: C_11  and  C_17
REMARK    7  A    between atoms: C_12  and  C_18
REMARK    8  A    between atoms: C_14  and  C_19
REMARK    9  A    between atoms: C_24  and  C_26
REMARK   10  A    between atoms: C_25  and  C_27
REMARK                            x       y       z     vdW  Elec       q    Type
REMARK                         _______ _______ _______ _____ _____    ______ ____
ROOT
ATOM      7  C   UNL     1      -1.105   1.983  24.451  0.00  0.00    +0.000 C 
ATOM      8  C   UNL     1      -0.198   2.849  25.359  0.00  0.00    +0.032 C 
ATOM      9  C   UNL     1      -1.628   2.812  23.268  0.00  0.00    +0.012 C 
ATOM     10  C   UNL     1      -2.431   4.043  23.729  0.00  0.00    +0.023 C 
ATOM     12  C   UNL     1      -1.715   4.804  24.825  0.00  0.00    -0.073 C 
ATOM     13  C   UNL     1      -0.710   4.259  25.534  0.00  0.00    -0.022 C 
ATOM     18  C   UNL     1      -2.150   6.225  25.057  0.00  0.00    +0.039 C 
ENDROOT
BRANCH   7  11
ATOM     11  C   UNL     1      -0.371   0.742  23.931  0.00  0.00    -0.013 C 
ATOM     16  C   UNL     1       1.070   1.088  23.572  0.00  0.00    +0.007 C 
ATOM     17  C   UNL     1      -0.418  -0.376  24.967  0.00  0.00    +0.007 C 
ENDBRANCH   7  11
BRANCH  10  14
ATOM     14  C   UNL     1      -3.845   3.646  24.170  0.00  0.00    +0.103 C 
BRANCH  14  19
ATOM      1  O   UNL     1      -3.467   3.101  26.445  0.00  0.00    -0.276 OA
ATOM      3  O   UNL     1      -4.237  -3.116  23.004  0.00  0.00    -0.276 OA
ATOM      4  N   UNL     1      -4.055   1.346  25.042  0.00  0.00    -0.298 N 
ATOM      6  N   UNL     1      -3.586  -1.371  24.392  0.00  0.00    -0.299 N 
ATOM     19  C   UNL     1      -3.771   2.680  25.325  0.00  0.00    +0.216 C 
ATOM     20  C   UNL     1      -4.002   0.344  26.110  0.00  0.00    +0.126 C 
ATOM     21  C   UNL     1      -4.491   0.827  23.739  0.00  0.00    +0.126 C 
ATOM     22  C   UNL     1      -3.149  -0.852  25.694  0.00  0.00    +0.126 C 
ATOM     23  C   UNL     1      -3.639  -0.369  23.324  0.00  0.00    +0.126 C 
ATOM     25  C   UNL     1      -3.872  -2.705  24.108  0.00  0.00    +0.213 C 
ATOM     27  C   UNL     1      -3.720  -3.684  25.245  0.00  0.00    +0.109 C 
ENDBRANCH  14  19
ENDBRANCH  10  14
BRANCH   8  15
ATOM     15  C   UNL     1      -0.012   2.200  26.736  0.00  0.00    +0.112 C 
BRANCH  15   5
ATOM      2  O   UNL     1       0.684   2.424  29.545  0.00  0.00    -0.276 OA
ATOM      5  N   UNL     1       1.260   2.541  27.291  0.00  0.00    -0.315 N 
ATOM     24  C   UNL     1       1.510   2.627  28.659  0.00  0.00    +0.210 C 
ATOM     26  C   UNL     1       2.939   2.979  28.970  0.00  0.00    +0.109 C 
ATOM     28  H   UNL     1       2.040   2.668  26.651  0.00  0.00    +0.149 HD
ENDBRANCH  15   5
ENDBRANCH   8  15
TORSDOF 5
ENDMDL
MODEL 5
REMARK VINA RESULT:       0.0      3.022      6.795
REMARK  Name = 38026924
REMARK  10 active torsions:
REMARK  status: ('A' for Active; 'I' for Inactive)
REMARK    1  A    between atoms: N_5  and  C_15
REMARK    2  A    between atoms: C_7  and  C_11
REMARK    3  A    between atoms: C_8  and  C_15
REMARK    4  A    between atoms: C_10  and  C_14
REMARK    5  A    between atoms: C_11  and  C_16
REMARK    6  A    between atoms: C_11  and  C_17
REMARK    7  A    between atoms: C_12  and  C_18
REMARK    8  A    between atoms: C_14  and  C_19
REMARK    9  A    between atoms: C_24  and  C_26
REMARK   10  A    between atoms: C_25  and  C_27
REMARK                            x       y       z     vdW  Elec       q    Type
REMARK                         _______ _______ _______ _____ _____    ______ ____
ROOT
ATOM      7  C   UNL     1      -1.812   2.721  25.405  0.00  0.00    +0.000 C 
ATOM      8  C   UNL     1      -1.230   1.911  26.589  0.00  0.00    +0.032 C 
ATOM      9  C   UNL     1      -3.019   1.990  24.797  0.00  0.00    +0.012 C 
ATOM     10  C   UNL     1      -2.655   0.582  24.293  0.00  0.00    +0.023 C 
ATOM     12  C   UNL     1      -1.841  -0.188  25.312  0.00  0.00    -0.073 C 
ATOM     13  C   UNL     1      -1.222   0.421  26.339  0.00  0.00    -0.022 C 
ATOM     18  C   UNL     1      -1.792  -1.683  25.150  0.00  0.00    +0.039 C 
ENDROOT
BRANCH   7  11
ATOM     11  C   UNL     1      -2.221   4.135  25.829  0.00  0.00    -0.013 C 
ATOM     16  C   UNL     1      -1.400   5.175  25.073  0.00  0.00    +0.007 C 
ATOM     17  C   UNL     1      -3.712   4.350  25.596  0.00  0.00    +0.007 C 
ENDBRANCH   7  11
BRANCH  10  14
ATOM     14  C   UNL     1      -1.926   0.649  22.946  0.00  0.00    +0.103 C 
BRANCH  14  19
ATOM      1  O   UNL     1      -0.922   2.791  22.803  0.00  0.00    -0.276 OA
ATOM      3  O   UNL     1       4.421  -1.859  23.758  0.00  0.00    -0.276 OA
ATOM      4  N   UNL     1       0.469   1.032  23.404  0.00  0.00    -0.298 N 
ATOM      6  N   UNL     1       3.043  -0.112  23.093  0.00  0.00    -0.299 N 
ATOM     19  C   UNL     1      -0.754   1.592  23.043  0.00  0.00    +0.216 C 
ATOM     20  C   UNL     1       1.658   1.881  23.518  0.00  0.00    +0.126 C 
ATOM     21  C   UNL     1       0.687  -0.375  23.768  0.00  0.00    +0.126 C 
ATOM     22  C   UNL     1       2.825   1.294  22.728  0.00  0.00    +0.126 C 
ATOM     23  C   UNL     1       1.854  -0.961  22.979  0.00  0.00    +0.126 C 
ATOM     25  C   UNL     1       4.265  -0.673  23.456  0.00  0.00    +0.213 C 
ATOM     27  C   UNL     1       5.454   0.255  23.475  0.00  0.00    +0.109 C 
ENDBRANCH  14  19
ENDBRANCH  10  14
BRANCH   8  15
ATOM     15  C   UNL     1       0.190   2.377  26.934  0.00  0.00    +0.112 C 
BRANCH  15   5
ATOM      2  O   UNL     1       2.636   3.025  28.356  0.00  0.00    -0.276 OA
ATOM      5  N   UNL     1       0.482   2.139  28.312  0.00  0.00    -0.315 N 
ATOM     24  C   UNL     1       1.688   2.483  28.918  0.00  0.00    +0.210 C 
ATOM     26  C   UNL     1       1.722   2.143  30.384  0.00  0.00    +0.109 C 
ATOM     28  H   UNL     1      -0.255   1.752  28.895  0.00  0.00    +0.149 HD
ENDBRANCH  15   5
ENDBRANCH   8  15
TORSDOF 5
ENDMDL
MODEL 6
REMARK VINA RESULT:       0.1      2.006      4.954
REMARK  Name = 38026924
REMARK  10 active torsions:
REMARK  status: ('A' for Active; 'I' for Inactive)
REMARK    1  A    between atoms: N_5  and  C_15
REMARK    2  A    between atoms: C_7  and  C_11
REMARK    3  A    between atoms: C_8  and  C_15
REMARK    4  A    between atoms: C_10  and  C_14
REMARK    5  A    between atoms: C_11  and  C_16
REMARK    6  A    between atoms: C_11  and  C_17
REMARK    7  A    between atoms: C_12  and  C_18
REMARK    8  A    between atoms: C_14  and  C_19
REMARK    9  A    between atoms: C_24  and  C_26
REMARK   10  A    between atoms: C_25  and  C_27
REMARK                            x       y       z     vdW  Elec       q    Type
REMARK                         _______ _______ _______ _____ _____    ______ ____
ROOT
ATOM      7  C   UNL     1      -1.190   0.113  25.122  0.00  0.00    +0.000 C 
ATOM      8  C   UNL     1      -0.480  -1.082  24.439  0.00  0.00    +0.032 C 
ATOM      9  C   UNL     1      -2.165  -0.387  26.199  0.00  0.00    +0.012 C 
ATOM     10  C   UNL     1      -3.239  -1.327  25.621  0.00  0.00    +0.023 C 
ATOM     12  C   UNL     1      -2.637  -2.379  24.714  0.00  0.00    -0.073 C 
ATOM     13  C   UNL     1      -1.397  -2.259  24.206  0.00  0.00    -0.022 C 
ATOM     18  C   UNL     1      -3.476  -3.597  24.439  0.00  0.00    +0.039 C 
ENDROOT
BRANCH   7  11
ATOM     11  C   UNL     1      -0.187   1.091  25.743  0.00  0.00    -0.013 C 
ATOM     16  C   UNL     1       0.263   2.119  24.710  0.00  0.00    +0.007 C 
ATOM     17  C   UNL     1      -0.798   1.778  26.960  0.00  0.00    +0.007 C 
ENDBRANCH   7  11
BRANCH  10  14
ATOM     14  C   UNL     1      -4.333  -0.535  24.895  0.00  0.00    +0.103 C 
BRANCH  14  19
ATOM      1  O   UNL     1      -3.307  -0.156  22.792  0.00  0.00    -0.276 OA
ATOM      3  O   UNL     1      -2.926   6.034  26.345  0.00  0.00    -0.276 OA
ATOM      4  N   UNL     1      -3.639   1.708  24.135  0.00  0.00    -0.298 N 
ATOM      6  N   UNL     1      -2.534   4.159  25.032  0.00  0.00    -0.299 N 
ATOM     19  C   UNL     1      -3.713   0.349  23.842  0.00  0.00    +0.216 C 
ATOM     20  C   UNL     1      -3.049   2.635  23.166  0.00  0.00    +0.126 C 
ATOM     21  C   UNL     1      -4.181   2.351  25.341  0.00  0.00    +0.126 C 
ATOM     22  C   UNL     1      -1.992   3.516  23.827  0.00  0.00    +0.126 C 
ATOM     23  C   UNL     1      -3.125   3.232  26.001  0.00  0.00    +0.126 C 
ATOM     25  C   UNL     1      -2.462   5.519  25.325  0.00  0.00    +0.213 C 
ATOM     27  C   UNL     1      -1.771   6.392  24.308  0.00  0.00    +0.109 C 
ENDBRANCH  14  19
ENDBRANCH  10  14
BRANCH   8  15
ATOM     15  C   UNL     1       0.158  -0.661  23.110  0.00  0.00    +0.112 C 
BRANCH  15   5
ATOM      2  O   UNL     1       2.212  -0.212  21.108  0.00  0.00    -0.276 OA
ATOM      5  N   UNL     1       1.477  -0.153  23.318  0.00  0.00    -0.315 N 
ATOM     24  C   UNL     1       2.405   0.033  22.296  0.00  0.00    +0.210 C 
ATOM     26  C   UNL     1       3.708   0.604  22.787  0.00  0.00    +0.109 C 
ATOM     28  H   UNL     1       1.730   0.147  24.256  0.00  0.00    +0.149 HD
ENDBRANCH  15   5
ENDBRANCH   8  15
TORSDOF 5
ENDMDL
MODEL 7
REMARK VINA RESULT:       0.6      1.980      5.292
REMARK  Name = 38026924
REMARK  10 active torsions:
REMARK  status: ('A' for Active; 'I' for Inactive)
REMARK    1  A    between atoms: N_5  and  C_15
REMARK    2  A    between atoms: C_7  and  C_11
REMARK    3  A    between atoms: C_8  and  C_15
REMARK    4  A    between atoms: C_10  and  C_14
REMARK    5  A    between atoms: C_11  and  C_16
REMARK    6  A    between atoms: C_11  and  C_17
REMARK    7  A    between atoms: C_12  and  C_18
REMARK    8  A    between atoms: C_14  and  C_19
REMARK    9  A    between atoms: C_24  and  C_26
REMARK   10  A    between atoms: C_25  and  C_27
REMARK                            x       y       z     vdW  Elec       q    Type
REMARK                         _______ _______ _______ _____ _____    ______ ____
ROOT
ATOM      7  C   UNL     1      -2.734   2.974  23.718  0.00  0.00    +0.000 C 
ATOM      8  C   UNL     1      -1.657   3.914  24.313  0.00  0.00    +0.032 C 
ATOM      9  C   UNL     1      -4.139   3.538  23.975  0.00  0.00    +0.012 C 
ATOM     10  C   UNL     1      -4.428   3.721  25.477  0.00  0.00    +0.023 C 
ATOM     12  C   UNL     1      -3.282   4.409  26.190  0.00  0.00    -0.073 C 
ATOM     13  C   UNL     1      -2.054   4.497  25.649  0.00  0.00    -0.022 C 
ATOM     18  C   UNL     1      -3.592   5.034  27.523  0.00  0.00    +0.039 C 
ENDROOT
BRANCH   7  11
ATOM     11  C   UNL     1      -2.530   2.754  22.215  0.00  0.00    -0.013 C 
ATOM     16  C   UNL     1      -2.425   1.265  21.905  0.00  0.00    +0.007 C 
ATOM     17  C   UNL     1      -3.667   3.394  21.426  0.00  0.00    +0.007 C 
ENDBRANCH   7  11
BRANCH  10  14
ATOM     14  C   UNL     1      -4.764   2.381  26.142  0.00  0.00    +0.103 C 
BRANCH  14  19
ATOM      1  O   UNL     1      -6.278   1.431  24.586  0.00  0.00    -0.276 OA
ATOM      3  O   UNL     1      -0.707  -3.033  24.936  0.00  0.00    -0.276 OA
ATOM      4  N   UNL     1      -4.198   0.415  24.763  0.00  0.00    -0.298 N 
ATOM      6  N   UNL     1      -2.810  -2.055  24.807  0.00  0.00    -0.299 N 
ATOM     19  C   UNL     1      -5.155   1.371  25.094  0.00  0.00    +0.216 C 
ATOM     20  C   UNL     1      -4.500  -0.605  23.754  0.00  0.00    +0.126 C 
ATOM     21  C   UNL     1      -2.828   0.361  25.293  0.00  0.00    +0.126 C 
ATOM     22  C   UNL     1      -4.179  -2.002  24.278  0.00  0.00    +0.126 C 
ATOM     23  C   UNL     1      -2.508  -1.036  25.816  0.00  0.00    +0.126 C 
ATOM     25  C   UNL     1      -1.851  -3.011  24.476  0.00  0.00    +0.213 C 
ATOM     27  C   UNL     1      -2.268  -4.070  23.486  0.00  0.00    +0.109 C 
ENDBRANCH  14  19
ENDBRANCH  10  14
BRANCH   8  15
ATOM     15  C   UNL     1      -0.310   3.195  24.451  0.00  0.00    +0.112 C 
BRANCH  15   5
ATOM      2  O   UNL     1       1.832   1.403  23.660  0.00  0.00    -0.276 OA
ATOM      5  N   UNL     1      -0.423   1.825  24.065  0.00  0.00    -0.315 N 
ATOM     24  C   UNL     1       0.662   1.032  23.697  0.00  0.00    +0.210 C 
ATOM     26  C   UNL     1       0.265  -0.380  23.360  0.00  0.00    +0.109 C 
ATOM     28  H   UNL     1      -1.339   1.389  24.120  0.00  0.00    +0.149 HD
ENDBRANCH  15   5
ENDBRANCH   8  15
TORSDOF 5
ENDMDL
MODEL 8
REMARK VINA RESULT:       0.8      2.935      7.142
REMARK  Name = 38026924
REMARK  10 active torsions:
REMARK  status: ('A' for Active; 'I' for Inactive)
REMARK    1  A    between atoms: N_5  and  C_15
REMARK    2  A    between atoms: C_7  and  C_11
REMARK    3  A    between atoms: C_8  and  C_15
REMARK    4  A    between atoms: C_10  and  C_14
REMARK    5  A    between atoms: C_11  and  C_16
REMARK    6  A    between atoms: C_11  and  C_17
REMARK    7  A    between atoms: C_12  and  C_18
REMARK    8  A    between atoms: C_14  and  C_19
REMARK    9  A    between atoms: C_24  and  C_26
REMARK   10  A    between atoms: C_25  and  C_27
REMARK                            x       y       z     vdW  Elec       q    Type
REMARK                         _______ _______ _______ _____ _____    ______ ____
ROOT
ATOM      7  C   UNL     1      -2.698  -0.290  24.634  0.00  0.00    +0.000 C 
ATOM      8  C   UNL     1      -3.513   0.820  25.343  0.00  0.00    +0.032 C 
ATOM      9  C   UNL     1      -1.235  -0.262  25.102  0.00  0.00    +0.012 C 
ATOM     10  C   UNL     1      -0.559   1.094  24.823  0.00  0.00    +0.023 C 
ATOM     12  C   UNL     1      -1.430   2.255  25.255  0.00  0.00    -0.073 C 
ATOM     13  C   UNL     1      -2.745   2.112  25.496  0.00  0.00    -0.022 C 
ATOM     18  C   UNL     1      -0.744   3.580  25.448  0.00  0.00    +0.039 C 
ENDROOT
BRANCH   7  11
ATOM     11  C   UNL     1      -3.295  -1.679  24.880  0.00  0.00    -0.013 C 
ATOM     16  C   UNL     1      -4.298  -2.028  23.785  0.00  0.00    +0.007 C 
ATOM     17  C   UNL     1      -2.190  -2.727  24.955  0.00  0.00    +0.007 C 
ENDBRANCH   7  11
BRANCH  10  14
ATOM     14  C   UNL     1      -0.166   1.221  23.347  0.00  0.00    +0.103 C 
BRANCH  14  19
ATOM      1  O   UNL     1      -0.048  -1.046  22.665  0.00  0.00    -0.276 OA
ATOM      3  O   UNL     1       6.700   1.104  23.630  0.00  0.00    -0.276 OA
ATOM      4  N   UNL     1       1.966   0.102  22.802  0.00  0.00    -0.298 N 
ATOM      6  N   UNL     1       4.692  -0.061  23.557  0.00  0.00    -0.299 N 
ATOM     19  C   UNL     1       0.582  -0.012  22.907  0.00  0.00    +0.216 C 
ATOM     20  C   UNL     1       2.766  -1.052  22.383  0.00  0.00    +0.126 C 
ATOM     21  C   UNL     1       2.737   1.336  23.009  0.00  0.00    +0.126 C 
ATOM     22  C   UNL     1       3.922  -1.294  23.350  0.00  0.00    +0.126 C 
ATOM     23  C   UNL     1       3.892   1.093  23.976  0.00  0.00    +0.126 C 
ATOM     25  C   UNL     1       6.077   0.055  23.451  0.00  0.00    +0.213 C 
ATOM     27  C   UNL     1       6.833  -1.199  23.088  0.00  0.00    +0.109 C 
ENDBRANCH  14  19
ENDBRANCH  10  14
BRANCH   8  15
ATOM     15  C   UNL     1      -4.831   1.094  24.608  0.00  0.00    +0.112 C 
BRANCH  15   5
ATOM      2  O   UNL     1      -6.121   2.584  26.740  0.00  0.00    -0.276 OA
ATOM      5  N   UNL     1      -5.143   2.488  24.627  0.00  0.00    -0.315 N 
ATOM     24  C   UNL     1      -5.767   3.127  25.696  0.00  0.00    +0.210 C 
ATOM     26  C   UNL     1      -5.955   4.602  25.465  0.00  0.00    +0.109 C 
ATOM     28  H   UNL     1      -4.838   3.055  23.841  0.00  0.00    +0.149 HD
ENDBRANCH  15   5
ENDBRANCH   8  15
TORSDOF 5
ENDMDL
MODEL 9
REMARK VINA RESULT:       1.3      1.849      5.113
REMARK  Name = 38026924
REMARK  10 active torsions:
REMARK  status: ('A' for Active; 'I' for Inactive)
REMARK    1  A    between atoms: N_5  and  C_15
REMARK    2  A    between atoms: C_7  and  C_11
REMARK    3  A    between atoms: C_8  and  C_15
REMARK    4  A    between atoms: C_10  and  C_14
REMARK    5  A    between atoms: C_11  and  C_16
REMARK    6  A    between atoms: C_11  and  C_17
REMARK    7  A    between atoms: C_12  and  C_18
REMARK    8  A    between atoms: C_14  and  C_19
REMARK    9  A    between atoms: C_24  and  C_26
REMARK   10  A    between atoms: C_25  and  C_27
REMARK                            x       y       z     vdW  Elec       q    Type
REMARK                         _______ _______ _______ _____ _____    ______ ____
ROOT
ATOM      7  C   UNL     1      -1.792  -0.891  25.293  0.00  0.00    +0.000 C 
ATOM      8  C   UNL     1      -1.356  -2.211  24.611  0.00  0.00    +0.032 C 
ATOM      9  C   UNL     1      -3.169  -1.058  25.952  0.00  0.00    +0.012 C 
ATOM     10  C   UNL     1      -4.255  -1.464  24.939  0.00  0.00    +0.023 C 
ATOM     12  C   UNL     1      -3.793  -2.595  24.043  0.00  0.00    -0.073 C 
ATOM     13  C   UNL     1      -2.495  -2.923  23.919  0.00  0.00    -0.022 C 
ATOM     18  C   UNL     1      -4.864  -3.371  23.326  0.00  0.00    +0.039 C 
ENDROOT
BRANCH   7  11
ATOM     11  C   UNL     1      -0.770  -0.425  26.335  0.00  0.00    -0.013 C 
ATOM     16  C   UNL     1      -0.646   1.095  26.316  0.00  0.00    +0.007 C 
ATOM     17  C   UNL     1      -1.165  -0.918  27.724  0.00  0.00    +0.007 C 
ENDBRANCH   7  11
BRANCH  10  14
ATOM     14  C   UNL     1      -4.716  -0.260  24.110  0.00  0.00    +0.103 C 
BRANCH  14  19
ATOM      1  O   UNL     1      -5.827   1.139  25.667  0.00  0.00    -0.276 OA
ATOM      3  O   UNL     1       0.007   4.705  23.583  0.00  0.00    -0.276 OA
ATOM      4  N   UNL     1      -3.721   1.828  24.972  0.00  0.00    -0.298 N 
ATOM      6  N   UNL     1      -2.126   4.049  24.228  0.00  0.00    -0.299 N 
ATOM     19  C   UNL     1      -4.812   0.961  24.988  0.00  0.00    +0.216 C 
ATOM     20  C   UNL     1      -3.736   3.039  25.796  0.00  0.00    +0.126 C 
ATOM     21  C   UNL     1      -2.470   1.607  24.234  0.00  0.00    +0.126 C 
ATOM     22  C   UNL     1      -3.377   4.269  24.965  0.00  0.00    +0.126 C 
ATOM     23  C   UNL     1      -2.111   2.837  23.404  0.00  0.00    +0.126 C 
ATOM     25  C   UNL     1      -1.034   4.914  24.212  0.00  0.00    +0.213 C 
ATOM     27  C   UNL     1      -1.162   6.176  25.028  0.00  0.00    +0.109 C 
ENDBRANCH  14  19
ENDBRANCH  10  14
BRANCH   8  15
ATOM     15  C   UNL     1      -0.222  -1.968  23.608  0.00  0.00    +0.112 C 
BRANCH  15   5
ATOM      2  O   UNL     1       1.357  -0.406  21.739  0.00  0.00    -0.276 OA
ATOM      5  N   UNL     1       0.402  -0.705  23.843  0.00  0.00    -0.315 N 
ATOM     24  C   UNL     1       1.146  -0.019  22.885  0.00  0.00    +0.210 C 
ATOM     26  C   UNL     1       1.671   1.299  23.388  0.00  0.00    +0.109 C 
ATOM     28  H   UNL     1       0.242  -0.254  24.740  0.00  0.00    +0.149 HD
ENDBRANCH  15   5
ENDBRANCH   8  15
TORSDOF 5
ENDMDL
MODEL 10
REMARK VINA RESULT:       1.7      1.791      5.380
REMARK  Name = 38026924
REMARK  10 active torsions:
REMARK  status: ('A' for Active; 'I' for Inactive)
REMARK    1  A    between atoms: N_5  and  C_15
REMARK    2  A    between atoms: C_7  and  C_11
REMARK    3  A    between atoms: C_8  and  C_15
REMARK    4  A    between atoms: C_10  and  C_14
REMARK    5  A    between atoms: C_11  and  C_16
REMARK    6  A    between atoms: C_11  and  C_17
REMARK    7  A    between atoms: C_12  and  C_18
REMARK    8  A    between atoms: C_14  and  C_19
REMARK    9  A    between atoms: C_24  and  C_26
REMARK   10  A    between atoms: C_25  and  C_27
REMARK                            x       y       z     vdW  Elec       q    Type
REMARK                         _______ _______ _______ _____ _____    ______ ____
ROOT
ATOM      7  C   UNL     1      -4.448   1.770  25.357  0.00  0.00    +0.000 C 
ATOM      8  C   UNL     1      -4.350   1.815  23.812  0.00  0.00    +0.032 C 
ATOM      9  C   UNL     1      -5.001   3.096  25.899  0.00  0.00    +0.012 C 
ATOM     10  C   UNL     1      -4.126   4.299  25.501  0.00  0.00    +0.023 C 
ATOM     12  C   UNL     1      -3.763   4.268  24.030  0.00  0.00    -0.073 C 
ATOM     13  C   UNL     1      -3.882   3.153  23.288  0.00  0.00    -0.022 C 
ATOM     18  C   UNL     1      -3.301   5.563  23.420  0.00  0.00    +0.039 C 
ENDROOT
BRANCH   7  11
ATOM     11  C   UNL     1      -5.322   0.607  25.838  0.00  0.00    -0.013 C 
ATOM     16  C   UNL     1      -4.470  -0.442  26.545  0.00  0.00    +0.007 C 
ATOM     17  C   UNL     1      -6.426   1.117  26.757  0.00  0.00    +0.007 C 
ENDBRANCH   7  11
BRANCH  10  14
ATOM     14  C   UNL     1      -2.870   4.382  26.375  0.00  0.00    +0.103 C 
BRANCH  14  19
ATOM      1  O   UNL     1      -1.379   5.649  25.038  0.00  0.00    -0.276 OA
ATOM      3  O   UNL     1       0.570  -1.186  24.277  0.00  0.00    -0.276 OA
ATOM      4  N   UNL     1      -0.890   3.392  25.284  0.00  0.00    -0.298 N 
ATOM      6  N   UNL     1       0.043   1.056  23.978  0.00  0.00    -0.299 N 
ATOM     19  C   UNL     1      -1.648   4.539  25.506  0.00  0.00    +0.216 C 
ATOM     20  C   UNL     1       0.312   3.460  24.448  0.00  0.00    +0.126 C 
ATOM     21  C   UNL     1      -1.141   2.075  25.886  0.00  0.00    +0.126 C 
ATOM     22  C   UNL     1       0.293   2.372  23.376  0.00  0.00    +0.126 C 
ATOM     23  C   UNL     1      -1.159   0.989  24.814  0.00  0.00    +0.126 C 
ATOM     25  C   UNL     1       0.802  -0.091  23.758  0.00  0.00    +0.213 C 
ATOM     27  C   UNL     1       1.978   0.047  22.824  0.00  0.00    +0.109 C 
ENDBRANCH  14  19
ENDBRANCH  10  14
BRANCH   8  15
ATOM     15  C   UNL     1      -3.430   0.710  23.282  0.00  0.00    +0.112 C 
BRANCH  15   5
ATOM      2  O   UNL     1      -2.338  -1.795  24.264  0.00  0.00    -0.276 OA
ATOM      5  N   UNL     1      -4.081  -0.561  23.332  0.00  0.00    -0.315 N 
ATOM     24  C   UNL     1      -3.481  -1.719  23.821  0.00  0.00    +0.210 C 
ATOM     26  C   UNL     1      -4.398  -2.912  23.782  0.00  0.00    +0.109 C 
ATOM     28  H   UNL     1      -5.057  -0.608  23.051  0.00  0.00    +0.149 HD
ENDBRANCH  15   5
ENDBRANCH   8  15
TORSDOF 5
ENDMDL
