MODEL 1
REMARK VINA RESULT:      -3.8      0.000      0.000
REMARK  Name = 25314288
REMARK  6 active torsions:
REMARK  status: ('A' for Active; 'I' for Inactive)
REMARK    1  A    between atoms: O_6  and  C_14
REMARK    2  A    between atoms: N_9  and  C_13
REMARK    3  A    between atoms: N_10  and  C_15
REMARK    4  A    between atoms: N_12  and  C_26
REMARK    5  A    between atoms: C_24  and  C_25
REMARK    6  A    between atoms: C_29  and  C_32
REMARK                            x       y       z     vdW  Elec       q    Type
REMARK                         _______ _______ _______ _____ _____    ______ ____
ROOT
ATOM      4  O   UNL     1      -8.191  -8.169  10.500  0.00  0.00    -0.342 OA
ATOM      5  O   UNL     1      -9.864  -7.979   8.904  0.00  0.00    -0.347 OA
ATOM     13  C   UNL     1      -9.914  -9.855  10.430  0.00  0.00    +0.144 C 
ATOM     14  C   UNL     1      -9.073 -10.702   9.448  0.00  0.00    +0.159 C 
ATOM     15  C   UNL     1      -7.669 -10.118   9.179  0.00  0.00    +0.136 C 
ATOM     16  C   UNL     1      -7.629  -8.578   9.249  0.00  0.00    +0.170 C 
ATOM     17  C   UNL     1      -9.593  -8.358  10.263  0.00  0.00    +0.270 C 
ATOM     18  C   UNL     1      -8.573  -7.888   8.282  0.00  0.00    +0.196 C 
ENDROOT
BRANCH  13   9
ATOM      8  O   UNL     1      -9.764  -8.602  16.430  0.00  0.00    -0.276 OA
ATOM      9  N   UNL     1      -9.649 -10.269  11.809  0.00  0.00    -0.290 NA
ATOM     11  N   UNL     1      -9.102  -9.855  14.591  0.00  0.00    -0.299 N 
ATOM     19  C   UNL     1     -10.698  -9.769  12.709  0.00  0.00    +0.104 C 
ATOM     20  C   UNL     1      -8.328  -9.793  12.244  0.00  0.00    +0.104 C 
ATOM     21  C   UNL     1     -10.444 -10.228  14.144  0.00  0.00    +0.123 C 
ATOM     22  C   UNL     1      -8.027 -10.246  13.674  0.00  0.00    +0.123 C 
ATOM     24  C   UNL     1      -8.921  -9.293  15.853  0.00  0.00    +0.213 C 
ATOM     25  C   UNL     1      -7.599  -9.559  16.527  0.00  0.00    +0.109 C 
ENDBRANCH  13   9
BRANCH  15  10
ATOM      7  O   UNL     1      -5.269  -8.868  10.119  0.00  0.00    -0.252 OA
ATOM     10  N   UNL     1      -6.710 -10.675  10.110  0.00  0.00    -0.291 N 
ATOM     12  N   UNL     1      -4.828 -10.776  11.414  0.00  0.00    -0.269 N 
ATOM     23  C   UNL     1      -5.561  -9.993  10.516  0.00  0.00    +0.304 C 
ATOM     33  H   UNL     1      -6.841 -11.633  10.419  0.00  0.00    +0.151 HD
ATOM     35  H   UNL     1      -5.210 -11.690  11.640  0.00  0.00    +0.156 HD
BRANCH  12  26
ATOM     26  C   UNL     1      -3.609 -10.451  12.054  0.00  0.00    +0.035 A 
ATOM     27  C   UNL     1      -2.583  -9.842  11.332  0.00  0.00    +0.035 A 
ATOM     28  C   UNL     1      -3.434 -10.740  13.407  0.00  0.00    +0.023 A 
ATOM     29  C   UNL     1      -1.381  -9.522  11.963  0.00  0.00    +0.057 A 
ATOM     30  C   UNL     1      -2.232 -10.419  14.039  0.00  0.00    +0.002 A 
ATOM     31  C   UNL     1      -1.206  -9.810  13.317  0.00  0.00    +0.012 A 
BRANCH  29  32
ATOM      1  F   UNL     1       0.806  -9.680  11.044  0.00  0.00    -0.166 F 
ATOM      2  F   UNL     1      -0.644  -8.508   9.926  0.00  0.00    -0.166 F 
ATOM      3  F   UNL     1       0.187  -7.727  11.771  0.00  0.00    -0.166 F 
ATOM     32  C   UNL     1      -0.282  -8.871  11.192  0.00  0.00    +0.417 C 
ENDBRANCH  29  32
ENDBRANCH  12  26
ENDBRANCH  15  10
BRANCH  14   6
ATOM      6  O   UNL     1      -9.788 -10.774   8.208  0.00  0.00    -0.388 OA
ATOM     34  H   UNL     1     -10.461 -11.470   8.296  0.00  0.00    +0.210 HD
ENDBRANCH  14   6
TORSDOF 5
ENDMDL
MODEL 2
REMARK VINA RESULT:      -3.8      1.679      2.153
REMARK  Name = 25314288
REMARK  6 active torsions:
REMARK  status: ('A' for Active; 'I' for Inactive)
REMARK    1  A    between atoms: O_6  and  C_14
REMARK    2  A    between atoms: N_9  and  C_13
REMARK    3  A    between atoms: N_10  and  C_15
REMARK    4  A    between atoms: N_12  and  C_26
REMARK    5  A    between atoms: C_24  and  C_25
REMARK    6  A    between atoms: C_29  and  C_32
REMARK                            x       y       z     vdW  Elec       q    Type
REMARK                         _______ _______ _______ _____ _____    ______ ____
ROOT
ATOM      4  O   UNL     1      -8.228  -8.232  10.676  0.00  0.00    -0.342 OA
ATOM      5  O   UNL     1      -9.898  -8.017   9.080  0.00  0.00    -0.347 OA
ATOM     13  C   UNL     1      -9.847 -10.006  10.456  0.00  0.00    +0.144 C 
ATOM     14  C   UNL     1      -8.950 -10.723   9.422  0.00  0.00    +0.159 C 
ATOM     15  C   UNL     1      -7.581 -10.038   9.216  0.00  0.00    +0.136 C 
ATOM     16  C   UNL     1      -7.633  -8.509   9.404  0.00  0.00    +0.170 C 
ATOM     17  C   UNL     1      -9.614  -8.485  10.409  0.00  0.00    +0.270 C 
ATOM     18  C   UNL     1      -8.611  -7.803   8.482  0.00  0.00    +0.196 C 
ENDROOT
BRANCH  13   9
ATOM      8  O   UNL     1     -10.009  -9.301  16.545  0.00  0.00    -0.276 OA
ATOM      9  N   UNL     1      -9.567 -10.509  11.802  0.00  0.00    -0.290 NA
ATOM     11  N   UNL     1      -9.148 -10.289  14.628  0.00  0.00    -0.299 N 
ATOM     19  C   UNL     1     -10.693 -10.227  12.704  0.00  0.00    +0.104 C 
ATOM     20  C   UNL     1      -8.328  -9.917  12.326  0.00  0.00    +0.104 C 
ATOM     21  C   UNL     1     -10.420 -10.781  14.101  0.00  0.00    +0.123 C 
ATOM     22  C   UNL     1      -8.009 -10.459  13.721  0.00  0.00    +0.123 C 
ATOM     24  C   UNL     1      -9.071  -9.827  15.941  0.00  0.00    +0.213 C 
ATOM     25  C   UNL     1      -7.744  -9.990  16.637  0.00  0.00    +0.109 C 
ENDBRANCH  13   9
BRANCH  15  10
ATOM      7  O   UNL     1      -5.107  -8.844  10.026  0.00  0.00    -0.252 OA
ATOM     10  N   UNL     1      -6.598 -10.609  10.111  0.00  0.00    -0.291 N 
ATOM     12  N   UNL     1      -4.662 -10.743  11.332  0.00  0.00    -0.269 N 
ATOM     23  C   UNL     1      -5.412  -9.954  10.455  0.00  0.00    +0.304 C 
ATOM     33  H   UNL     1      -6.742 -11.557  10.442  0.00  0.00    +0.151 HD
ATOM     35  H   UNL     1      -5.059 -11.642  11.590  0.00  0.00    +0.156 HD
BRANCH  12  26
ATOM     26  C   UNL     1      -3.407 -10.444  11.911  0.00  0.00    +0.035 A 
ATOM     27  C   UNL     1      -3.266 -10.426  13.298  0.00  0.00    +0.035 A 
ATOM     28  C   UNL     1      -2.310 -10.168  11.095  0.00  0.00    +0.023 A 
ATOM     29  C   UNL     1      -2.029 -10.131  13.870  0.00  0.00    +0.057 A 
ATOM     30  C   UNL     1      -1.072  -9.874  11.667  0.00  0.00    +0.002 A 
ATOM     31  C   UNL     1      -0.931  -9.855  13.054  0.00  0.00    +0.012 A 
BRANCH  29  32
ATOM      1  F   UNL     1      -2.935 -10.680  15.999  0.00  0.00    -0.166 F 
ATOM      2  F   UNL     1      -0.773 -10.781  15.799  0.00  0.00    -0.166 F 
ATOM      3  F   UNL     1      -1.763  -8.853  15.874  0.00  0.00    -0.166 F 
ATOM     32  C   UNL     1      -1.877 -10.111  15.354  0.00  0.00    +0.417 C 
ENDBRANCH  29  32
ENDBRANCH  12  26
ENDBRANCH  15  10
BRANCH  14   6
ATOM      6  O   UNL     1      -9.650 -10.741   8.172  0.00  0.00    -0.388 OA
ATOM     34  H   UNL     1      -9.842  -9.819   7.930  0.00  0.00    +0.210 HD
ENDBRANCH  14   6
TORSDOF 5
ENDMDL
MODEL 3
REMARK VINA RESULT:      -0.7     15.717     17.552
REMARK  Name = 25314288
REMARK  6 active torsions:
REMARK  status: ('A' for Active; 'I' for Inactive)
REMARK    1  A    between atoms: O_6  and  C_14
REMARK    2  A    between atoms: N_9  and  C_13
REMARK    3  A    between atoms: N_10  and  C_15
REMARK    4  A    between atoms: N_12  and  C_26
REMARK    5  A    between atoms: C_24  and  C_25
REMARK    6  A    between atoms: C_29  and  C_32
REMARK                            x       y       z     vdW  Elec       q    Type
REMARK                         _______ _______ _______ _____ _____    ______ ____
ROOT
ATOM      4  O   UNL     1      -4.051   2.903  26.627  0.00  0.00    -0.342 OA
ATOM      5  O   UNL     1      -5.741   4.181  25.684  0.00  0.00    -0.347 OA
ATOM     13  C   UNL     1      -4.987   2.200  24.519  0.00  0.00    +0.144 C 
ATOM     14  C   UNL     1      -3.931   3.028  23.752  0.00  0.00    +0.159 C 
ATOM     15  C   UNL     1      -2.878   3.684  24.671  0.00  0.00    +0.136 C 
ATOM     16  C   UNL     1      -3.435   4.062  26.059  0.00  0.00    +0.170 C 
ATOM     17  C   UNL     1      -5.280   2.836  25.890  0.00  0.00    +0.270 C 
ATOM     18  C   UNL     1      -4.618   5.011  26.015  0.00  0.00    +0.196 C 
ENDROOT
BRANCH  13   9
ATOM      8  O   UNL     1      -0.442  -1.775  25.580  0.00  0.00    -0.276 OA
ATOM      9  N   UNL     1      -4.517   0.826  24.700  0.00  0.00    -0.290 NA
ATOM     11  N   UNL     1      -2.561  -1.267  24.778  0.00  0.00    -0.299 N 
ATOM     19  C   UNL     1      -3.546   0.752  25.802  0.00  0.00    +0.104 C 
ATOM     20  C   UNL     1      -3.921   0.317  23.456  0.00  0.00    +0.104 C 
ATOM     21  C   UNL     1      -3.079  -0.686  26.016  0.00  0.00    +0.123 C 
ATOM     22  C   UNL     1      -3.454  -1.130  23.624  0.00  0.00    +0.123 C 
ATOM     24  C   UNL     1      -1.368  -1.988  24.795  0.00  0.00    +0.213 C 
ATOM     25  C   UNL     1      -1.231  -3.088  23.772  0.00  0.00    +0.109 C 
ENDBRANCH  13   9
BRANCH  15  10
ATOM      7  O   UNL     1      -1.310   2.532  22.569  0.00  0.00    -0.252 OA
ATOM     10  N   UNL     1      -1.735   2.809  24.824  0.00  0.00    -0.291 N 
ATOM     12  N   UNL     1       0.023   1.481  24.190  0.00  0.00    -0.269 N 
ATOM     23  C   UNL     1      -1.025   2.290  23.738  0.00  0.00    +0.304 C 
ATOM     33  H   UNL     1      -1.488   2.500  25.758  0.00  0.00    +0.151 HD
ATOM     35  H   UNL     1       0.123   1.385  25.197  0.00  0.00    +0.156 HD
BRANCH  12  26
ATOM     26  C   UNL     1       0.970   0.775  23.414  0.00  0.00    +0.035 A 
ATOM     27  C   UNL     1       2.327   0.856  23.726  0.00  0.00    +0.035 A 
ATOM     28  C   UNL     1       0.548  -0.003  22.336  0.00  0.00    +0.023 A 
ATOM     29  C   UNL     1       3.262   0.159  22.961  0.00  0.00    +0.057 A 
ATOM     30  C   UNL     1       1.483  -0.701  21.570  0.00  0.00    +0.002 A 
ATOM     31  C   UNL     1       2.839  -0.620  21.883  0.00  0.00    +0.012 A 
BRANCH  29  32
ATOM      1  F   UNL     1       5.512   0.141  22.193  0.00  0.00    -0.166 F 
ATOM      2  F   UNL     1       5.068   1.419  23.893  0.00  0.00    -0.166 F 
ATOM      3  F   UNL     1       5.137  -0.733  24.147  0.00  0.00    -0.166 F 
ATOM     32  C   UNL     1       4.713   0.244  23.293  0.00  0.00    +0.417 C 
ENDBRANCH  29  32
ENDBRANCH  12  26
ENDBRANCH  15  10
BRANCH  14   6
ATOM      6  O   UNL     1      -4.621   4.058  23.032  0.00  0.00    -0.388 OA
ATOM     34  H   UNL     1      -4.250   4.912  23.313  0.00  0.00    +0.210 HD
ENDBRANCH  14   6
TORSDOF 5
ENDMDL
