MODEL 1
REMARK VINA RESULT:      -4.8      0.000      0.000
REMARK  Name = 45784127
REMARK  11 active torsions:
REMARK  status: ('A' for Active; 'I' for Inactive)
REMARK    1  A    between atoms: O_2  and  C_15
REMARK    2  A    between atoms: O_4  and  C_21
REMARK    3  A    between atoms: O_4  and  C_22
REMARK    4  A    between atoms: C_7  and  C_11
REMARK    5  A    between atoms: C_9  and  C_15
REMARK    6  A    between atoms: C_10  and  C_14
REMARK    7  A    between atoms: C_11  and  C_16
REMARK    8  A    between atoms: C_11  and  C_17
REMARK    9  A    between atoms: C_12  and  C_18
REMARK   10  A    between atoms: C_14  and  C_19
REMARK   11  A    between atoms: C_20  and  C_21
REMARK                            x       y       z     vdW  Elec       q    Type
REMARK                         _______ _______ _______ _____ _____    ______ ____
ROOT
ATOM     14  C   UNL     1      -4.185  -0.259  25.759  0.00  0.00    +0.105 C 
ENDROOT
BRANCH  14  10
ATOM      7  C   UNL     1      -2.693   2.306  24.520  0.00  0.00    +0.001 C 
ATOM      8  C   UNL     1      -3.670   1.327  23.852  0.00  0.00    +0.012 C 
ATOM      9  C   UNL     1      -3.456   3.530  25.086  0.00  0.00    +0.040 C 
ATOM     10  C   UNL     1      -4.747   0.822  24.829  0.00  0.00    +0.024 C 
ATOM     12  C   UNL     1      -5.363   1.955  25.625  0.00  0.00    -0.073 C 
ATOM     13  C   UNL     1      -4.778   3.162  25.717  0.00  0.00    -0.022 C 
ATOM     18  C   UNL     1      -6.691   1.682  26.274  0.00  0.00    +0.039 C 
BRANCH   7  11
ATOM     11  C   UNL     1      -1.610   2.724  23.520  0.00  0.00    -0.013 C 
ATOM     16  C   UNL     1      -1.787   1.976  22.202  0.00  0.00    +0.007 C 
ATOM     17  C   UNL     1      -0.222   2.472  24.102  0.00  0.00    +0.007 C 
ENDBRANCH   7  11
BRANCH   9  15
ATOM     15  C   UNL     1      -2.600   4.294  26.104  0.00  0.00    +0.163 C 
BRANCH  15   2
ATOM      2  O   UNL     1      -1.847   5.268  25.407  0.00  0.00    -0.394 OA
ATOM     28  H   UNL     1      -0.934   4.937  25.348  0.00  0.00    +0.209 HD
ENDBRANCH  15   2
ENDBRANCH   9  15
ENDBRANCH  14  10
BRANCH  14  19
ATOM      3  O   UNL     1      -1.809  -0.616  25.337  0.00  0.00    -0.421 OA
ATOM      5  N   UNL     1      -3.151  -2.077  24.304  0.00  0.00    -0.112 NA
ATOM      6  N   UNL     1      -1.845  -2.393  23.980  0.00  0.00    -0.109 NA
ATOM     19  C   UNL     1      -3.082  -1.033  25.097  0.00  0.00    +0.218 A 
ATOM     20  C   UNL     1      -1.096  -1.515  24.605  0.00  0.00    +0.254 A 
BRANCH  20  21
ATOM     21  C   UNL     1       0.365  -1.376  24.624  0.00  0.00    +0.326 C 
BRANCH  21   4
ATOM      4  O   UNL     1       0.811  -0.669  23.464  0.00  0.00    -0.483 OA
BRANCH   4  22
ATOM      1  F   UNL     1       6.216   0.250  23.080  0.00  0.00    -0.205 F 
ATOM     22  C   UNL     1       2.155  -0.440  23.369  0.00  0.00    +0.121 A 
ATOM     23  C   UNL     1       2.622   0.765  22.842  0.00  0.00    +0.048 A 
ATOM     24  C   UNL     1       3.060  -1.411  23.797  0.00  0.00    +0.048 A 
ATOM     25  C   UNL     1       3.994   0.998  22.744  0.00  0.00    +0.042 A 
ATOM     26  C   UNL     1       4.431  -1.178  23.700  0.00  0.00    +0.042 A 
ATOM     27  C   UNL     1       4.898   0.026  23.173  0.00  0.00    +0.124 A 
ENDBRANCH   4  22
ENDBRANCH  21   4
ENDBRANCH  20  21
ENDBRANCH  14  19
TORSDOF 8
ENDMDL
MODEL 2
REMARK VINA RESULT:      -4.7      1.782      3.449
REMARK  Name = 45784127
REMARK  11 active torsions:
REMARK  status: ('A' for Active; 'I' for Inactive)
REMARK    1  A    between atoms: O_2  and  C_15
REMARK    2  A    between atoms: O_4  and  C_21
REMARK    3  A    between atoms: O_4  and  C_22
REMARK    4  A    between atoms: C_7  and  C_11
REMARK    5  A    between atoms: C_9  and  C_15
REMARK    6  A    between atoms: C_10  and  C_14
REMARK    7  A    between atoms: C_11  and  C_16
REMARK    8  A    between atoms: C_11  and  C_17
REMARK    9  A    between atoms: C_12  and  C_18
REMARK   10  A    between atoms: C_14  and  C_19
REMARK   11  A    between atoms: C_20  and  C_21
REMARK                            x       y       z     vdW  Elec       q    Type
REMARK                         _______ _______ _______ _____ _____    ______ ____
ROOT
ATOM     14  C   UNL     1      -0.760   2.434  26.467  0.00  0.00    +0.105 C 
ENDROOT
BRANCH  14  10
ATOM      7  C   UNL     1      -3.223   1.674  24.542  0.00  0.00    +0.001 C 
ATOM      8  C   UNL     1      -3.188   2.607  25.762  0.00  0.00    +0.012 C 
ATOM      9  C   UNL     1      -2.980   2.476  23.240  0.00  0.00    +0.040 C 
ATOM     10  C   UNL     1      -1.845   3.350  25.889  0.00  0.00    +0.024 C 
ATOM     12  C   UNL     1      -1.404   3.946  24.567  0.00  0.00    -0.073 C 
ATOM     13  C   UNL     1      -1.932   3.553  23.395  0.00  0.00    -0.022 C 
ATOM     18  C   UNL     1      -0.373   5.039  24.629  0.00  0.00    +0.039 C 
BRANCH   7  11
ATOM     11  C   UNL     1      -4.554   0.917  24.504  0.00  0.00    -0.013 C 
ATOM     16  C   UNL     1      -5.534   1.516  25.509  0.00  0.00    +0.007 C 
ATOM     17  C   UNL     1      -4.332  -0.566  24.784  0.00  0.00    +0.007 C 
ENDBRANCH   7  11
BRANCH   9  15
ATOM     15  C   UNL     1      -2.592   1.549  22.082  0.00  0.00    +0.163 C 
BRANCH  15   2
ATOM      2  O   UNL     1      -2.519   2.322  20.900  0.00  0.00    -0.394 OA
ATOM     28  H   UNL     1      -2.461   1.701  20.154  0.00  0.00    +0.209 HD
ENDBRANCH  15   2
ENDBRANCH   9  15
ENDBRANCH  14  10
BRANCH  14  19
ATOM      3  O   UNL     1       0.014   1.103  24.575  0.00  0.00    -0.421 OA
ATOM      5  N   UNL     1      -1.237  -0.032  26.042  0.00  0.00    -0.112 NA
ATOM      6  N   UNL     1      -0.871  -0.900  25.030  0.00  0.00    -0.109 NA
ATOM     19  C   UNL     1      -0.700   1.126  25.734  0.00  0.00    +0.218 A 
ATOM     20  C   UNL     1      -0.142  -0.196  24.197  0.00  0.00    +0.254 A 
BRANCH  20  21
ATOM     21  C   UNL     1       0.514  -0.606  22.949  0.00  0.00    +0.326 C 
BRANCH  21   4
ATOM      4  O   UNL     1       1.477   0.372  22.550  0.00  0.00    -0.483 OA
BRANCH   4  22
ATOM      1  F   UNL     1       6.683  -0.572  24.038  0.00  0.00    -0.205 F 
ATOM     22  C   UNL     1       2.772   0.137  22.920  0.00  0.00    +0.121 A 
ATOM     23  C   UNL     1       3.141  -1.116  23.409  0.00  0.00    +0.048 A 
ATOM     24  C   UNL     1       3.724   1.150  22.809  0.00  0.00    +0.048 A 
ATOM     25  C   UNL     1       4.462  -1.356  23.787  0.00  0.00    +0.042 A 
ATOM     26  C   UNL     1       5.045   0.911  23.186  0.00  0.00    +0.042 A 
ATOM     27  C   UNL     1       5.414  -0.342  23.675  0.00  0.00    +0.124 A 
ENDBRANCH   4  22
ENDBRANCH  21   4
ENDBRANCH  20  21
ENDBRANCH  14  19
TORSDOF 8
ENDMDL
MODEL 3
REMARK VINA RESULT:      -4.1      3.555      5.502
REMARK  Name = 45784127
REMARK  11 active torsions:
REMARK  status: ('A' for Active; 'I' for Inactive)
REMARK    1  A    between atoms: O_2  and  C_15
REMARK    2  A    between atoms: O_4  and  C_21
REMARK    3  A    between atoms: O_4  and  C_22
REMARK    4  A    between atoms: C_7  and  C_11
REMARK    5  A    between atoms: C_9  and  C_15
REMARK    6  A    between atoms: C_10  and  C_14
REMARK    7  A    between atoms: C_11  and  C_16
REMARK    8  A    between atoms: C_11  and  C_17
REMARK    9  A    between atoms: C_12  and  C_18
REMARK   10  A    between atoms: C_14  and  C_19
REMARK   11  A    between atoms: C_20  and  C_21
REMARK                            x       y       z     vdW  Elec       q    Type
REMARK                         _______ _______ _______ _____ _____    ______ ____
ROOT
ATOM     14  C   UNL     1      -1.382   3.237  26.829  0.00  0.00    +0.105 C 
ENDROOT
BRANCH  14  10
ATOM      7  C   UNL     1      -3.928   2.573  24.980  0.00  0.00    +0.001 C 
ATOM      8  C   UNL     1      -3.799   3.567  26.144  0.00  0.00    +0.012 C 
ATOM      9  C   UNL     1      -3.644   3.279  23.631  0.00  0.00    +0.040 C 
ATOM     10  C   UNL     1      -2.399   4.204  26.212  0.00  0.00    +0.024 C 
ATOM     12  C   UNL     1      -1.933   4.688  24.854  0.00  0.00    -0.073 C 
ATOM     13  C   UNL     1      -2.510   4.274  23.712  0.00  0.00    -0.022 C 
ATOM     18  C   UNL     1      -0.817   5.695  24.841  0.00  0.00    +0.039 C 
BRANCH   7  11
ATOM     11  C   UNL     1      -5.317   1.926  25.001  0.00  0.00    -0.013 C 
ATOM     16  C   UNL     1      -6.327   2.856  25.667  0.00  0.00    +0.007 C 
ATOM     17  C   UNL     1      -5.266   0.580  25.720  0.00  0.00    +0.007 C 
ENDBRANCH   7  11
BRANCH   9  15
ATOM     15  C   UNL     1      -3.350   2.260  22.524  0.00  0.00    +0.163 C 
BRANCH  15   2
ATOM      2  O   UNL     1      -1.953   2.048  22.476  0.00  0.00    -0.394 OA
ATOM     28  H   UNL     1      -1.543   2.703  23.067  0.00  0.00    +0.209 HD
ENDBRANCH  15   2
ENDBRANCH   9  15
ENDBRANCH  14  10
BRANCH  14  19
ATOM      3  O   UNL     1      -0.809   1.286  25.482  0.00  0.00    -0.421 OA
ATOM      5  N   UNL     1       0.452   3.086  25.068  0.00  0.00    -0.112 NA
ATOM      6  N   UNL     1       0.882   2.063  24.242  0.00  0.00    -0.109 NA
ATOM     19  C   UNL     1      -0.535   2.586  25.774  0.00  0.00    +0.218 A 
ATOM     20  C   UNL     1       0.118   1.032  24.518  0.00  0.00    +0.254 A 
BRANCH  20  21
ATOM     21  C   UNL     1       0.124  -0.318  23.942  0.00  0.00    +0.326 C 
BRANCH  21   4
ATOM      4  O   UNL     1      -0.481  -1.245  24.847  0.00  0.00    -0.483 OA
BRANCH   4  22
ATOM      1  F   UNL     1      -5.552  -2.946  23.584  0.00  0.00    -0.205 F 
ATOM     22  C   UNL     1      -1.742  -1.669  24.533  0.00  0.00    +0.121 A 
ATOM     23  C   UNL     1      -2.636  -0.796  23.911  0.00  0.00    +0.048 A 
ATOM     24  C   UNL     1      -2.136  -2.972  24.833  0.00  0.00    +0.048 A 
ATOM     25  C   UNL     1      -3.923  -1.227  23.591  0.00  0.00    +0.042 A 
ATOM     26  C   UNL     1      -3.422  -3.404  24.513  0.00  0.00    +0.042 A 
ATOM     27  C   UNL     1      -4.316  -2.531  23.892  0.00  0.00    +0.124 A 
ENDBRANCH   4  22
ENDBRANCH  21   4
ENDBRANCH  20  21
ENDBRANCH  14  19
TORSDOF 8
ENDMDL
MODEL 4
REMARK VINA RESULT:      -4.0      1.302      1.601
REMARK  Name = 45784127
REMARK  11 active torsions:
REMARK  status: ('A' for Active; 'I' for Inactive)
REMARK    1  A    between atoms: O_2  and  C_15
REMARK    2  A    between atoms: O_4  and  C_21
REMARK    3  A    between atoms: O_4  and  C_22
REMARK    4  A    between atoms: C_7  and  C_11
REMARK    5  A    between atoms: C_9  and  C_15
REMARK    6  A    between atoms: C_10  and  C_14
REMARK    7  A    between atoms: C_11  and  C_16
REMARK    8  A    between atoms: C_11  and  C_17
REMARK    9  A    between atoms: C_12  and  C_18
REMARK   10  A    between atoms: C_14  and  C_19
REMARK   11  A    between atoms: C_20  and  C_21
REMARK                            x       y       z     vdW  Elec       q    Type
REMARK                         _______ _______ _______ _____ _____    ______ ____
ROOT
ATOM     14  C   UNL     1      -3.809   0.135  25.123  0.00  0.00    +0.105 C 
ENDROOT
BRANCH  14  10
ATOM      7  C   UNL     1      -2.560   3.098  25.036  0.00  0.00    +0.001 C 
ATOM      8  C   UNL     1      -2.965   2.173  23.877  0.00  0.00    +0.012 C 
ATOM      9  C   UNL     1      -3.731   4.041  25.409  0.00  0.00    +0.040 C 
ATOM     10  C   UNL     1      -4.195   1.313  24.221  0.00  0.00    +0.024 C 
ATOM     12  C   UNL     1      -5.301   2.136  24.848  0.00  0.00    -0.073 C 
ATOM     13  C   UNL     1      -5.078   3.359  25.362  0.00  0.00    -0.022 C 
ATOM     18  C   UNL     1      -6.681   1.540  24.830  0.00  0.00    +0.039 C 
BRANCH   7  11
ATOM     11  C   UNL     1      -1.298   3.880  24.660  0.00  0.00    -0.013 C 
ATOM     16  C   UNL     1      -0.080   3.294  25.368  0.00  0.00    +0.007 C 
ATOM     17  C   UNL     1      -1.465   5.357  25.003  0.00  0.00    +0.007 C 
ENDBRANCH   7  11
BRANCH   9  15
ATOM     15  C   UNL     1      -3.521   4.661  26.796  0.00  0.00    +0.163 C 
BRANCH  15   2
ATOM      2  O   UNL     1      -2.893   3.699  27.620  0.00  0.00    -0.394 OA
ATOM     28  H   UNL     1      -2.876   4.061  28.523  0.00  0.00    +0.209 HD
ENDBRANCH  15   2
ENDBRANCH   9  15
ENDBRANCH  14  10
BRANCH  14  19
ATOM      3  O   UNL     1      -1.664   0.441  24.002  0.00  0.00    -0.421 OA
ATOM      5  N   UNL     1      -1.725  -1.303  25.401  0.00  0.00    -0.112 NA
ATOM      6  N   UNL     1      -0.462  -1.249  24.841  0.00  0.00    -0.109 NA
ATOM     19  C   UNL     1      -2.392  -0.299  24.882  0.00  0.00    +0.218 A 
ATOM     20  C   UNL     1      -0.472  -0.216  24.031  0.00  0.00    +0.254 A 
BRANCH  20  21
ATOM     21  C   UNL     1       0.599   0.315  23.178  0.00  0.00    +0.326 C 
BRANCH  21   4
ATOM      4  O   UNL     1       1.512  -0.726  22.824  0.00  0.00    -0.483 OA
BRANCH   4  22
ATOM      1  F   UNL     1       6.835   0.255  23.785  0.00  0.00    -0.205 F 
ATOM     22  C   UNL     1       2.836  -0.482  23.063  0.00  0.00    +0.121 A 
ATOM     23  C   UNL     1       3.406   0.726  22.660  0.00  0.00    +0.048 A 
ATOM     24  C   UNL     1       3.616  -1.440  23.710  0.00  0.00    +0.048 A 
ATOM     25  C   UNL     1       4.757   0.975  22.903  0.00  0.00    +0.042 A 
ATOM     26  C   UNL     1       4.966  -1.191  23.954  0.00  0.00    +0.042 A 
ATOM     27  C   UNL     1       5.537   0.016  23.551  0.00  0.00    +0.124 A 
ENDBRANCH   4  22
ENDBRANCH  21   4
ENDBRANCH  20  21
ENDBRANCH  14  19
TORSDOF 8
ENDMDL
MODEL 5
REMARK VINA RESULT:      -3.7      2.200      3.706
REMARK  Name = 45784127
REMARK  11 active torsions:
REMARK  status: ('A' for Active; 'I' for Inactive)
REMARK    1  A    between atoms: O_2  and  C_15
REMARK    2  A    between atoms: O_4  and  C_21
REMARK    3  A    between atoms: O_4  and  C_22
REMARK    4  A    between atoms: C_7  and  C_11
REMARK    5  A    between atoms: C_9  and  C_15
REMARK    6  A    between atoms: C_10  and  C_14
REMARK    7  A    between atoms: C_11  and  C_16
REMARK    8  A    between atoms: C_11  and  C_17
REMARK    9  A    between atoms: C_12  and  C_18
REMARK   10  A    between atoms: C_14  and  C_19
REMARK   11  A    between atoms: C_20  and  C_21
REMARK                            x       y       z     vdW  Elec       q    Type
REMARK                         _______ _______ _______ _____ _____    ______ ____
ROOT
ATOM     14  C   UNL     1      -2.596   2.836  24.213  0.00  0.00    +0.105 C 
ENDROOT
BRANCH  14  10
ATOM      7  C   UNL     1      -2.709  -0.294  24.946  0.00  0.00    +0.001 C 
ATOM      8  C   UNL     1      -2.555   0.921  25.873  0.00  0.00    +0.012 C 
ATOM      9  C   UNL     1      -4.202  -0.687  24.814  0.00  0.00    +0.040 C 
ATOM     10  C   UNL     1      -3.338   2.145  25.363  0.00  0.00    +0.024 C 
ATOM     12  C   UNL     1      -4.751   1.780  24.955  0.00  0.00    -0.073 C 
ATOM     13  C   UNL     1      -5.122   0.508  24.727  0.00  0.00    -0.022 C 
ATOM     18  C   UNL     1      -5.741   2.908  24.861  0.00  0.00    +0.039 C 
BRANCH   7  11
ATOM     11  C   UNL     1      -1.860  -1.457  25.469  0.00  0.00    -0.013 C 
ATOM     16  C   UNL     1      -0.733  -0.935  26.356  0.00  0.00    +0.007 C 
ATOM     17  C   UNL     1      -1.299  -2.271  24.306  0.00  0.00    +0.007 C 
ENDBRANCH   7  11
BRANCH   9  15
ATOM     15  C   UNL     1      -4.429  -1.595  23.599  0.00  0.00    +0.163 C 
BRANCH  15   2
ATOM      2  O   UNL     1      -4.421  -2.938  24.042  0.00  0.00    -0.394 OA
ATOM     28  H   UNL     1      -3.897  -3.449  23.401  0.00  0.00    +0.209 HD
ENDBRANCH  15   2
ENDBRANCH   9  15
ENDBRANCH  14  10
BRANCH  14  19
ATOM      3  O   UNL     1      -1.050   1.195  23.280  0.00  0.00    -0.421 OA
ATOM      5  N   UNL     1      -0.076   2.741  24.571  0.00  0.00    -0.112 NA
ATOM      6  N   UNL     1       0.908   1.884  24.113  0.00  0.00    -0.109 NA
ATOM     19  C   UNL     1      -1.202   2.300  24.060  0.00  0.00    +0.218 A 
ATOM     20  C   UNL     1       0.294   0.998  23.364  0.00  0.00    +0.254 A 
BRANCH  20  21
ATOM     21  C   UNL     1       0.845  -0.144  22.623  0.00  0.00    +0.326 C 
BRANCH  21   4
ATOM      4  O   UNL     1       2.075   0.222  21.993  0.00  0.00    -0.483 OA
BRANCH   4  22
ATOM      1  F   UNL     1       6.677  -0.833  24.807  0.00  0.00    -0.205 F 
ATOM     22  C   UNL     1       3.219  -0.040  22.693  0.00  0.00    +0.121 A 
ATOM     23  C   UNL     1       4.194   0.948  22.831  0.00  0.00    +0.048 A 
ATOM     24  C   UNL     1       3.413  -1.296  23.268  0.00  0.00    +0.048 A 
ATOM     25  C   UNL     1       5.362   0.681  23.545  0.00  0.00    +0.042 A 
ATOM     26  C   UNL     1       4.580  -1.563  23.983  0.00  0.00    +0.042 A 
ATOM     27  C   UNL     1       5.555  -0.575  24.121  0.00  0.00    +0.124 A 
ENDBRANCH   4  22
ENDBRANCH  21   4
ENDBRANCH  20  21
ENDBRANCH  14  19
TORSDOF 8
ENDMDL
MODEL 6
REMARK VINA RESULT:      -3.7      3.536      7.452
REMARK  Name = 45784127
REMARK  11 active torsions:
REMARK  status: ('A' for Active; 'I' for Inactive)
REMARK    1  A    between atoms: O_2  and  C_15
REMARK    2  A    between atoms: O_4  and  C_21
REMARK    3  A    between atoms: O_4  and  C_22
REMARK    4  A    between atoms: C_7  and  C_11
REMARK    5  A    between atoms: C_9  and  C_15
REMARK    6  A    between atoms: C_10  and  C_14
REMARK    7  A    between atoms: C_11  and  C_16
REMARK    8  A    between atoms: C_11  and  C_17
REMARK    9  A    between atoms: C_12  and  C_18
REMARK   10  A    between atoms: C_14  and  C_19
REMARK   11  A    between atoms: C_20  and  C_21
REMARK                            x       y       z     vdW  Elec       q    Type
REMARK                         _______ _______ _______ _____ _____    ______ ____
ROOT
ATOM     14  C   UNL     1       0.476   2.038  24.574  0.00  0.00    +0.105 C 
ENDROOT
BRANCH  14  10
ATOM      7  C   UNL     1      -1.724  -0.307  24.652  0.00  0.00    +0.001 C 
ATOM      8  C   UNL     1      -1.576   0.861  23.666  0.00  0.00    +0.012 C 
ATOM      9  C   UNL     1      -0.995  -1.564  24.117  0.00  0.00    +0.040 C 
ATOM     10  C   UNL     1      -0.101   1.224  23.410  0.00  0.00    +0.024 C 
ATOM     12  C   UNL     1       0.742  -0.005  23.138  0.00  0.00    -0.073 C 
ATOM     13  C   UNL     1       0.321  -1.243  23.448  0.00  0.00    -0.022 C 
ATOM     18  C   UNL     1       2.064   0.220  22.457  0.00  0.00    +0.039 C 
BRANCH   7  11
ATOM     11  C   UNL     1      -3.209  -0.580  24.915  0.00  0.00    -0.013 C 
ATOM     16  C   UNL     1      -3.407  -1.122  26.328  0.00  0.00    +0.007 C 
ATOM     17  C   UNL     1      -3.762  -1.554  23.879  0.00  0.00    +0.007 C 
ENDBRANCH   7  11
BRANCH   9  15
ATOM     15  C   UNL     1      -0.762  -2.587  25.235  0.00  0.00    +0.163 C 
BRANCH  15   2
ATOM      2  O   UNL     1       0.287  -2.115  26.057  0.00  0.00    -0.394 OA
ATOM     28  H   UNL     1       0.701  -2.892  26.470  0.00  0.00    +0.209 HD
ENDBRANCH  15   2
ENDBRANCH   9  15
ENDBRANCH  14  10
BRANCH  14  19
ATOM      3  O   UNL     1      -1.322   3.123  25.816  0.00  0.00    -0.421 OA
ATOM      5  N   UNL     1      -0.309   4.449  24.327  0.00  0.00    -0.112 NA
ATOM      6  N   UNL     1      -1.297   5.186  24.952  0.00  0.00    -0.109 NA
ATOM     19  C   UNL     1      -0.360   3.252  24.862  0.00  0.00    +0.218 A 
ATOM     20  C   UNL     1      -1.862   4.372  25.814  0.00  0.00    +0.254 A 
BRANCH  20  21
ATOM     21  C   UNL     1      -2.965   4.620  26.751  0.00  0.00    +0.326 C 
BRANCH  21   4
ATOM      4  O   UNL     1      -4.196   4.767  26.039  0.00  0.00    -0.483 OA
BRANCH   4  22
ATOM      1  F   UNL     1      -6.531   0.142  24.202  0.00  0.00    -0.205 F 
ATOM     22  C   UNL     1      -4.777   3.616  25.582  0.00  0.00    +0.121 A 
ATOM     23  C   UNL     1      -4.437   3.115  24.325  0.00  0.00    +0.048 A 
ATOM     24  C   UNL     1      -5.709   2.945  26.372  0.00  0.00    +0.048 A 
ATOM     25  C   UNL     1      -5.029   1.942  23.859  0.00  0.00    +0.042 A 
ATOM     26  C   UNL     1      -6.301   1.771  25.906  0.00  0.00    +0.042 A 
ATOM     27  C   UNL     1      -5.962   1.270  24.649  0.00  0.00    +0.124 A 
ENDBRANCH   4  22
ENDBRANCH  21   4
ENDBRANCH  20  21
ENDBRANCH  14  19
TORSDOF 8
ENDMDL
MODEL 7
REMARK VINA RESULT:      -3.4      2.252      3.622
REMARK  Name = 45784127
REMARK  11 active torsions:
REMARK  status: ('A' for Active; 'I' for Inactive)
REMARK    1  A    between atoms: O_2  and  C_15
REMARK    2  A    between atoms: O_4  and  C_21
REMARK    3  A    between atoms: O_4  and  C_22
REMARK    4  A    between atoms: C_7  and  C_11
REMARK    5  A    between atoms: C_9  and  C_15
REMARK    6  A    between atoms: C_10  and  C_14
REMARK    7  A    between atoms: C_11  and  C_16
REMARK    8  A    between atoms: C_11  and  C_17
REMARK    9  A    between atoms: C_12  and  C_18
REMARK   10  A    between atoms: C_14  and  C_19
REMARK   11  A    between atoms: C_20  and  C_21
REMARK                            x       y       z     vdW  Elec       q    Type
REMARK                         _______ _______ _______ _____ _____    ______ ____
ROOT
ATOM     14  C   UNL     1      -1.910   3.183  24.380  0.00  0.00    +0.105 C 
ENDROOT
BRANCH  14  10
ATOM      7  C   UNL     1      -3.912   0.735  24.970  0.00  0.00    +0.001 C 
ATOM      8  C   UNL     1      -2.761   1.285  25.827  0.00  0.00    +0.012 C 
ATOM      9  C   UNL     1      -5.252   1.398  25.375  0.00  0.00    +0.040 C 
ATOM     10  C   UNL     1      -2.612   2.812  25.691  0.00  0.00    +0.024 C 
ATOM     12  C   UNL     1      -3.945   3.521  25.812  0.00  0.00    -0.073 C 
ATOM     13  C   UNL     1      -5.115   2.871  25.681  0.00  0.00    -0.022 C 
ATOM     18  C   UNL     1      -3.903   4.990  26.133  0.00  0.00    +0.039 C 
BRANCH   7  11
ATOM     11  C   UNL     1      -3.971  -0.790  25.097  0.00  0.00    -0.013 C 
ATOM     16  C   UNL     1      -2.779  -1.303  25.899  0.00  0.00    +0.007 C 
ATOM     17  C   UNL     1      -4.011  -1.438  23.716  0.00  0.00    +0.007 C 
ENDBRANCH   7  11
BRANCH   9  15
ATOM     15  C   UNL     1      -6.317   1.200  24.290  0.00  0.00    +0.163 C 
BRANCH  15   2
ATOM      2  O   UNL     1      -7.455   1.962  24.642  0.00  0.00    -0.394 OA
ATOM     28  H   UNL     1      -7.246   2.425  25.472  0.00  0.00    +0.209 HD
ENDBRANCH  15   2
ENDBRANCH   9  15
ENDBRANCH  14  10
BRANCH  14  19
ATOM      3  O   UNL     1      -0.737   1.358  23.263  0.00  0.00    -0.421 OA
ATOM      5  N   UNL     1       0.510   2.476  24.745  0.00  0.00    -0.112 NA
ATOM      6  N   UNL     1       1.293   1.479  24.193  0.00  0.00    -0.109 NA
ATOM     19  C   UNL     1      -0.666   2.367  24.174  0.00  0.00    +0.218 A 
ATOM     20  C   UNL     1       0.524   0.852  23.334  0.00  0.00    +0.254 A 
BRANCH  20  21
ATOM     21  C   UNL     1       0.832  -0.287  22.460  0.00  0.00    +0.326 C 
BRANCH  21   4
ATOM      4  O   UNL     1       2.076  -0.075  21.788  0.00  0.00    -0.483 OA
BRANCH   4  22
ATOM      1  F   UNL     1       6.623  -0.583  24.835  0.00  0.00    -0.205 F 
ATOM     22  C   UNL     1       3.207  -0.201  22.546  0.00  0.00    +0.121 A 
ATOM     23  C   UNL     1       3.480  -1.405  23.196  0.00  0.00    +0.048 A 
ATOM     24  C   UNL     1       4.087   0.873  22.669  0.00  0.00    +0.048 A 
ATOM     25  C   UNL     1       4.633  -1.534  23.970  0.00  0.00    +0.042 A 
ATOM     26  C   UNL     1       5.241   0.744  23.442  0.00  0.00    +0.042 A 
ATOM     27  C   UNL     1       5.514  -0.459  24.092  0.00  0.00    +0.124 A 
ENDBRANCH   4  22
ENDBRANCH  21   4
ENDBRANCH  20  21
ENDBRANCH  14  19
TORSDOF 8
ENDMDL
MODEL 8
REMARK VINA RESULT:      -2.4      3.138      5.340
REMARK  Name = 45784127
REMARK  11 active torsions:
REMARK  status: ('A' for Active; 'I' for Inactive)
REMARK    1  A    between atoms: O_2  and  C_15
REMARK    2  A    between atoms: O_4  and  C_21
REMARK    3  A    between atoms: O_4  and  C_22
REMARK    4  A    between atoms: C_7  and  C_11
REMARK    5  A    between atoms: C_9  and  C_15
REMARK    6  A    between atoms: C_10  and  C_14
REMARK    7  A    between atoms: C_11  and  C_16
REMARK    8  A    between atoms: C_11  and  C_17
REMARK    9  A    between atoms: C_12  and  C_18
REMARK   10  A    between atoms: C_14  and  C_19
REMARK   11  A    between atoms: C_20  and  C_21
REMARK                            x       y       z     vdW  Elec       q    Type
REMARK                         _______ _______ _______ _____ _____    ______ ____
ROOT
ATOM     14  C   UNL     1      -5.605   0.837  25.120  0.00  0.00    +0.105 C 
ENDROOT
BRANCH  14  10
ATOM      7  C   UNL     1      -3.285  -1.375  24.854  0.00  0.00    +0.001 C 
ATOM      8  C   UNL     1      -4.458  -1.072  23.911  0.00  0.00    +0.012 C 
ATOM      9  C   UNL     1      -2.024  -0.588  24.420  0.00  0.00    +0.040 C 
ATOM     10  C   UNL     1      -4.807   0.427  23.877  0.00  0.00    +0.024 C 
ATOM     12  C   UNL     1      -3.571   1.289  23.719  0.00  0.00    -0.073 C 
ATOM     13  C   UNL     1      -2.334   0.815  23.953  0.00  0.00    -0.022 C 
ATOM     18  C   UNL     1      -3.785   2.699  23.241  0.00  0.00    +0.039 C 
BRANCH   7  11
ATOM     11  C   UNL     1      -3.027  -2.885  24.895  0.00  0.00    -0.013 C 
ATOM     16  C   UNL     1      -1.687  -3.212  24.241  0.00  0.00    +0.007 C 
ATOM     17  C   UNL     1      -4.162  -3.637  24.207  0.00  0.00    +0.007 C 
ENDBRANCH   7  11
BRANCH   9  15
ATOM     15  C   UNL     1      -0.989  -0.532  25.550  0.00  0.00    +0.163 C 
BRANCH  15   2
ATOM      2  O   UNL     1       0.243  -1.007  25.046  0.00  0.00    -0.394 OA
ATOM     28  H   UNL     1       0.858  -1.067  25.798  0.00  0.00    +0.209 HD
ENDBRANCH  15   2
ENDBRANCH   9  15
ENDBRANCH  14  10
BRANCH  14  19
ATOM      3  O   UNL     1      -4.178   2.573  26.069  0.00  0.00    -0.421 OA
ATOM      5  N   UNL     1      -6.141   3.321  25.300  0.00  0.00    -0.112 NA
ATOM      6  N   UNL     1      -5.440   4.400  25.804  0.00  0.00    -0.109 NA
ATOM     19  C   UNL     1      -5.366   2.275  25.476  0.00  0.00    +0.218 A 
ATOM     20  C   UNL     1      -4.301   3.917  26.242  0.00  0.00    +0.254 A 
BRANCH  20  21
ATOM     21  C   UNL     1      -3.171   4.611  26.873  0.00  0.00    +0.326 C 
BRANCH  21   4
ATOM      4  O   UNL     1      -2.284   5.122  25.876  0.00  0.00    -0.483 OA
BRANCH   4  22
ATOM      1  F   UNL     1       1.505   1.635  23.951  0.00  0.00    -0.205 F 
ATOM     22  C   UNL     1      -1.341   4.255  25.397  0.00  0.00    +0.121 A 
ATOM     23  C   UNL     1      -0.877   4.382  24.088  0.00  0.00    +0.048 A 
ATOM     24  C   UNL     1      -0.844   3.243  26.217  0.00  0.00    +0.048 A 
ATOM     25  C   UNL     1       0.083   3.498  23.598  0.00  0.00    +0.042 A 
ATOM     26  C   UNL     1       0.118   2.358  25.729  0.00  0.00    +0.042 A 
ATOM     27  C   UNL     1       0.581   2.485  24.420  0.00  0.00    +0.124 A 
ENDBRANCH   4  22
ENDBRANCH  21   4
ENDBRANCH  20  21
ENDBRANCH  14  19
TORSDOF 8
ENDMDL
MODEL 9
REMARK VINA RESULT:      -1.8      2.820      6.161
REMARK  Name = 45784127
REMARK  11 active torsions:
REMARK  status: ('A' for Active; 'I' for Inactive)
REMARK    1  A    between atoms: O_2  and  C_15
REMARK    2  A    between atoms: O_4  and  C_21
REMARK    3  A    between atoms: O_4  and  C_22
REMARK    4  A    between atoms: C_7  and  C_11
REMARK    5  A    between atoms: C_9  and  C_15
REMARK    6  A    between atoms: C_10  and  C_14
REMARK    7  A    between atoms: C_11  and  C_16
REMARK    8  A    between atoms: C_11  and  C_17
REMARK    9  A    between atoms: C_12  and  C_18
REMARK   10  A    between atoms: C_14  and  C_19
REMARK   11  A    between atoms: C_20  and  C_21
REMARK                            x       y       z     vdW  Elec       q    Type
REMARK                         _______ _______ _______ _____ _____    ______ ____
ROOT
ATOM     14  C   UNL     1      -2.655  -1.967  25.312  0.00  0.00    +0.105 C 
ENDROOT
BRANCH  14  10
ATOM      7  C   UNL     1      -1.198   0.573  23.980  0.00  0.00    +0.001 C 
ATOM      8  C   UNL     1      -1.498   0.283  25.458  0.00  0.00    +0.012 C 
ATOM      9  C   UNL     1       0.221   0.076  23.608  0.00  0.00    +0.040 C 
ATOM     10  C   UNL     1      -1.405  -1.219  25.788  0.00  0.00    +0.024 C 
ATOM     12  C   UNL     1      -0.148  -1.844  25.217  0.00  0.00    -0.073 C 
ATOM     13  C   UNL     1       0.573  -1.245  24.253  0.00  0.00    -0.022 C 
ATOM     18  C   UNL     1       0.287  -3.154  25.813  0.00  0.00    +0.039 C 
BRANCH   7  11
ATOM     11  C   UNL     1      -1.369   2.069  23.699  0.00  0.00    -0.013 C 
ATOM     16  C   UNL     1      -2.034   2.282  22.342  0.00  0.00    +0.007 C 
ATOM     17  C   UNL     1      -0.019   2.778  23.757  0.00  0.00    +0.007 C 
ENDBRANCH   7  11
BRANCH   9  15
ATOM     15  C   UNL     1       0.387  -0.038  22.088  0.00  0.00    +0.163 C 
BRANCH  15   2
ATOM      2  O   UNL     1       1.763   0.078  21.783  0.00  0.00    -0.394 OA
ATOM     28  H   UNL     1       1.834   0.214  20.822  0.00  0.00    +0.209 HD
ENDBRANCH  15   2
ENDBRANCH   9  15
ENDBRANCH  14  10
BRANCH  14  19
ATOM      3  O   UNL     1      -4.183  -0.157  25.894  0.00  0.00    -0.421 OA
ATOM      5  N   UNL     1      -4.376  -0.874  23.784  0.00  0.00    -0.112 NA
ATOM      6  N   UNL     1      -5.292   0.143  23.975  0.00  0.00    -0.109 NA
ATOM     19  C   UNL     1      -3.752  -1.016  24.930  0.00  0.00    +0.218 A 
ATOM     20  C   UNL     1      -5.145   0.532  25.220  0.00  0.00    +0.254 A 
BRANCH  20  21
ATOM     21  C   UNL     1      -5.854   1.581  25.963  0.00  0.00    +0.326 C 
BRANCH  21   4
ATOM      4  O   UNL     1      -5.836   2.807  25.229  0.00  0.00    -0.483 OA
BRANCH   4  22
ATOM      1  F   UNL     1      -1.111   5.616  25.267  0.00  0.00    -0.205 F 
ATOM     22  C   UNL     1      -4.660   3.506  25.238  0.00  0.00    +0.121 A 
ATOM     23  C   UNL     1      -3.824   3.449  26.354  0.00  0.00    +0.048 A 
ATOM     24  C   UNL     1      -4.298   4.274  24.133  0.00  0.00    +0.048 A 
ATOM     25  C   UNL     1      -2.626   4.162  26.364  0.00  0.00    +0.042 A 
ATOM     26  C   UNL     1      -3.099   4.987  24.143  0.00  0.00    +0.042 A 
ATOM     27  C   UNL     1      -2.263   4.931  25.258  0.00  0.00    +0.124 A 
ENDBRANCH   4  22
ENDBRANCH  21   4
ENDBRANCH  20  21
ENDBRANCH  14  19
TORSDOF 8
ENDMDL
MODEL 10
REMARK VINA RESULT:      -1.6      2.842      5.890
REMARK  Name = 45784127
REMARK  11 active torsions:
REMARK  status: ('A' for Active; 'I' for Inactive)
REMARK    1  A    between atoms: O_2  and  C_15
REMARK    2  A    between atoms: O_4  and  C_21
REMARK    3  A    between atoms: O_4  and  C_22
REMARK    4  A    between atoms: C_7  and  C_11
REMARK    5  A    between atoms: C_9  and  C_15
REMARK    6  A    between atoms: C_10  and  C_14
REMARK    7  A    between atoms: C_11  and  C_16
REMARK    8  A    between atoms: C_11  and  C_17
REMARK    9  A    between atoms: C_12  and  C_18
REMARK   10  A    between atoms: C_14  and  C_19
REMARK   11  A    between atoms: C_20  and  C_21
REMARK                            x       y       z     vdW  Elec       q    Type
REMARK                         _______ _______ _______ _____ _____    ______ ____
ROOT
ATOM     14  C   UNL     1      -4.261  -0.423  24.349  0.00  0.00    +0.105 C 
ENDROOT
BRANCH  14  10
ATOM      7  C   UNL     1      -1.151   0.204  24.878  0.00  0.00    +0.001 C 
ATOM      8  C   UNL     1      -2.248  -0.205  25.873  0.00  0.00    +0.012 C 
ATOM      9  C   UNL     1      -0.393  -1.046  24.365  0.00  0.00    +0.040 C 
ATOM     10  C   UNL     1      -3.270  -1.172  25.248  0.00  0.00    +0.024 C 
ATOM     12  C   UNL     1      -2.591  -2.295  24.489  0.00  0.00    -0.073 C 
ATOM     13  C   UNL     1      -1.302  -2.227  24.115  0.00  0.00    -0.022 C 
ATOM     18  C   UNL     1      -3.419  -3.519  24.211  0.00  0.00    +0.039 C 
BRANCH   7  11
ATOM     11  C   UNL     1      -0.203   1.212  25.535  0.00  0.00    -0.013 C 
ATOM     16  C   UNL     1      -0.981   2.151  26.454  0.00  0.00    +0.007 C 
ATOM     17  C   UNL     1       0.554   2.002  24.472  0.00  0.00    +0.007 C 
ENDBRANCH   7  11
BRANCH   9  15
ATOM     15  C   UNL     1       0.396  -0.730  23.089  0.00  0.00    +0.163 C 
BRANCH  15   2
ATOM      2  O   UNL     1       1.772  -0.709  23.413  0.00  0.00    -0.394 OA
ATOM     28  H   UNL     1       1.950   0.138  23.857  0.00  0.00    +0.209 HD
ENDBRANCH  15   2
ENDBRANCH   9  15
ENDBRANCH  14  10
BRANCH  14  19
ATOM      3  O   UNL     1      -4.697   1.956  24.667  0.00  0.00    -0.421 OA
ATOM      5  N   UNL     1      -5.765   0.628  26.116  0.00  0.00    -0.112 NA
ATOM      6  N   UNL     1      -6.100   1.937  26.408  0.00  0.00    -0.109 NA
ATOM     19  C   UNL     1      -4.944   0.687  25.093  0.00  0.00    +0.218 A 
ATOM     20  C   UNL     1      -5.455   2.677  25.538  0.00  0.00    +0.254 A 
BRANCH  20  21
ATOM     21  C   UNL     1      -5.440   4.137  25.378  0.00  0.00    +0.326 C 
BRANCH  21   4
ATOM      4  O   UNL     1      -4.275   4.691  25.993  0.00  0.00    -0.483 OA
BRANCH   4  22
ATOM      1  F   UNL     1       0.349   4.585  23.025  0.00  0.00    -0.205 F 
ATOM     22  C   UNL     1      -3.125   4.665  25.255  0.00  0.00    +0.121 A 
ATOM     23  C   UNL     1      -3.028   3.825  24.145  0.00  0.00    +0.048 A 
ATOM     24  C   UNL     1      -2.049   5.477  25.611  0.00  0.00    +0.048 A 
ATOM     25  C   UNL     1      -1.855   3.798  23.392  0.00  0.00    +0.042 A 
ATOM     26  C   UNL     1      -0.876   5.450  24.858  0.00  0.00    +0.042 A 
ATOM     27  C   UNL     1      -0.778   4.611  23.748  0.00  0.00    +0.124 A 
ENDBRANCH   4  22
ENDBRANCH  21   4
ENDBRANCH  20  21
ENDBRANCH  14  19
TORSDOF 8
ENDMDL
