MODEL 1
REMARK VINA RESULT:      -6.5      0.000      0.000
REMARK  Name = 75536908
REMARK  3 active torsions:
REMARK  status: ('A' for Active; 'I' for Inactive)
REMARK    1  A    between atoms: O_3  and  C_15
REMARK    2  A    between atoms: O_3  and  C_18
REMARK    3  A    between atoms: C_7  and  C_12
REMARK                            x       y       z     vdW  Elec       q    Type
REMARK                         _______ _______ _______ _____ _____    ______ ____
ROOT
ATOM      1  O   UNL     1       0.023   3.257  24.401  0.00  0.00    -0.375 OA
ATOM      2  O   UNL     1      -0.500  -1.573  25.116  0.00  0.00    -0.275 OA
ATOM      4  N   UNL     1      -1.344   0.420  24.248  0.00  0.00    -0.295 N 
ATOM     12  C   UNL     1      -1.453  -0.825  24.884  0.00  0.00    +0.219 C 
ATOM     13  C   UNL     1      -2.507   1.273  23.978  0.00  0.00    +0.154 C 
ATOM     14  C   UNL     1      -0.021   0.882  23.820  0.00  0.00    +0.136 C 
ATOM     15  C   UNL     1      -2.231   2.736  23.619  0.00  0.00    +0.218 C 
ATOM     16  C   UNL     1       0.512   1.966  24.748  0.00  0.00    +0.179 C 
ATOM     17  C   UNL     1      -1.364   3.452  24.650  0.00  0.00    +0.206 C 
ENDROOT
BRANCH  12   7
ATOM      7  C   UNL     1      -2.829  -1.240  25.306  0.00  0.00    +0.075 C 
ATOM      8  C   UNL     1      -2.891  -2.760  25.495  0.00  0.00    +0.013 C 
ATOM      9  C   UNL     1      -3.851  -0.901  24.221  0.00  0.00    +0.013 C 
ATOM     10  C   UNL     1      -4.017  -3.246  24.588  0.00  0.00    +0.001 C 
ATOM     11  C   UNL     1      -4.072  -2.211  23.478  0.00  0.00    +0.001 C 
ENDBRANCH  12   7
BRANCH  15   3
ATOM      3  O   UNL     1      -3.487   3.414  23.560  0.00  0.00    -0.468 OA
BRANCH   3  18
ATOM      5  N   UNL     1      -5.276   2.035  24.110  0.00  0.00    -0.219 NA
ATOM      6  N   UNL     1      -5.427   3.280  26.618  0.00  0.00    -0.256 NA
ATOM     18  C   UNL     1      -4.434   3.024  24.466  0.00  0.00    +0.234 A 
ATOM     19  C   UNL     1      -4.508   3.636  25.699  0.00  0.00    +0.177 A 
ATOM     20  C   UNL     1      -6.195   1.678  25.029  0.00  0.00    +0.134 A 
ATOM     21  C   UNL     1      -6.269   2.290  26.261  0.00  0.00    +0.130 A 
ENDBRANCH   3  18
ENDBRANCH  15   3
TORSDOF 3
ENDMDL
MODEL 2
REMARK VINA RESULT:      -4.4      1.953      5.315
REMARK  Name = 75536908
REMARK  3 active torsions:
REMARK  status: ('A' for Active; 'I' for Inactive)
REMARK    1  A    between atoms: O_3  and  C_15
REMARK    2  A    between atoms: O_3  and  C_18
REMARK    3  A    between atoms: C_7  and  C_12
REMARK                            x       y       z     vdW  Elec       q    Type
REMARK                         _______ _______ _______ _____ _____    ______ ____
ROOT
ATOM      1  O   UNL     1      -5.687   1.859  25.396  0.00  0.00    -0.375 OA
ATOM      2  O   UNL     1      -2.265   5.331  25.982  0.00  0.00    -0.275 OA
ATOM      4  N   UNL     1      -3.116   3.558  24.729  0.00  0.00    -0.295 N 
ATOM     12  C   UNL     1      -2.085   4.327  25.289  0.00  0.00    +0.219 C 
ATOM     13  C   UNL     1      -2.859   2.378  23.897  0.00  0.00    +0.154 C 
ATOM     14  C   UNL     1      -4.506   3.957  24.970  0.00  0.00    +0.136 C 
ATOM     15  C   UNL     1      -4.034   1.427  23.651  0.00  0.00    +0.218 C 
ATOM     16  C   UNL     1      -5.173   3.045  25.991  0.00  0.00    +0.179 C 
ATOM     17  C   UNL     1      -4.694   0.947  24.940  0.00  0.00    +0.206 C 
ENDROOT
BRANCH  12   7
ATOM      7  C   UNL     1      -0.686   3.866  25.015  0.00  0.00    +0.075 C 
ATOM      8  C   UNL     1      -0.673   2.870  23.850  0.00  0.00    +0.013 C 
ATOM      9  C   UNL     1      -0.119   3.120  26.223  0.00  0.00    +0.013 C 
ATOM     10  C   UNL     1      -0.005   1.609  24.389  0.00  0.00    +0.001 C 
ATOM     11  C   UNL     1      -0.289   1.647  25.881  0.00  0.00    +0.001 C 
ENDBRANCH  12   7
BRANCH  15   3
ATOM      3  O   UNL     1      -3.529   0.280  22.966  0.00  0.00    -0.468 OA
BRANCH   3  18
ATOM      5  N   UNL     1      -2.134  -0.867  24.430  0.00  0.00    -0.219 NA
ATOM      6  N   UNL     1      -3.991  -2.967  24.509  0.00  0.00    -0.256 NA
ATOM     18  C   UNL     1      -3.285  -0.828  23.730  0.00  0.00    +0.234 A 
ATOM     19  C   UNL     1      -4.197  -1.860  23.768  0.00  0.00    +0.177 A 
ATOM     20  C   UNL     1      -1.928  -1.974  25.171  0.00  0.00    +0.134 A 
ATOM     21  C   UNL     1      -2.840  -3.006  25.209  0.00  0.00    +0.130 A 
ENDBRANCH   3  18
ENDBRANCH  15   3
TORSDOF 3
ENDMDL
MODEL 3
REMARK VINA RESULT:      -4.3      1.973      4.912
REMARK  Name = 75536908
REMARK  3 active torsions:
REMARK  status: ('A' for Active; 'I' for Inactive)
REMARK    1  A    between atoms: O_3  and  C_15
REMARK    2  A    between atoms: O_3  and  C_18
REMARK    3  A    between atoms: C_7  and  C_12
REMARK                            x       y       z     vdW  Elec       q    Type
REMARK                         _______ _______ _______ _____ _____    ______ ____
ROOT
ATOM      1  O   UNL     1      -5.887   3.614  25.647  0.00  0.00    -0.375 OA
ATOM      2  O   UNL     1      -1.053   4.177  24.995  0.00  0.00    -0.275 OA
ATOM      4  N   UNL     1      -2.979   2.907  24.654  0.00  0.00    -0.295 N 
ATOM     12  C   UNL     1      -1.613   3.080  24.922  0.00  0.00    +0.219 C 
ATOM     13  C   UNL     1      -3.604   1.583  24.562  0.00  0.00    +0.154 C 
ATOM     14  C   UNL     1      -3.814   4.093  24.442  0.00  0.00    +0.136 C 
ATOM     15  C   UNL     1      -5.133   1.526  24.628  0.00  0.00    +0.218 C 
ATOM     16  C   UNL     1      -4.686   4.378  25.657  0.00  0.00    +0.179 C 
ATOM     17  C   UNL     1      -5.703   2.219  25.862  0.00  0.00    +0.206 C 
ENDROOT
BRANCH  12   7
ATOM      7  C   UNL     1      -0.813   1.833  25.138  0.00  0.00    +0.075 C 
ATOM      8  C   UNL     1       0.685   2.133  25.003  0.00  0.00    +0.013 C 
ATOM      9  C   UNL     1      -1.140   0.791  24.068  0.00  0.00    +0.013 C 
ATOM     10  C   UNL     1       1.203   1.182  23.928  0.00  0.00    +0.001 C 
ATOM     11  C   UNL     1      -0.010   0.912  23.055  0.00  0.00    +0.001 C 
ENDBRANCH  12   7
BRANCH  15   3
ATOM      3  O   UNL     1      -5.515   0.151  24.685  0.00  0.00    -0.468 OA
BRANCH   3  18
ATOM      5  N   UNL     1      -3.761  -0.734  25.928  0.00  0.00    -0.219 NA
ATOM      6  N   UNL     1      -3.271  -2.577  23.872  0.00  0.00    -0.256 NA
ATOM     18  C   UNL     1      -4.501  -0.760  24.803  0.00  0.00    +0.234 A 
ATOM     19  C   UNL     1      -4.261  -1.665  23.793  0.00  0.00    +0.177 A 
ATOM     20  C   UNL     1      -2.771  -1.645  26.009  0.00  0.00    +0.134 A 
ATOM     21  C   UNL     1      -2.531  -2.550  24.998  0.00  0.00    +0.130 A 
ENDBRANCH   3  18
ENDBRANCH  15   3
TORSDOF 3
ENDMDL
MODEL 4
REMARK VINA RESULT:      -4.2     16.970     19.175
REMARK  Name = 75536908
REMARK  3 active torsions:
REMARK  status: ('A' for Active; 'I' for Inactive)
REMARK    1  A    between atoms: O_3  and  C_15
REMARK    2  A    between atoms: O_3  and  C_18
REMARK    3  A    between atoms: C_7  and  C_12
REMARK                            x       y       z     vdW  Elec       q    Type
REMARK                         _______ _______ _______ _____ _____    ______ ____
ROOT
ATOM      1  O   UNL     1      11.718  -5.465  32.218  0.00  0.00    -0.375 OA
ATOM      2  O   UNL     1      15.543  -7.701  30.100  0.00  0.00    -0.275 OA
ATOM      4  N   UNL     1      13.315  -7.776  30.787  0.00  0.00    -0.295 N 
ATOM     12  C   UNL     1      14.593  -8.320  30.586  0.00  0.00    +0.219 C 
ATOM     13  C   UNL     1      12.208  -8.552  31.354  0.00  0.00    +0.154 C 
ATOM     14  C   UNL     1      13.071  -6.384  30.400  0.00  0.00    +0.136 C 
ATOM     15  C   UNL     1      10.991  -7.769  31.856  0.00  0.00    +0.218 C 
ATOM     16  C   UNL     1      13.010  -5.475  31.620  0.00  0.00    +0.179 C 
ATOM     17  C   UNL     1      11.355  -6.681  32.862  0.00  0.00    +0.206 C 
ENDROOT
BRANCH  12   7
ATOM      7  C   UNL     1      14.785  -9.744  31.008  0.00  0.00    +0.075 C 
ATOM      8  C   UNL     1      15.799  -9.826  32.154  0.00  0.00    +0.013 C 
ATOM      9  C   UNL     1      15.366 -10.572  29.861  0.00  0.00    +0.013 C 
ATOM     10  C   UNL     1      16.889 -10.781  31.677  0.00  0.00    +0.001 C 
ATOM     11  C   UNL     1      16.855 -10.657  30.164  0.00  0.00    +0.001 C 
ENDBRANCH  12   7
BRANCH  15   3
ATOM      3  O   UNL     1      10.118  -8.692  32.508  0.00  0.00    -0.468 OA
BRANCH   3  18
ATOM      5  N   UNL     1       8.143  -7.522  32.873  0.00  0.00    -0.219 NA
ATOM      6  N   UNL     1       6.808  -9.300  31.165  0.00  0.00    -0.256 NA
ATOM     18  C   UNL     1       8.780  -8.541  32.266  0.00  0.00    +0.234 A 
ATOM     19  C   UNL     1       8.124  -9.415  31.427  0.00  0.00    +0.177 A 
ATOM     20  C   UNL     1       6.825  -7.405  32.611  0.00  0.00    +0.134 A 
ATOM     21  C   UNL     1       6.170  -8.279  31.772  0.00  0.00    +0.130 A 
ENDBRANCH   3  18
ENDBRANCH  15   3
TORSDOF 3
ENDMDL
MODEL 5
REMARK VINA RESULT:      -4.1     18.269     20.425
REMARK  Name = 75536908
REMARK  3 active torsions:
REMARK  status: ('A' for Active; 'I' for Inactive)
REMARK    1  A    between atoms: O_3  and  C_15
REMARK    2  A    between atoms: O_3  and  C_18
REMARK    3  A    between atoms: C_7  and  C_12
REMARK                            x       y       z     vdW  Elec       q    Type
REMARK                         _______ _______ _______ _____ _____    ______ ____
ROOT
ATOM      1  O   UNL     1      15.258  -6.147  32.063  0.00  0.00    -0.375 OA
ATOM      2  O   UNL     1      16.392  -6.854  27.338  0.00  0.00    -0.275 OA
ATOM      4  N   UNL     1      15.020  -7.349  29.158  0.00  0.00    -0.295 N 
ATOM     12  C   UNL     1      15.740  -7.668  27.997  0.00  0.00    +0.219 C 
ATOM     13  C   UNL     1      14.245  -8.345  29.905  0.00  0.00    +0.154 C 
ATOM     14  C   UNL     1      15.027  -5.964  29.635  0.00  0.00    +0.136 C 
ATOM     15  C   UNL     1      13.810  -7.971  31.325  0.00  0.00    +0.218 C 
ATOM     16  C   UNL     1      15.926  -5.804  30.854  0.00  0.00    +0.179 C 
ATOM     17  C   UNL     1      14.974  -7.534  32.210  0.00  0.00    +0.206 C 
ENDROOT
BRANCH  12   7
ATOM      7  C   UNL     1      15.703  -9.101  27.562  0.00  0.00    +0.075 C 
ATOM      8  C   UNL     1      17.119  -9.689  27.547  0.00  0.00    +0.013 C 
ATOM      9  C   UNL     1      15.176  -9.216  26.132  0.00  0.00    +0.013 C 
ATOM     10  C   UNL     1      17.333 -10.220  26.133  0.00  0.00    +0.001 C 
ATOM     11  C   UNL     1      16.423  -9.361  25.272  0.00  0.00    +0.001 C 
ENDBRANCH  12   7
BRANCH  15   3
ATOM      3  O   UNL     1      13.221  -9.128  31.919  0.00  0.00    -0.468 OA
BRANCH   3  18
ATOM      5  N   UNL     1      11.238  -7.998  32.355  0.00  0.00    -0.219 NA
ATOM      6  N   UNL     1       9.812 -10.352  31.819  0.00  0.00    -0.256 NA
ATOM     18  C   UNL     1      11.857  -9.142  32.006  0.00  0.00    +0.234 A 
ATOM     19  C   UNL     1      11.156 -10.299  31.743  0.00  0.00    +0.177 A 
ATOM     20  C   UNL     1       9.893  -8.050  32.431  0.00  0.00    +0.134 A 
ATOM     21  C   UNL     1       9.192  -9.207  32.167  0.00  0.00    +0.130 A 
ENDBRANCH   3  18
ENDBRANCH  15   3
TORSDOF 3
ENDMDL
MODEL 6
REMARK VINA RESULT:      -3.4      1.797      2.413
REMARK  Name = 75536908
REMARK  3 active torsions:
REMARK  status: ('A' for Active; 'I' for Inactive)
REMARK    1  A    between atoms: O_3  and  C_15
REMARK    2  A    between atoms: O_3  and  C_18
REMARK    3  A    between atoms: C_7  and  C_12
REMARK                            x       y       z     vdW  Elec       q    Type
REMARK                         _______ _______ _______ _____ _____    ______ ____
ROOT
ATOM      1  O   UNL     1      -1.205   5.341  25.221  0.00  0.00    -0.375 OA
ATOM      2  O   UNL     1       0.682   0.938  24.142  0.00  0.00    -0.275 OA
ATOM      4  N   UNL     1      -1.068   2.466  23.935  0.00  0.00    -0.295 N 
ATOM     12  C   UNL     1      -0.525   1.180  24.081  0.00  0.00    +0.219 C 
ATOM     13  C   UNL     1      -2.512   2.708  23.852  0.00  0.00    +0.154 C 
ATOM     14  C   UNL     1      -0.158   3.611  23.847  0.00  0.00    +0.136 C 
ATOM     15  C   UNL     1      -2.992   4.148  24.059  0.00  0.00    +0.218 C 
ATOM     16  C   UNL     1      -0.138   4.402  25.148  0.00  0.00    +0.179 C 
ATOM     17  C   UNL     1      -2.496   4.761  25.366  0.00  0.00    +0.206 C 
ENDROOT
BRANCH  12   7
ATOM      7  C   UNL     1      -1.504   0.050  24.174  0.00  0.00    +0.075 C 
ATOM      8  C   UNL     1      -2.133   0.006  25.572  0.00  0.00    +0.013 C 
ATOM      9  C   UNL     1      -0.798  -1.292  23.978  0.00  0.00    +0.013 C 
ATOM     10  C   UNL     1      -1.860  -1.397  26.105  0.00  0.00    +0.001 C 
ATOM     11  C   UNL     1      -0.592  -1.827  25.388  0.00  0.00    +0.001 C 
ENDBRANCH  12   7
BRANCH  15   3
ATOM      3  O   UNL     1      -4.419   4.130  24.100  0.00  0.00    -0.468 OA
BRANCH   3  18
ATOM      5  N   UNL     1      -5.637   3.421  25.948  0.00  0.00    -0.219 NA
ATOM      6  N   UNL     1      -5.468   0.783  25.012  0.00  0.00    -0.256 NA
ATOM     18  C   UNL     1      -4.996   3.110  24.805  0.00  0.00    +0.234 A 
ATOM     19  C   UNL     1      -4.912   1.814  24.345  0.00  0.00    +0.177 A 
ATOM     20  C   UNL     1      -6.193   2.391  26.616  0.00  0.00    +0.134 A 
ATOM     21  C   UNL     1      -6.110   1.095  26.156  0.00  0.00    +0.130 A 
ENDBRANCH   3  18
ENDBRANCH  15   3
TORSDOF 3
ENDMDL
MODEL 7
REMARK VINA RESULT:      -3.4     15.630     17.850
REMARK  Name = 75536908
REMARK  3 active torsions:
REMARK  status: ('A' for Active; 'I' for Inactive)
REMARK    1  A    between atoms: O_3  and  C_15
REMARK    2  A    between atoms: O_3  and  C_18
REMARK    3  A    between atoms: C_7  and  C_12
REMARK                            x       y       z     vdW  Elec       q    Type
REMARK                         _______ _______ _______ _____ _____    ______ ____
ROOT
ATOM      1  O   UNL     1      -4.817  -8.717   9.715  0.00  0.00    -0.375 OA
ATOM      2  O   UNL     1      -5.460 -10.234  14.340  0.00  0.00    -0.275 OA
ATOM      4  N   UNL     1      -6.034 -10.400  12.086  0.00  0.00    -0.295 N 
ATOM     12  C   UNL     1      -6.311 -10.392  13.461  0.00  0.00    +0.219 C 
ATOM     13  C   UNL     1      -7.074 -10.607  11.073  0.00  0.00    +0.154 C 
ATOM     14  C   UNL     1      -4.650 -10.212  11.642  0.00  0.00    +0.136 C 
ATOM     15  C   UNL     1      -6.725 -10.239   9.628  0.00  0.00    +0.218 C 
ATOM     16  C   UNL     1      -4.436  -8.812  11.083  0.00  0.00    +0.179 C 
ATOM     17  C   UNL     1      -6.218  -8.807   9.482  0.00  0.00    +0.206 C 
ENDROOT
BRANCH  12   7
ATOM      7  C   UNL     1      -7.744 -10.582  13.854  0.00  0.00    +0.075 C 
ATOM      8  C   UNL     1      -8.557  -9.326  13.518  0.00  0.00    +0.013 C 
ATOM      9  C   UNL     1      -7.866 -10.780  15.365  0.00  0.00    +0.013 C 
ATOM     10  C   UNL     1      -9.210  -8.892  14.827  0.00  0.00    +0.001 C 
ATOM     11  C   UNL     1      -8.273  -9.415  15.901  0.00  0.00    +0.001 C 
ENDBRANCH  12   7
BRANCH  15   3
ATOM      3  O   UNL     1      -7.915 -10.361   8.848  0.00  0.00    -0.468 OA
BRANCH   3  18
ATOM      5  N   UNL     1      -9.835  -9.425   9.764  0.00  0.00    -0.219 NA
ATOM      6  N   UNL     1      -9.459  -7.155   8.160  0.00  0.00    -0.256 NA
ATOM     18  C   UNL     1      -8.797  -9.318   8.912  0.00  0.00    +0.234 A 
ATOM     19  C   UNL     1      -8.612  -8.203   8.124  0.00  0.00    +0.177 A 
ATOM     20  C   UNL     1     -10.683  -8.377   9.800  0.00  0.00    +0.134 A 
ATOM     21  C   UNL     1     -10.498  -7.262   9.012  0.00  0.00    +0.130 A 
ENDBRANCH   3  18
ENDBRANCH  15   3
TORSDOF 3
ENDMDL
MODEL 8
REMARK VINA RESULT:      -3.1     18.958     20.783
REMARK  Name = 75536908
REMARK  3 active torsions:
REMARK  status: ('A' for Active; 'I' for Inactive)
REMARK    1  A    between atoms: O_3  and  C_15
REMARK    2  A    between atoms: O_3  and  C_18
REMARK    3  A    between atoms: C_7  and  C_12
REMARK                            x       y       z     vdW  Elec       q    Type
REMARK                         _______ _______ _______ _____ _____    ______ ____
ROOT
ATOM      1  O   UNL     1      17.273  -3.583  28.173  0.00  0.00    -0.375 OA
ATOM      2  O   UNL     1      16.871  -7.119  24.790  0.00  0.00    -0.275 OA
ATOM      4  N   UNL     1      16.336  -6.317  26.913  0.00  0.00    -0.295 N 
ATOM     12  C   UNL     1      16.673  -7.318  25.990  0.00  0.00    +0.219 C 
ATOM     13  C   UNL     1      16.094  -6.600  28.332  0.00  0.00    +0.154 C 
ATOM     14  C   UNL     1      16.203  -4.937  26.440  0.00  0.00    +0.136 C 
ATOM     15  C   UNL     1      16.094  -5.406  29.292  0.00  0.00    +0.218 C 
ATOM     16  C   UNL     1      17.403  -4.094  26.851  0.00  0.00    +0.179 C 
ATOM     17  C   UNL     1      17.363  -4.565  29.199  0.00  0.00    +0.206 C 
ENDROOT
BRANCH  12   7
ATOM      7  C   UNL     1      16.803  -8.709  26.533  0.00  0.00    +0.075 C 
ATOM      8  C   UNL     1      17.405  -9.639  25.474  0.00  0.00    +0.013 C 
ATOM      9  C   UNL     1      15.429  -9.283  26.877  0.00  0.00    +0.013 C 
ATOM     10  C   UNL     1      16.407 -10.781  25.308  0.00  0.00    +0.001 C 
ATOM     11  C   UNL     1      15.072 -10.165  25.689  0.00  0.00    +0.001 C 
ENDBRANCH  12   7
BRANCH  15   3
ATOM      3  O   UNL     1      16.006  -5.918  30.622  0.00  0.00    -0.468 OA
BRANCH   3  18
ATOM      5  N   UNL     1      13.716  -5.603  30.868  0.00  0.00    -0.219 NA
ATOM      6  N   UNL     1      13.502  -8.195  31.918  0.00  0.00    -0.256 NA
ATOM     18  C   UNL     1      14.789  -6.406  31.009  0.00  0.00    +0.234 A 
ATOM     19  C   UNL     1      14.684  -7.679  31.525  0.00  0.00    +0.177 A 
ATOM     20  C   UNL     1      12.534  -6.118  31.260  0.00  0.00    +0.134 A 
ATOM     21  C   UNL     1      12.429  -7.391  31.776  0.00  0.00    +0.130 A 
ENDBRANCH   3  18
ENDBRANCH  15   3
TORSDOF 3
ENDMDL
MODEL 9
REMARK VINA RESULT:      -3.0      2.018      5.572
REMARK  Name = 75536908
REMARK  3 active torsions:
REMARK  status: ('A' for Active; 'I' for Inactive)
REMARK    1  A    between atoms: O_3  and  C_15
REMARK    2  A    between atoms: O_3  and  C_18
REMARK    3  A    between atoms: C_7  and  C_12
REMARK                            x       y       z     vdW  Elec       q    Type
REMARK                         _______ _______ _______ _____ _____    ______ ____
ROOT
ATOM      1  O   UNL     1      -6.158   1.407  25.388  0.00  0.00    -0.375 OA
ATOM      2  O   UNL     1      -3.325   5.120  26.905  0.00  0.00    -0.275 OA
ATOM      4  N   UNL     1      -3.766   3.460  25.327  0.00  0.00    -0.295 N 
ATOM     12  C   UNL     1      -2.927   4.251  26.125  0.00  0.00    +0.219 C 
ATOM     13  C   UNL     1      -3.249   2.446  24.402  0.00  0.00    +0.154 C 
ATOM     14  C   UNL     1      -5.215   3.663  25.407  0.00  0.00    +0.136 C 
ATOM     15  C   UNL     1      -4.247   1.415  23.866  0.00  0.00    +0.218 C 
ATOM     16  C   UNL     1      -5.886   2.547  26.196  0.00  0.00    +0.179 C 
ATOM     17  C   UNL     1      -5.004   0.686  24.973  0.00  0.00    +0.206 C 
ENDROOT
BRANCH  12   7
ATOM      7  C   UNL     1      -1.456   3.993  26.007  0.00  0.00    +0.075 C 
ATOM      8  C   UNL     1      -0.838   4.917  24.952  0.00  0.00    +0.013 C 
ATOM      9  C   UNL     1      -1.197   2.564  25.530  0.00  0.00    +0.013 C 
ATOM     10  C   UNL     1      -0.149   3.999  23.947  0.00  0.00    +0.001 C 
ATOM     11  C   UNL     1      -0.929   2.698  24.038  0.00  0.00    +0.001 C 
ENDBRANCH  12   7
BRANCH  15   3
ATOM      3  O   UNL     1      -3.512   0.440  23.126  0.00  0.00    -0.468 OA
BRANCH   3  18
ATOM      5  N   UNL     1      -4.121  -1.719  23.733  0.00  0.00    -0.219 NA
ATOM      6  N   UNL     1      -1.693  -1.986  25.110  0.00  0.00    -0.256 NA
ATOM     18  C   UNL     1      -3.214  -0.724  23.779  0.00  0.00    +0.234 A 
ATOM     19  C   UNL     1      -2.021  -0.855  24.456  0.00  0.00    +0.177 A 
ATOM     20  C   UNL     1      -3.793  -2.851  24.387  0.00  0.00    +0.134 A 
ATOM     21  C   UNL     1      -2.600  -2.982  25.064  0.00  0.00    +0.130 A 
ENDBRANCH   3  18
ENDBRANCH  15   3
TORSDOF 3
ENDMDL
MODEL 10
REMARK VINA RESULT:      -2.8     15.920     17.330
REMARK  Name = 75536908
REMARK  3 active torsions:
REMARK  status: ('A' for Active; 'I' for Inactive)
REMARK    1  A    between atoms: O_3  and  C_15
REMARK    2  A    between atoms: O_3  and  C_18
REMARK    3  A    between atoms: C_7  and  C_12
REMARK                            x       y       z     vdW  Elec       q    Type
REMARK                         _______ _______ _______ _____ _____    ______ ____
ROOT
ATOM      1  O   UNL     1      -6.324  -7.584   9.560  0.00  0.00    -0.375 OA
ATOM      2  O   UNL     1      -1.784  -9.115  10.633  0.00  0.00    -0.275 OA
ATOM      4  N   UNL     1      -4.029  -9.627  10.266  0.00  0.00    -0.295 N 
ATOM     12  C   UNL     1      -2.792  -9.769  10.912  0.00  0.00    +0.219 C 
ATOM     13  C   UNL     1      -5.201 -10.436  10.619  0.00  0.00    +0.154 C 
ATOM     14  C   UNL     1      -4.154  -8.646   9.185  0.00  0.00    +0.136 C 
ATOM     15  C   UNL     1      -6.562  -9.952  10.111  0.00  0.00    +0.218 C 
ATOM     16  C   UNL     1      -4.914  -7.410   9.646  0.00  0.00    +0.179 C 
ATOM     17  C   UNL     1      -6.865  -8.507  10.498  0.00  0.00    +0.206 C 
ENDROOT
BRANCH  12   7
ATOM      7  C   UNL     1      -2.727 -10.781  12.014  0.00  0.00    +0.075 C 
ATOM      8  C   UNL     1      -3.818 -10.504  13.055  0.00  0.00    +0.013 C 
ATOM      9  C   UNL     1      -1.393 -10.686  12.755  0.00  0.00    +0.013 C 
ATOM     10  C   UNL     1      -3.092 -10.357  14.388  0.00  0.00    +0.001 C 
ATOM     11  C   UNL     1      -1.704  -9.874  14.004  0.00  0.00    +0.001 C 
ENDBRANCH  12   7
BRANCH  15   3
ATOM      3  O   UNL     1      -7.566 -10.781  10.699  0.00  0.00    -0.468 OA
BRANCH   3  18
ATOM      5  N   UNL     1      -6.960 -10.566  12.933  0.00  0.00    -0.219 NA
ATOM      6  N   UNL     1      -9.599  -9.844  13.549  0.00  0.00    -0.256 NA
ATOM     18  C   UNL     1      -7.918 -10.491  11.988  0.00  0.00    +0.234 A 
ATOM     19  C   UNL     1      -9.214 -10.136  12.291  0.00  0.00    +0.177 A 
ATOM     20  C   UNL     1      -7.344 -10.274  14.192  0.00  0.00    +0.134 A 
ATOM     21  C   UNL     1      -8.641  -9.919  14.494  0.00  0.00    +0.130 A 
ENDBRANCH   3  18
ENDBRANCH  15   3
TORSDOF 3
ENDMDL
