MODEL 1
REMARK VINA RESULT:      -2.0      0.000      0.000
REMARK  Name = 25338314
REMARK  7 active torsions:
REMARK  status: ('A' for Active; 'I' for Inactive)
REMARK    1  A    between atoms: N_3  and  C_12
REMARK    2  A    between atoms: N_4  and  C_7
REMARK    3  A    between atoms: C_8  and  C_11
REMARK    4  A    between atoms: C_13  and  C_14
REMARK    5  A    between atoms: C_14  and  C_16
REMARK    6  A    between atoms: C_15  and  C_17
REMARK    7  A    between atoms: C_24  and  C_28
REMARK                            x       y       z     vdW  Elec       q    Type
REMARK                         _______ _______ _______ _____ _____    ______ ____
ROOT
ATOM      3  N   UNL     1      -2.619  -0.818  25.642  0.00  0.00    -0.293 NA
ATOM      7  C   UNL     1      -4.496  -0.028  24.508  0.00  0.00    +0.089 C 
ATOM      8  C   UNL     1      -2.258  -0.966  24.220  0.00  0.00    +0.147 C 
ATOM      9  C   UNL     1      -3.423  -0.308  23.455  0.00  0.00    +0.052 C 
ATOM     10  C   UNL     1      -4.083  -0.885  25.695  0.00  0.00    +0.107 C 
ATOM     12  C   UNL     1      -1.997  -1.821  26.500  0.00  0.00    +0.105 C 
ENDROOT
BRANCH   8  11
ATOM      1  O   UNL     1      -0.931   0.927  23.427  0.00  0.00    -0.336 OA
ATOM      5  N   UNL     1       0.277  -0.891  23.930  0.00  0.00    -0.190 NA
ATOM      6  N   UNL     1       0.404   1.264  23.171  0.00  0.00    -0.056 NA
ATOM     11  C   UNL     1      -0.917  -0.357  23.870  0.00  0.00    +0.245 A 
ATOM     15  C   UNL     1       1.055   0.142  23.491  0.00  0.00    +0.202 A 
BRANCH  15  17
ATOM     17  C   UNL     1       2.479   0.019  23.386  0.00  0.00    +0.022 A 
ATOM     20  C   UNL     1       3.240   1.088  22.908  0.00  0.00    +0.012 A 
ATOM     21  C   UNL     1       3.107  -1.168  23.763  0.00  0.00    +0.012 A 
ATOM     22  C   UNL     1       4.625   0.968  22.807  0.00  0.00    +0.004 A 
ATOM     23  C   UNL     1       4.493  -1.288  23.662  0.00  0.00    +0.004 A 
ATOM     24  C   UNL     1       5.252  -0.220  23.183  0.00  0.00    -0.050 A 
ATOM     28  C   UNL     1       6.734  -0.348  23.075  0.00  0.00    +0.044 C 
ENDBRANCH  15  17
ENDBRANCH   8  11
BRANCH   7   4
ATOM      2  O   UNL     1      -6.852   1.569  24.927  0.00  0.00    -0.275 OA
ATOM      4  N   UNL     1      -4.540   1.371  24.860  0.00  0.00    -0.311 N 
ATOM     13  C   UNL     1      -5.732   2.059  25.042  0.00  0.00    +0.218 C 
ATOM     29  H   UNL     1      -3.658   1.873  24.914  0.00  0.00    +0.149 HD
BRANCH  13  14
ATOM     14  C   UNL     1      -5.487   3.509  25.414  0.00  0.00    +0.130 C 
BRANCH  14  16
ATOM     16  C   UNL     1      -4.038   3.910  25.322  0.00  0.00    -0.039 A 
ATOM     18  C   UNL     1      -3.226   3.858  26.455  0.00  0.00    +0.004 A 
ATOM     19  C   UNL     1      -3.507   4.333  24.103  0.00  0.00    +0.004 A 
ATOM     25  C   UNL     1      -1.884   4.230  26.370  0.00  0.00    +0.000 A 
ATOM     26  C   UNL     1      -2.166   4.704  24.017  0.00  0.00    +0.000 A 
ATOM     27  C   UNL     1      -1.354   4.653  25.151  0.00  0.00    +0.000 A 
ENDBRANCH  14  16
ENDBRANCH  13  14
ENDBRANCH   7   4
TORSDOF 5
ENDMDL
MODEL 2
REMARK VINA RESULT:      -1.3     17.823     19.731
REMARK  Name = 25338314
REMARK  7 active torsions:
REMARK  status: ('A' for Active; 'I' for Inactive)
REMARK    1  A    between atoms: N_3  and  C_12
REMARK    2  A    between atoms: N_4  and  C_7
REMARK    3  A    between atoms: C_8  and  C_11
REMARK    4  A    between atoms: C_13  and  C_14
REMARK    5  A    between atoms: C_14  and  C_16
REMARK    6  A    between atoms: C_15  and  C_17
REMARK    7  A    between atoms: C_24  and  C_28
REMARK                            x       y       z     vdW  Elec       q    Type
REMARK                         _______ _______ _______ _____ _____    ______ ____
ROOT
ATOM      3  N   UNL     1      13.039  -6.779  32.020  0.00  0.00    -0.293 NA
ATOM      7  C   UNL     1      13.427  -9.036  32.455  0.00  0.00    +0.089 C 
ATOM      8  C   UNL     1      14.434  -6.810  32.498  0.00  0.00    +0.147 C 
ATOM      9  C   UNL     1      14.759  -8.310  32.646  0.00  0.00    +0.052 C 
ATOM     10  C   UNL     1      12.381  -7.942  32.622  0.00  0.00    +0.107 C 
ATOM     12  C   UNL     1      12.349  -5.535  32.345  0.00  0.00    +0.105 C 
ENDROOT
BRANCH   8  11
ATOM      1  O   UNL     1      16.708  -6.090  31.962  0.00  0.00    -0.336 OA
ATOM      5  N   UNL     1      15.171  -5.464  30.457  0.00  0.00    -0.190 NA
ATOM      6  N   UNL     1      17.398  -5.378  30.973  0.00  0.00    -0.056 NA
ATOM     11  C   UNL     1      15.403  -6.094  31.581  0.00  0.00    +0.245 A 
ATOM     15  C   UNL     1      16.425  -5.043  30.122  0.00  0.00    +0.202 A 
BRANCH  15  17
ATOM     17  C   UNL     1      16.671  -4.288  28.927  0.00  0.00    +0.022 A 
ATOM     20  C   UNL     1      16.774  -4.941  27.698  0.00  0.00    +0.012 A 
ATOM     21  C   UNL     1      16.805  -2.902  28.994  0.00  0.00    +0.012 A 
ATOM     22  C   UNL     1      17.013  -4.207  26.536  0.00  0.00    +0.004 A 
ATOM     23  C   UNL     1      17.044  -2.167  27.831  0.00  0.00    +0.004 A 
ATOM     24  C   UNL     1      17.148  -2.820  26.603  0.00  0.00    -0.050 A 
ATOM     28  C   UNL     1      17.403  -2.035  25.361  0.00  0.00    +0.044 C 
ENDBRANCH  15  17
ENDBRANCH   8  11
BRANCH   7   4
ATOM      2  O   UNL     1      15.623  -9.849  30.783  0.00  0.00    -0.275 OA
ATOM      4  N   UNL     1      13.339  -9.652  31.153  0.00  0.00    -0.311 N 
ATOM     13  C   UNL     1      14.461 -10.010  30.418  0.00  0.00    +0.218 C 
ATOM     29  H   UNL     1      12.416  -9.764  30.745  0.00  0.00    +0.149 HD
BRANCH  13  14
ATOM     14  C   UNL     1      14.080 -10.642  29.093  0.00  0.00    +0.130 C 
BRANCH  14  16
ATOM     16  C   UNL     1      14.814 -10.050  27.918  0.00  0.00    -0.039 A 
ATOM     18  C   UNL     1      14.940 -10.778  26.736  0.00  0.00    +0.004 A 
ATOM     19  C   UNL     1      15.367  -8.772  28.013  0.00  0.00    +0.004 A 
ATOM     25  C   UNL     1      15.620 -10.230  25.647  0.00  0.00    +0.000 A 
ATOM     26  C   UNL     1      16.046  -8.224  26.926  0.00  0.00    +0.000 A 
ATOM     27  C   UNL     1      16.172  -8.952  25.743  0.00  0.00    +0.000 A 
ENDBRANCH  14  16
ENDBRANCH  13  14
ENDBRANCH   7   4
TORSDOF 5
ENDMDL
MODEL 3
REMARK VINA RESULT:       0.4      1.297      2.017
REMARK  Name = 25338314
REMARK  7 active torsions:
REMARK  status: ('A' for Active; 'I' for Inactive)
REMARK    1  A    between atoms: N_3  and  C_12
REMARK    2  A    between atoms: N_4  and  C_7
REMARK    3  A    between atoms: C_8  and  C_11
REMARK    4  A    between atoms: C_13  and  C_14
REMARK    5  A    between atoms: C_14  and  C_16
REMARK    6  A    between atoms: C_15  and  C_17
REMARK    7  A    between atoms: C_24  and  C_28
REMARK                            x       y       z     vdW  Elec       q    Type
REMARK                         _______ _______ _______ _____ _____    ______ ____
ROOT
ATOM      3  N   UNL     1      -3.678  -0.596  25.200  0.00  0.00    -0.293 NA
ATOM      7  C   UNL     1      -4.357   1.257  23.960  0.00  0.00    +0.089 C 
ATOM      8  C   UNL     1      -2.949  -0.740  23.926  0.00  0.00    +0.147 C 
ATOM      9  C   UNL     1      -3.266   0.554  23.151  0.00  0.00    +0.052 C 
ATOM     10  C   UNL     1      -4.886   0.173  24.888  0.00  0.00    +0.107 C 
ATOM     12  C   UNL     1      -3.995  -1.874  25.828  0.00  0.00    +0.105 C 
ENDROOT
BRANCH   8  11
ATOM      1  O   UNL     1      -1.094  -1.929  24.984  0.00  0.00    -0.336 OA
ATOM      5  N   UNL     1      -0.457  -0.353  23.526  0.00  0.00    -0.190 NA
ATOM      6  N   UNL     1       0.306  -1.948  24.977  0.00  0.00    -0.056 NA
ATOM     11  C   UNL     1      -1.462  -0.962  24.103  0.00  0.00    +0.245 A 
ATOM     15  C   UNL     1       0.606  -0.992  24.094  0.00  0.00    +0.202 A 
BRANCH  15  17
ATOM     17  C   UNL     1       1.957  -0.651  23.756  0.00  0.00    +0.022 A 
ATOM     20  C   UNL     1       2.993  -1.547  24.026  0.00  0.00    +0.012 A 
ATOM     21  C   UNL     1       2.237   0.576  23.154  0.00  0.00    +0.012 A 
ATOM     22  C   UNL     1       4.307  -1.215  23.697  0.00  0.00    +0.004 A 
ATOM     23  C   UNL     1       3.552   0.908  22.824  0.00  0.00    +0.004 A 
ATOM     24  C   UNL     1       4.586   0.013  23.096  0.00  0.00    -0.050 A 
ATOM     28  C   UNL     1       5.991   0.368  22.743  0.00  0.00    +0.044 C 
ENDBRANCH  15  17
ENDBRANCH   8  11
BRANCH   7   4
ATOM      2  O   UNL     1      -5.761   2.854  25.898  0.00  0.00    -0.275 OA
ATOM      4  N   UNL     1      -3.829   2.375  24.704  0.00  0.00    -0.311 N 
ATOM     13  C   UNL     1      -4.588   3.088  25.623  0.00  0.00    +0.218 C 
ATOM     29  H   UNL     1      -2.883   2.679  24.492  0.00  0.00    +0.149 HD
BRANCH  13  14
ATOM     14  C   UNL     1      -3.783   4.202  26.264  0.00  0.00    +0.130 C 
BRANCH  14  16
ATOM     16  C   UNL     1      -2.359   4.264  25.778  0.00  0.00    -0.039 A 
ATOM     18  C   UNL     1      -1.894   5.402  25.121  0.00  0.00    +0.004 A 
ATOM     19  C   UNL     1      -1.504   3.181  25.986  0.00  0.00    +0.004 A 
ATOM     25  C   UNL     1      -0.575   5.460  24.671  0.00  0.00    +0.000 A 
ATOM     26  C   UNL     1      -0.185   3.238  25.537  0.00  0.00    +0.000 A 
ATOM     27  C   UNL     1       0.280   4.377  24.880  0.00  0.00    +0.000 A 
ENDBRANCH  14  16
ENDBRANCH  13  14
ENDBRANCH   7   4
TORSDOF 5
ENDMDL
MODEL 4
REMARK VINA RESULT:       0.8      1.464      4.035
REMARK  Name = 25338314
REMARK  7 active torsions:
REMARK  status: ('A' for Active; 'I' for Inactive)
REMARK    1  A    between atoms: N_3  and  C_12
REMARK    2  A    between atoms: N_4  and  C_7
REMARK    3  A    between atoms: C_8  and  C_11
REMARK    4  A    between atoms: C_13  and  C_14
REMARK    5  A    between atoms: C_14  and  C_16
REMARK    6  A    between atoms: C_15  and  C_17
REMARK    7  A    between atoms: C_24  and  C_28
REMARK                            x       y       z     vdW  Elec       q    Type
REMARK                         _______ _______ _______ _____ _____    ______ ____
ROOT
ATOM      3  N   UNL     1      -2.511   2.505  22.740  0.00  0.00    -0.293 NA
ATOM      7  C   UNL     1      -3.235   3.169  24.854  0.00  0.00    +0.089 C 
ATOM      8  C   UNL     1      -1.265   2.877  23.438  0.00  0.00    +0.147 C 
ATOM      9  C   UNL     1      -1.706   3.172  24.885  0.00  0.00    +0.052 C 
ATOM     10  C   UNL     1      -3.576   3.286  23.375  0.00  0.00    +0.107 C 
ATOM     12  C   UNL     1      -2.453   2.735  21.301  0.00  0.00    +0.105 C 
ENDROOT
BRANCH   8  11
ATOM      1  O   UNL     1      -0.616   0.533  23.197  0.00  0.00    -0.336 OA
ATOM      5  N   UNL     1       1.110   1.939  23.441  0.00  0.00    -0.190 NA
ATOM      6  N   UNL     1       0.539  -0.258  23.159  0.00  0.00    -0.056 NA
ATOM     11  C   UNL     1      -0.191   1.813  23.364  0.00  0.00    +0.245 A 
ATOM     15  C   UNL     1       1.514   0.642  23.310  0.00  0.00    +0.202 A 
BRANCH  15  17
ATOM     17  C   UNL     1       2.901   0.281  23.332  0.00  0.00    +0.022 A 
ATOM     20  C   UNL     1       3.282  -1.006  23.716  0.00  0.00    +0.012 A 
ATOM     21  C   UNL     1       3.871   1.215  22.967  0.00  0.00    +0.012 A 
ATOM     22  C   UNL     1       4.632  -1.357  23.737  0.00  0.00    +0.004 A 
ATOM     23  C   UNL     1       5.222   0.864  22.988  0.00  0.00    +0.004 A 
ATOM     24  C   UNL     1       5.601  -0.422  23.374  0.00  0.00    -0.050 A 
ATOM     28  C   UNL     1       7.044  -0.797  23.396  0.00  0.00    +0.044 C 
ENDBRANCH  15  17
ENDBRANCH   8  11
BRANCH   7   4
ATOM      2  O   UNL     1      -5.985   2.324  24.817  0.00  0.00    -0.275 OA
ATOM      4  N   UNL     1      -3.774   1.957  25.423  0.00  0.00    -0.311 N 
ATOM     13  C   UNL     1      -5.123   1.634  25.354  0.00  0.00    +0.218 C 
ATOM     29  H   UNL     1      -3.141   1.357  25.944  0.00  0.00    +0.149 HD
BRANCH  13  14
ATOM     14  C   UNL     1      -5.411   0.304  26.024  0.00  0.00    +0.130 C 
BRANCH  14  16
ATOM     16  C   UNL     1      -4.561  -0.823  25.501  0.00  0.00    -0.039 A 
ATOM     18  C   UNL     1      -4.764  -1.311  24.211  0.00  0.00    +0.004 A 
ATOM     19  C   UNL     1      -3.568  -1.380  26.309  0.00  0.00    +0.004 A 
ATOM     25  C   UNL     1      -3.976  -2.356  23.726  0.00  0.00    +0.000 A 
ATOM     26  C   UNL     1      -2.780  -2.424  25.825  0.00  0.00    +0.000 A 
ATOM     27  C   UNL     1      -2.983  -2.911  24.534  0.00  0.00    +0.000 A 
ENDBRANCH  14  16
ENDBRANCH  13  14
ENDBRANCH   7   4
TORSDOF 5
ENDMDL
MODEL 5
REMARK VINA RESULT:       1.8      2.009      4.684
REMARK  Name = 25338314
REMARK  7 active torsions:
REMARK  status: ('A' for Active; 'I' for Inactive)
REMARK    1  A    between atoms: N_3  and  C_12
REMARK    2  A    between atoms: N_4  and  C_7
REMARK    3  A    between atoms: C_8  and  C_11
REMARK    4  A    between atoms: C_13  and  C_14
REMARK    5  A    between atoms: C_14  and  C_16
REMARK    6  A    between atoms: C_15  and  C_17
REMARK    7  A    between atoms: C_24  and  C_28
REMARK                            x       y       z     vdW  Elec       q    Type
REMARK                         _______ _______ _______ _____ _____    ______ ____
ROOT
ATOM      3  N   UNL     1      -4.402   4.168  24.453  0.00  0.00    -0.293 NA
ATOM      7  C   UNL     1      -5.386   3.135  26.297  0.00  0.00    +0.089 C 
ATOM      8  C   UNL     1      -3.393   4.314  25.519  0.00  0.00    +0.147 C 
ATOM      9  C   UNL     1      -3.959   3.505  26.702  0.00  0.00    +0.052 C 
ATOM     10  C   UNL     1      -5.696   4.069  25.135  0.00  0.00    +0.107 C 
ATOM     12  C   UNL     1      -4.379   5.260  23.487  0.00  0.00    +0.105 C 
ENDROOT
BRANCH   8  11
ATOM      1  O   UNL     1      -0.998   4.743  25.287  0.00  0.00    -0.336 OA
ATOM      5  N   UNL     1      -1.634   2.708  24.599  0.00  0.00    -0.190 NA
ATOM      6  N   UNL     1       0.165   4.101  24.841  0.00  0.00    -0.056 NA
ATOM     11  C   UNL     1      -2.010   3.854  25.109  0.00  0.00    +0.245 A 
ATOM     15  C   UNL     1      -0.292   2.908  24.452  0.00  0.00    +0.202 A 
BRANCH  15  17
ATOM     17  C   UNL     1       0.565   1.892  23.913  0.00  0.00    +0.022 A 
ATOM     20  C   UNL     1       0.061   0.616  23.658  0.00  0.00    +0.012 A 
ATOM     21  C   UNL     1       1.903   2.179  23.643  0.00  0.00    +0.012 A 
ATOM     22  C   UNL     1       0.894  -0.372  23.134  0.00  0.00    +0.004 A 
ATOM     23  C   UNL     1       2.737   1.191  23.118  0.00  0.00    +0.004 A 
ATOM     24  C   UNL     1       2.232  -0.084  22.864  0.00  0.00    -0.050 A 
ATOM     28  C   UNL     1       3.124  -1.140  22.304  0.00  0.00    +0.044 C 
ENDBRANCH  15  17
ENDBRANCH   8  11
BRANCH   7   4
ATOM      2  O   UNL     1      -4.509   1.996  23.804  0.00  0.00    -0.275 OA
ATOM      4  N   UNL     1      -5.482   1.751  25.898  0.00  0.00    -0.311 N 
ATOM     13  C   UNL     1      -5.029   1.294  24.668  0.00  0.00    +0.218 C 
ATOM     29  H   UNL     1      -5.958   1.110  26.526  0.00  0.00    +0.149 HD
BRANCH  13  14
ATOM     14  C   UNL     1      -5.246  -0.199  24.514  0.00  0.00    +0.130 C 
BRANCH  14  16
ATOM     16  C   UNL     1      -3.983  -1.004  24.673  0.00  0.00    -0.039 A 
ATOM     18  C   UNL     1      -3.843  -2.221  24.008  0.00  0.00    +0.004 A 
ATOM     19  C   UNL     1      -2.952  -0.530  25.485  0.00  0.00    +0.004 A 
ATOM     25  C   UNL     1      -2.673  -2.967  24.155  0.00  0.00    +0.000 A 
ATOM     26  C   UNL     1      -1.782  -1.275  25.632  0.00  0.00    +0.000 A 
ATOM     27  C   UNL     1      -1.643  -2.493  24.967  0.00  0.00    +0.000 A 
ENDBRANCH  14  16
ENDBRANCH  13  14
ENDBRANCH   7   4
TORSDOF 5
ENDMDL
