MODEL 1
REMARK VINA RESULT:      -3.9      0.000      0.000
REMARK  Name = 51137036
REMARK  3 active torsions:
REMARK  status: ('A' for Active; 'I' for Inactive)
REMARK    1  A    between atoms: N_3  and  C_12
REMARK    2  A    between atoms: C_7  and  C_11
REMARK    3  A    between atoms: C_12  and  C_13
REMARK                            x       y       z     vdW  Elec       q    Type
REMARK                         _______ _______ _______ _____ _____    ______ ____
ROOT
ATOM      3  N   UNL     1       0.446  -0.547  23.762  0.00  0.00    -0.297 NA
ATOM      7  C   UNL     1      -1.297   0.107  25.188  0.00  0.00    +0.070 C 
ATOM      8  C   UNL     1      -1.505  -1.356  24.756  0.00  0.00    +0.028 C 
ATOM      9  C   UNL     1      -0.260   0.659  24.200  0.00  0.00    +0.096 C 
ATOM     10  C   UNL     1      -0.604  -1.540  23.542  0.00  0.00    +0.085 C 
ENDROOT
BRANCH   7  11
ATOM      4  N   UNL     1      -2.504   2.303  25.328  0.00  0.00    -0.340 N 
ATOM      5  N   UNL     1      -3.795   0.492  25.221  0.00  0.00    -0.213 NA
ATOM      6  N   UNL     1      -5.929   1.646  25.302  0.00  0.00    -0.234 NA
ATOM     11  C   UNL     1      -2.558   0.938  25.244  0.00  0.00    +0.114 A 
ATOM     14  C   UNL     1      -3.790   2.766  25.363  0.00  0.00    +0.085 A 
ATOM     15  C   UNL     1      -4.573   1.620  25.295  0.00  0.00    +0.178 A 
ATOM     18  C   UNL     1      -4.351   4.038  25.443  0.00  0.00    +0.031 A 
ATOM     21  C   UNL     1      -5.742   4.080  25.452  0.00  0.00    +0.022 A 
ATOM     23  C   UNL     1      -6.458   2.889  25.381  0.00  0.00    +0.113 A 
ATOM     24  H   UNL     1      -1.666   2.869  25.360  0.00  0.00    +0.167 HD
ENDBRANCH   7  11
BRANCH   3  12
ATOM     12  C   UNL     1       1.250  -0.317  22.570  0.00  0.00    +0.119 C 
BRANCH  12  13
ATOM      1  F   UNL     1       5.410  -2.194  24.299  0.00  0.00    -0.202 F 
ATOM      2  F   UNL     1       6.732   0.146  23.791  0.00  0.00    -0.202 F 
ATOM     13  C   UNL     1       2.715  -0.194  22.896  0.00  0.00    -0.030 A 
ATOM     16  C   UNL     1       3.397  -1.272  23.458  0.00  0.00    +0.046 A 
ATOM     17  C   UNL     1       3.389   1.000  22.636  0.00  0.00    +0.008 A 
ATOM     19  C   UNL     1       4.754  -1.158  23.760  0.00  0.00    +0.159 A 
ATOM     20  C   UNL     1       4.745   1.114  22.938  0.00  0.00    +0.041 A 
ATOM     22  C   UNL     1       5.428   0.036  23.500  0.00  0.00    +0.158 A 
ENDBRANCH  12  13
ENDBRANCH   3  12
TORSDOF 3
ENDMDL
MODEL 2
REMARK VINA RESULT:      -3.0      3.385      7.533
REMARK  Name = 51137036
REMARK  3 active torsions:
REMARK  status: ('A' for Active; 'I' for Inactive)
REMARK    1  A    between atoms: N_3  and  C_12
REMARK    2  A    between atoms: C_7  and  C_11
REMARK    3  A    between atoms: C_12  and  C_13
REMARK                            x       y       z     vdW  Elec       q    Type
REMARK                         _______ _______ _______ _____ _____    ______ ____
ROOT
ATOM      3  N   UNL     1      -3.639   2.241  25.255  0.00  0.00    -0.297 NA
ATOM      7  C   UNL     1      -1.360   2.598  24.838  0.00  0.00    +0.070 C 
ATOM      8  C   UNL     1      -2.199   3.510  23.926  0.00  0.00    +0.028 C 
ATOM      9  C   UNL     1      -2.353   1.551  25.360  0.00  0.00    +0.096 C 
ATOM     10  C   UNL     1      -3.601   2.916  23.958  0.00  0.00    +0.085 C 
ENDROOT
BRANCH   7  11
ATOM      4  N   UNL     1      -0.251   0.855  23.412  0.00  0.00    -0.340 N 
ATOM      5  N   UNL     1       1.093   2.420  24.251  0.00  0.00    -0.213 NA
ATOM      6  N   UNL     1       3.156   1.587  23.281  0.00  0.00    -0.234 NA
ATOM     11  C   UNL     1      -0.146   1.983  24.179  0.00  0.00    +0.114 A 
ATOM     14  C   UNL     1       1.002   0.544  22.960  0.00  0.00    +0.085 A 
ATOM     15  C   UNL     1       1.818   1.533  23.495  0.00  0.00    +0.178 A 
ATOM     18  C   UNL     1       1.507  -0.472  22.154  0.00  0.00    +0.031 A 
ATOM     21  C   UNL     1       2.879  -0.430  21.926  0.00  0.00    +0.022 A 
ATOM     23  C   UNL     1       3.632   0.591  22.497  0.00  0.00    +0.113 A 
ATOM     24  H   UNL     1      -1.101   0.342  23.214  0.00  0.00    +0.167 HD
ENDBRANCH   7  11
BRANCH   3  12
ATOM     12  C   UNL     1      -4.770   1.331  25.373  0.00  0.00    +0.119 C 
BRANCH  12  13
ATOM      1  F   UNL     1      -4.608  -2.673  22.588  0.00  0.00    -0.202 F 
ATOM      2  F   UNL     1      -3.246  -4.028  24.533  0.00  0.00    -0.202 F 
ATOM     13  C   UNL     1      -4.363  -0.101  25.148  0.00  0.00    -0.030 A 
ATOM     16  C   UNL     1      -4.681  -0.736  23.949  0.00  0.00    +0.046 A 
ATOM     17  C   UNL     1      -3.667  -0.792  26.141  0.00  0.00    +0.008 A 
ATOM     19  C   UNL     1      -4.303  -2.063  23.740  0.00  0.00    +0.159 A 
ATOM     20  C   UNL     1      -3.290  -2.118  25.933  0.00  0.00    +0.041 A 
ATOM     22  C   UNL     1      -3.608  -2.754  24.733  0.00  0.00    +0.158 A 
ENDBRANCH  12  13
ENDBRANCH   3  12
TORSDOF 3
ENDMDL
MODEL 3
REMARK VINA RESULT:      -3.0      2.985      7.295
REMARK  Name = 51137036
REMARK  3 active torsions:
REMARK  status: ('A' for Active; 'I' for Inactive)
REMARK    1  A    between atoms: N_3  and  C_12
REMARK    2  A    between atoms: C_7  and  C_11
REMARK    3  A    between atoms: C_12  and  C_13
REMARK                            x       y       z     vdW  Elec       q    Type
REMARK                         _______ _______ _______ _____ _____    ______ ____
ROOT
ATOM      3  N   UNL     1      -2.966  -0.354  24.586  0.00  0.00    -0.297 NA
ATOM      7  C   UNL     1      -0.885  -1.042  23.751  0.00  0.00    +0.070 C 
ATOM      8  C   UNL     1      -1.171  -1.763  25.080  0.00  0.00    +0.028 C 
ATOM      9  C   UNL     1      -1.887   0.120  23.717  0.00  0.00    +0.096 C 
ATOM     10  C   UNL     1      -2.289  -0.959  25.732  0.00  0.00    +0.085 C 
ENDROOT
BRANCH   7  11
ATOM      4  N   UNL     1       1.593  -1.439  23.811  0.00  0.00    -0.340 N 
ATOM      5  N   UNL     1       0.951   0.596  23.174  0.00  0.00    -0.213 NA
ATOM      6  N   UNL     1       3.173   1.508  22.820  0.00  0.00    -0.234 NA
ATOM     11  C   UNL     1       0.546  -0.592  23.567  0.00  0.00    +0.114 A 
ATOM     14  C   UNL     1       2.748  -0.752  23.559  0.00  0.00    +0.085 A 
ATOM     15  C   UNL     1       2.321   0.510  23.165  0.00  0.00    +0.178 A 
ATOM     18  C   UNL     1       4.097  -1.084  23.629  0.00  0.00    +0.031 A 
ATOM     21  C   UNL     1       4.984  -0.070  23.280  0.00  0.00    +0.022 A 
ATOM     23  C   UNL     1       4.481   1.169  22.895  0.00  0.00    +0.113 A 
ATOM     24  H   UNL     1       1.526  -2.400  24.122  0.00  0.00    +0.167 HD
ENDBRANCH   7  11
BRANCH   3  12
ATOM     12  C   UNL     1      -3.873   0.715  24.979  0.00  0.00    +0.119 C 
BRANCH  12  13
ATOM      1  F   UNL     1       0.047   3.418  26.054  0.00  0.00    -0.202 F 
ATOM      2  F   UNL     1      -1.250   5.694  25.270  0.00  0.00    -0.202 F 
ATOM     13  C   UNL     1      -3.172   2.045  25.057  0.00  0.00    -0.030 A 
ATOM     16  C   UNL     1      -1.862   2.117  25.529  0.00  0.00    +0.046 A 
ATOM     17  C   UNL     1      -3.834   3.207  24.657  0.00  0.00    +0.008 A 
ATOM     19  C   UNL     1      -1.212   3.349  25.601  0.00  0.00    +0.159 A 
ATOM     20  C   UNL     1      -3.185   4.438  24.729  0.00  0.00    +0.041 A 
ATOM     22  C   UNL     1      -1.874   4.511  25.201  0.00  0.00    +0.158 A 
ENDBRANCH  12  13
ENDBRANCH   3  12
TORSDOF 3
ENDMDL
MODEL 4
REMARK VINA RESULT:      -2.6      3.520      7.625
REMARK  Name = 51137036
REMARK  3 active torsions:
REMARK  status: ('A' for Active; 'I' for Inactive)
REMARK    1  A    between atoms: N_3  and  C_12
REMARK    2  A    between atoms: C_7  and  C_11
REMARK    3  A    between atoms: C_12  and  C_13
REMARK                            x       y       z     vdW  Elec       q    Type
REMARK                         _______ _______ _______ _____ _____    ______ ____
ROOT
ATOM      3  N   UNL     1      -2.758  -0.411  24.520  0.00  0.00    -0.297 NA
ATOM      7  C   UNL     1      -0.732  -0.968  23.479  0.00  0.00    +0.070 C 
ATOM      8  C   UNL     1      -1.063  -2.015  24.556  0.00  0.00    +0.028 C 
ATOM      9  C   UNL     1      -1.652   0.219  23.796  0.00  0.00    +0.096 C 
ATOM     10  C   UNL     1      -2.121  -1.358  25.433  0.00  0.00    +0.085 C 
ENDROOT
BRANCH   7  11
ATOM      4  N   UNL     1       1.716  -1.457  23.744  0.00  0.00    -0.340 N 
ATOM      5  N   UNL     1       1.208   0.583  23.010  0.00  0.00    -0.213 NA
ATOM      6  N   UNL     1       3.486   1.400  22.812  0.00  0.00    -0.234 NA
ATOM     11  C   UNL     1       0.726  -0.577  23.398  0.00  0.00    +0.114 A 
ATOM     14  C   UNL     1       2.914  -0.821  23.568  0.00  0.00    +0.085 A 
ATOM     15  C   UNL     1       2.570   0.446  23.111  0.00  0.00    +0.178 A 
ATOM     18  C   UNL     1       4.239  -1.203  23.752  0.00  0.00    +0.031 A 
ATOM     21  C   UNL     1       5.190  -0.232  23.451  0.00  0.00    +0.022 A 
ATOM     23  C   UNL     1       4.769   1.014  22.997  0.00  0.00    +0.113 A 
ATOM     24  H   UNL     1       1.587  -2.405  24.071  0.00  0.00    +0.167 HD
ENDBRANCH   7  11
BRANCH   3  12
ATOM     12  C   UNL     1      -3.589   0.560  25.218  0.00  0.00    +0.119 C 
BRANCH  12  13
ATOM      1  F   UNL     1      -3.807   5.223  23.796  0.00  0.00    -0.202 F 
ATOM      2  F   UNL     1      -1.402   5.748  24.988  0.00  0.00    -0.202 F 
ATOM     13  C   UNL     1      -3.005   1.946  25.156  0.00  0.00    -0.030 A 
ATOM     16  C   UNL     1      -3.690   2.962  24.491  0.00  0.00    +0.046 A 
ATOM     17  C   UNL     1      -1.778   2.213  25.765  0.00  0.00    +0.008 A 
ATOM     19  C   UNL     1      -3.149   4.247  24.434  0.00  0.00    +0.159 A 
ATOM     20  C   UNL     1      -1.237   3.497  25.708  0.00  0.00    +0.041 A 
ATOM     22  C   UNL     1      -1.922   4.514  25.043  0.00  0.00    +0.158 A 
ENDBRANCH  12  13
ENDBRANCH   3  12
TORSDOF 3
ENDMDL
MODEL 5
REMARK VINA RESULT:      -2.2      4.334      7.147
REMARK  Name = 51137036
REMARK  3 active torsions:
REMARK  status: ('A' for Active; 'I' for Inactive)
REMARK    1  A    between atoms: N_3  and  C_12
REMARK    2  A    between atoms: C_7  and  C_11
REMARK    3  A    between atoms: C_12  and  C_13
REMARK                            x       y       z     vdW  Elec       q    Type
REMARK                         _______ _______ _______ _____ _____    ______ ____
ROOT
ATOM      3  N   UNL     1       0.080   3.126  25.245  0.00  0.00    -0.297 NA
ATOM      7  C   UNL     1      -0.098   0.791  25.117  0.00  0.00    +0.070 C 
ATOM      8  C   UNL     1       0.681   1.316  23.898  0.00  0.00    +0.028 C 
ATOM      9  C   UNL     1      -0.779   2.034  25.707  0.00  0.00    +0.096 C 
ATOM     10  C   UNL     1       0.377   2.808  23.849  0.00  0.00    +0.085 C 
ENDROOT
BRANCH   7  11
ATOM      4  N   UNL     1      -2.375  -0.065  24.495  0.00  0.00    -0.340 N 
ATOM      5  N   UNL     1      -0.812  -1.616  24.824  0.00  0.00    -0.213 NA
ATOM      6  N   UNL     1      -2.214  -3.547  24.377  0.00  0.00    -0.234 NA
ATOM     11  C   UNL     1      -1.071  -0.326  24.817  0.00  0.00    +0.114 A 
ATOM     14  C   UNL     1      -2.997  -1.264  24.281  0.00  0.00    +0.085 A 
ATOM     15  C   UNL     1      -2.003  -2.212  24.492  0.00  0.00    +0.178 A 
ATOM     18  C   UNL     1      -4.295  -1.623  23.932  0.00  0.00    +0.031 A 
ATOM     21  C   UNL     1      -4.527  -2.990  23.811  0.00  0.00    +0.022 A 
ATOM     23  C   UNL     1      -3.481  -3.880  24.038  0.00  0.00    +0.113 A 
ATOM     24  H   UNL     1      -2.803   0.849  24.427  0.00  0.00    +0.167 HD
ENDBRANCH   7  11
BRANCH   3  12
ATOM     12  C   UNL     1      -0.550   4.430  25.394  0.00  0.00    +0.119 C 
BRANCH  12  13
ATOM      1  F   UNL     1      -4.779   3.387  23.191  0.00  0.00    -0.202 F 
ATOM      2  F   UNL     1      -6.172   4.051  25.448  0.00  0.00    -0.202 F 
ATOM     13  C   UNL     1      -2.053   4.328  25.408  0.00  0.00    -0.030 A 
ATOM     16  C   UNL     1      -2.733   3.897  24.271  0.00  0.00    +0.046 A 
ATOM     17  C   UNL     1      -2.763   4.667  26.560  0.00  0.00    +0.008 A 
ATOM     19  C   UNL     1      -4.125   3.803  24.284  0.00  0.00    +0.159 A 
ATOM     20  C   UNL     1      -4.154   4.573  26.574  0.00  0.00    +0.041 A 
ATOM     22  C   UNL     1      -4.836   4.141  25.436  0.00  0.00    +0.158 A 
ENDBRANCH  12  13
ENDBRANCH   3  12
TORSDOF 3
ENDMDL
MODEL 6
REMARK VINA RESULT:      -2.2      1.369      1.996
REMARK  Name = 51137036
REMARK  3 active torsions:
REMARK  status: ('A' for Active; 'I' for Inactive)
REMARK    1  A    between atoms: N_3  and  C_12
REMARK    2  A    between atoms: C_7  and  C_11
REMARK    3  A    between atoms: C_12  and  C_13
REMARK                            x       y       z     vdW  Elec       q    Type
REMARK                         _______ _______ _______ _____ _____    ______ ____
ROOT
ATOM      3  N   UNL     1       0.566   1.126  23.148  0.00  0.00    -0.297 NA
ATOM      7  C   UNL     1      -1.288   2.497  23.570  0.00  0.00    +0.070 C 
ATOM      8  C   UNL     1      -0.123   2.911  24.485  0.00  0.00    +0.028 C 
ATOM      9  C   UNL     1      -0.894   1.111  23.041  0.00  0.00    +0.096 C 
ATOM     10  C   UNL     1       0.844   1.735  24.447  0.00  0.00    +0.085 C 
ENDROOT
BRANCH   7  11
ATOM      4  N   UNL     1      -3.350   1.354  24.433  0.00  0.00    -0.340 N 
ATOM      5  N   UNL     1      -3.301   3.569  24.661  0.00  0.00    -0.213 NA
ATOM      6  N   UNL     1      -5.467   3.803  25.731  0.00  0.00    -0.234 NA
ATOM     11  C   UNL     1      -2.649   2.511  24.227  0.00  0.00    +0.114 A 
ATOM     14  C   UNL     1      -4.530   1.687  25.039  0.00  0.00    +0.085 A 
ATOM     15  C   UNL     1      -4.474   3.069  25.169  0.00  0.00    +0.178 A 
ATOM     18  C   UNL     1      -5.623   0.949  25.483  0.00  0.00    +0.031 A 
ATOM     21  C   UNL     1      -6.651   1.688  26.060  0.00  0.00    +0.022 A 
ATOM     23  C   UNL     1      -6.523   3.070  26.156  0.00  0.00    +0.113 A 
ATOM     24  H   UNL     1      -3.050   0.420  24.183  0.00  0.00    +0.167 HD
ENDBRANCH   7  11
BRANCH   3  12
ATOM     12  C   UNL     1       1.146  -0.204  23.023  0.00  0.00    +0.119 C 
BRANCH  12  13
ATOM      1  F   UNL     1       5.385  -2.304  24.221  0.00  0.00    -0.202 F 
ATOM      2  F   UNL     1       6.767  -0.090  23.406  0.00  0.00    -0.202 F 
ATOM     13  C   UNL     1       2.648  -0.174  23.125  0.00  0.00    -0.030 A 
ATOM     16  C   UNL     1       3.334  -1.275  23.636  0.00  0.00    +0.046 A 
ATOM     17  C   UNL     1       3.352   0.956  22.709  0.00  0.00    +0.008 A 
ATOM     19  C   UNL     1       4.726  -1.247  23.731  0.00  0.00    +0.159 A 
ATOM     20  C   UNL     1       4.743   0.984  22.804  0.00  0.00    +0.041 A 
ATOM     22  C   UNL     1       5.430  -0.116  23.315  0.00  0.00    +0.158 A 
ENDBRANCH  12  13
ENDBRANCH   3  12
TORSDOF 3
ENDMDL
MODEL 7
REMARK VINA RESULT:      -2.0      4.307      8.949
REMARK  Name = 51137036
REMARK  3 active torsions:
REMARK  status: ('A' for Active; 'I' for Inactive)
REMARK    1  A    between atoms: N_3  and  C_12
REMARK    2  A    between atoms: C_7  and  C_11
REMARK    3  A    between atoms: C_12  and  C_13
REMARK                            x       y       z     vdW  Elec       q    Type
REMARK                         _______ _______ _______ _____ _____    ______ ____
ROOT
ATOM      3  N   UNL     1      -1.312   1.381  23.933  0.00  0.00    -0.297 NA
ATOM      7  C   UNL     1       0.513   0.197  23.057  0.00  0.00    +0.070 C 
ATOM      8  C   UNL     1      -0.399  -0.766  23.837  0.00  0.00    +0.028 C 
ATOM      9  C   UNL     1       0.071   1.598  23.503  0.00  0.00    +0.096 C 
ATOM     10  C   UNL     1      -1.279   0.133  24.695  0.00  0.00    +0.085 C 
ENDROOT
BRANCH   7  11
ATOM      4  N   UNL     1       2.899   0.976  23.094  0.00  0.00    -0.340 N 
ATOM      5  N   UNL     1       2.575  -1.180  23.549  0.00  0.00    -0.213 NA
ATOM      6  N   UNL     1       4.907  -1.763  23.888  0.00  0.00    -0.234 NA
ATOM     11  C   UNL     1       1.994  -0.040  23.242  0.00  0.00    +0.114 A 
ATOM     14  C   UNL     1       4.144   0.457  23.321  0.00  0.00    +0.085 A 
ATOM     15  C   UNL     1       3.914  -0.884  23.602  0.00  0.00    +0.178 A 
ATOM     18  C   UNL     1       5.426   0.999  23.314  0.00  0.00    +0.031 A 
ATOM     21  C   UNL     1       6.455   0.108  23.604  0.00  0.00    +0.022 A 
ATOM     23  C   UNL     1       6.147  -1.221  23.876  0.00  0.00    +0.113 A 
ATOM     24  H   UNL     1       2.688   1.937  22.859  0.00  0.00    +0.167 HD
ENDBRANCH   7  11
BRANCH   3  12
ATOM     12  C   UNL     1      -1.832   2.494  24.713  0.00  0.00    +0.119 C 
BRANCH  12  13
ATOM      1  F   UNL     1      -6.154   4.535  25.702  0.00  0.00    -0.202 F 
ATOM      2  F   UNL     1      -7.405   2.116  25.456  0.00  0.00    -0.202 F 
ATOM     13  C   UNL     1      -3.321   2.393  24.912  0.00  0.00    -0.030 A 
ATOM     16  C   UNL     1      -4.062   3.533  25.221  0.00  0.00    +0.046 A 
ATOM     17  C   UNL     1      -3.959   1.159  24.786  0.00  0.00    +0.008 A 
ATOM     19  C   UNL     1      -5.442   3.440  25.405  0.00  0.00    +0.159 A 
ATOM     20  C   UNL     1      -5.338   1.065  24.970  0.00  0.00    +0.041 A 
ATOM     22  C   UNL     1      -6.080   2.205  25.279  0.00  0.00    +0.158 A 
ENDBRANCH  12  13
ENDBRANCH   3  12
TORSDOF 3
ENDMDL
MODEL 8
REMARK VINA RESULT:      -1.2      2.938      7.412
REMARK  Name = 51137036
REMARK  3 active torsions:
REMARK  status: ('A' for Active; 'I' for Inactive)
REMARK    1  A    between atoms: N_3  and  C_12
REMARK    2  A    between atoms: C_7  and  C_11
REMARK    3  A    between atoms: C_12  and  C_13
REMARK                            x       y       z     vdW  Elec       q    Type
REMARK                         _______ _______ _______ _____ _____    ______ ____
ROOT
ATOM      3  N   UNL     1      -2.864   2.057  24.645  0.00  0.00    -0.297 NA
ATOM      7  C   UNL     1      -0.605   2.333  24.080  0.00  0.00    +0.070 C 
ATOM      8  C   UNL     1      -1.483   2.635  22.853  0.00  0.00    +0.028 C 
ATOM      9  C   UNL     1      -1.536   1.594  25.051  0.00  0.00    +0.096 C 
ATOM     10  C   UNL     1      -2.842   2.031  23.183  0.00  0.00    +0.085 C 
ENDROOT
BRANCH   7  11
ATOM      4  N   UNL     1       1.844   2.215  23.543  0.00  0.00    -0.340 N 
ATOM      5  N   UNL     1       0.793   0.259  23.714  0.00  0.00    -0.213 NA
ATOM      6  N   UNL     1       2.715  -1.150  23.253  0.00  0.00    -0.234 NA
ATOM     11  C   UNL     1       0.663   1.566  23.781  0.00  0.00    +0.114 A 
ATOM     14  C   UNL     1       2.798   1.263  23.306  0.00  0.00    +0.085 A 
ATOM     15  C   UNL     1       2.118   0.056  23.419  0.00  0.00    +0.178 A 
ATOM     18  C   UNL     1       4.157   1.318  23.012  0.00  0.00    +0.031 A 
ATOM     21  C   UNL     1       4.783   0.087  22.838  0.00  0.00    +0.022 A 
ATOM     23  C   UNL     1       4.036  -1.079  22.966  0.00  0.00    +0.113 A 
ATOM     24  H   UNL     1       1.988   3.216  23.541  0.00  0.00    +0.167 HD
ENDBRANCH   7  11
BRANCH   3  12
ATOM     12  C   UNL     1      -3.932   1.236  25.198  0.00  0.00    +0.119 C 
BRANCH  12  13
ATOM      1  F   UNL     1      -1.347  -2.903  25.316  0.00  0.00    -0.202 F 
ATOM      2  F   UNL     1      -3.284  -4.208  23.894  0.00  0.00    -0.202 F 
ATOM     13  C   UNL     1      -3.758  -0.219  24.849  0.00  0.00    -0.030 A 
ATOM     16  C   UNL     1      -2.610  -0.900  25.252  0.00  0.00    +0.046 A 
ATOM     17  C   UNL     1      -4.747  -0.885  24.124  0.00  0.00    +0.008 A 
ATOM     19  C   UNL     1      -2.450  -2.248  24.929  0.00  0.00    +0.159 A 
ATOM     20  C   UNL     1      -4.587  -2.232  23.802  0.00  0.00    +0.041 A 
ATOM     22  C   UNL     1      -3.439  -2.914  24.204  0.00  0.00    +0.158 A 
ENDBRANCH  12  13
ENDBRANCH   3  12
TORSDOF 3
ENDMDL
MODEL 9
REMARK VINA RESULT:      -1.1      2.399      3.240
REMARK  Name = 51137036
REMARK  3 active torsions:
REMARK  status: ('A' for Active; 'I' for Inactive)
REMARK    1  A    between atoms: N_3  and  C_12
REMARK    2  A    between atoms: C_7  and  C_11
REMARK    3  A    between atoms: C_12  and  C_13
REMARK                            x       y       z     vdW  Elec       q    Type
REMARK                         _______ _______ _______ _____ _____    ______ ____
ROOT
ATOM      3  N   UNL     1      -2.479  -2.157  24.960  0.00  0.00    -0.297 NA
ATOM      7  C   UNL     1      -4.234  -0.660  25.382  0.00  0.00    +0.070 C 
ATOM      8  C   UNL     1      -4.526  -1.445  24.092  0.00  0.00    +0.028 C 
ATOM      9  C   UNL     1      -2.740  -0.890  25.647  0.00  0.00    +0.096 C 
ATOM     10  C   UNL     1      -3.187  -2.048  23.686  0.00  0.00    +0.085 C 
ENDROOT
BRANCH   7  11
ATOM      4  N   UNL     1      -3.806   1.717  24.696  0.00  0.00    -0.340 N 
ATOM      5  N   UNL     1      -5.671   1.364  25.860  0.00  0.00    -0.213 NA
ATOM      6  N   UNL     1      -6.439   3.666  25.893  0.00  0.00    -0.234 NA
ATOM     11  C   UNL     1      -4.604   0.805  25.332  0.00  0.00    +0.114 A 
ATOM     14  C   UNL     1      -4.399   2.943  24.822  0.00  0.00    +0.085 A 
ATOM     15  C   UNL     1      -5.556   2.695  25.549  0.00  0.00    +0.178 A 
ATOM     18  C   UNL     1      -4.061   4.221  24.388  0.00  0.00    +0.031 A 
ATOM     21  C   UNL     1      -4.957   5.229  24.734  0.00  0.00    +0.022 A 
ATOM     23  C   UNL     1      -6.095   4.904  25.464  0.00  0.00    +0.113 A 
ATOM     24  H   UNL     1      -2.936   1.521  24.218  0.00  0.00    +0.167 HD
ENDBRANCH   7  11
BRANCH   3  12
ATOM     12  C   UNL     1      -1.056  -2.411  24.784  0.00  0.00    +0.119 C 
BRANCH  12  13
ATOM      1  F   UNL     1       2.153  -0.029  21.982  0.00  0.00    -0.202 F 
ATOM      2  F   UNL     1       1.756   2.273  23.403  0.00  0.00    -0.202 F 
ATOM     13  C   UNL     1      -0.305  -1.159  24.415  0.00  0.00    -0.030 A 
ATOM     16  C   UNL     1       0.594  -1.175  23.349  0.00  0.00    +0.046 A 
ATOM     17  C   UNL     1      -0.508   0.015  25.140  0.00  0.00    +0.008 A 
ATOM     19  C   UNL     1       1.290  -0.015  23.007  0.00  0.00    +0.159 A 
ATOM     20  C   UNL     1       0.188   1.174  24.798  0.00  0.00    +0.041 A 
ATOM     22  C   UNL     1       1.087   1.160  23.731  0.00  0.00    +0.158 A 
ENDBRANCH  12  13
ENDBRANCH   3  12
TORSDOF 3
ENDMDL
MODEL 10
REMARK VINA RESULT:      -1.0      3.899      7.810
REMARK  Name = 51137036
REMARK  3 active torsions:
REMARK  status: ('A' for Active; 'I' for Inactive)
REMARK    1  A    between atoms: N_3  and  C_12
REMARK    2  A    between atoms: C_7  and  C_11
REMARK    3  A    between atoms: C_12  and  C_13
REMARK                            x       y       z     vdW  Elec       q    Type
REMARK                         _______ _______ _______ _____ _____    ______ ____
ROOT
ATOM      3  N   UNL     1      -4.201  -0.822  24.629  0.00  0.00    -0.297 NA
ATOM      7  C   UNL     1      -2.028  -1.280  23.877  0.00  0.00    +0.070 C 
ATOM      8  C   UNL     1      -2.201  -1.814  25.310  0.00  0.00    +0.028 C 
ATOM      9  C   UNL     1      -3.210  -0.321  23.675  0.00  0.00    +0.096 C 
ATOM     10  C   UNL     1      -3.443  -1.113  25.845  0.00  0.00    +0.085 C 
ENDROOT
BRANCH   7  11
ATOM      4  N   UNL     1       0.197  -1.193  22.719  0.00  0.00    -0.340 N 
ATOM      5  N   UNL     1      -0.231   0.481  24.125  0.00  0.00    -0.213 NA
ATOM      6  N   UNL     1       1.862   1.671  23.812  0.00  0.00    -0.234 NA
ATOM     11  C   UNL     1      -0.691  -0.633  23.597  0.00  0.00    +0.114 A 
ATOM     14  C   UNL     1       1.302  -0.387  22.678  0.00  0.00    +0.085 A 
ATOM     15  C   UNL     1       1.010   0.645  23.561  0.00  0.00    +0.178 A 
ATOM     18  C   UNL     1       2.504  -0.442  21.980  0.00  0.00    +0.031 A 
ATOM     21  C   UNL     1       3.390   0.603  22.229  0.00  0.00    +0.022 A 
ATOM     23  C   UNL     1       3.027   1.602  23.126  0.00  0.00    +0.113 A 
ATOM     24  H   UNL     1       0.063  -2.047  22.194  0.00  0.00    +0.167 HD
ENDBRANCH   7  11
BRANCH   3  12
ATOM     12  C   UNL     1      -5.278   0.131  24.862  0.00  0.00    +0.119 C 
BRANCH  12  13
ATOM      1  F   UNL     1      -6.003   4.886  25.690  0.00  0.00    -0.202 F 
ATOM      2  F   UNL     1      -3.310   5.303  25.926  0.00  0.00    -0.202 F 
ATOM     13  C   UNL     1      -4.752   1.513  25.147  0.00  0.00    -0.030 A 
ATOM     16  C   UNL     1      -5.638   2.580  25.289  0.00  0.00    +0.046 A 
ATOM     17  C   UNL     1      -3.379   1.725  25.267  0.00  0.00    +0.008 A 
ATOM     19  C   UNL     1      -5.151   3.861  25.553  0.00  0.00    +0.159 A 
ATOM     20  C   UNL     1      -2.892   3.005  25.530  0.00  0.00    +0.041 A 
ATOM     22  C   UNL     1      -3.778   4.073  25.673  0.00  0.00    +0.158 A 
ENDBRANCH  12  13
ENDBRANCH   3  12
TORSDOF 3
ENDMDL
