MODEL 1
REMARK VINA RESULT:      -4.2      0.000      0.000
REMARK  Name = 45784296
REMARK  5 active torsions:
REMARK  status: ('A' for Active; 'I' for Inactive)
REMARK    1  A    between atoms: O_1  and  C_18
REMARK    2  A    between atoms: O_1  and  C_23
REMARK    3  A    between atoms: N_2  and  C_11
REMARK    4  A    between atoms: C_6  and  C_10
REMARK    5  A    between atoms: C_11  and  C_13
REMARK                            x       y       z     vdW  Elec       q    Type
REMARK                         _______ _______ _______ _____ _____    ______ ____
ROOT
ATOM      2  N   UNL     1      11.051  -9.627  31.871  0.00  0.00    -0.296 NA
ATOM      6  C   UNL     1      12.729  -8.528  30.654  0.00  0.00    +0.070 C 
ATOM      7  C   UNL     1      13.318  -9.778  31.331  0.00  0.00    +0.028 C 
ATOM      8  C   UNL     1      11.391  -8.293  31.370  0.00  0.00    +0.096 C 
ATOM      9  C   UNL     1      12.305 -10.162  32.402  0.00  0.00    +0.085 C 
ENDROOT
BRANCH   6  10
ATOM      3  N   UNL     1      13.351  -6.237  31.468  0.00  0.00    -0.341 N 
ATOM      4  N   UNL     1      14.725  -7.137  29.971  0.00  0.00    -0.232 NA
ATOM     10  C   UNL     1      13.628  -7.314  30.672  0.00  0.00    +0.113 A 
ATOM     12  C   UNL     1      14.335  -5.303  31.267  0.00  0.00    +0.070 A 
ATOM     14  C   UNL     1      15.180  -5.888  30.328  0.00  0.00    +0.089 A 
ATOM     15  C   UNL     1      14.552  -4.037  31.809  0.00  0.00    +0.073 A 
ATOM     16  C   UNL     1      16.314  -5.182  29.893  0.00  0.00    +0.033 A 
ATOM     18  C   UNL     1      15.685  -3.347  31.365  0.00  0.00    +0.122 A 
ATOM     19  C   UNL     1      16.551  -3.908  30.423  0.00  0.00    +0.048 A 
ATOM     24  H   UNL     1      12.562  -6.142  32.095  0.00  0.00    +0.167 HD
BRANCH  18   1
ATOM      1  O   UNL     1      15.947  -2.104  31.861  0.00  0.00    -0.495 OA
ATOM     23  C   UNL     1      16.829  -1.278  31.103  0.00  0.00    +0.277 C 
ENDBRANCH  18   1
ENDBRANCH   6  10
BRANCH   2  11
ATOM     11  C   UNL     1       9.996  -9.593  32.873  0.00  0.00    +0.139 C 
BRANCH  11  13
ATOM      5  N   UNL     1       8.101  -8.068  32.873  0.00  0.00    -0.259 NA
ATOM     13  C   UNL     1       8.685  -9.139  32.291  0.00  0.00    +0.055 A 
ATOM     17  C   UNL     1       8.147  -9.822  31.211  0.00  0.00    +0.024 A 
ATOM     20  C   UNL     1       6.935  -9.377  30.697  0.00  0.00    +0.003 A 
ATOM     21  C   UNL     1       6.924  -7.664  32.348  0.00  0.00    +0.111 A 
ATOM     22  C   UNL     1       6.305  -8.278  31.270  0.00  0.00    +0.020 A 
ENDBRANCH  11  13
ENDBRANCH   2  11
TORSDOF 4
ENDMDL
MODEL 2
REMARK VINA RESULT:      -3.0      4.257      5.930
REMARK  Name = 45784296
REMARK  5 active torsions:
REMARK  status: ('A' for Active; 'I' for Inactive)
REMARK    1  A    between atoms: O_1  and  C_18
REMARK    2  A    between atoms: O_1  and  C_23
REMARK    3  A    between atoms: N_2  and  C_11
REMARK    4  A    between atoms: C_6  and  C_10
REMARK    5  A    between atoms: C_11  and  C_13
REMARK                            x       y       z     vdW  Elec       q    Type
REMARK                         _______ _______ _______ _____ _____    ______ ____
ROOT
ATOM      2  N   UNL     1      15.468  -9.186  29.634  0.00  0.00    -0.296 NA
ATOM      6  C   UNL     1      16.904  -8.018  28.193  0.00  0.00    +0.070 C 
ATOM      7  C   UNL     1      17.385  -7.852  29.645  0.00  0.00    +0.028 C 
ATOM      8  C   UNL     1      15.466  -8.543  28.318  0.00  0.00    +0.096 C 
ATOM      9  C   UNL     1      16.196  -8.262  30.504  0.00  0.00    +0.085 C 
ENDROOT
BRANCH   6  10
ATOM      3  N   UNL     1      16.894  -6.827  25.984  0.00  0.00    -0.341 N 
ATOM      4  N   UNL     1      17.197  -5.543  27.773  0.00  0.00    -0.232 NA
ATOM     10  C   UNL     1      17.003  -6.771  27.346  0.00  0.00    +0.113 A 
ATOM     12  C   UNL     1      17.025  -5.551  25.500  0.00  0.00    +0.070 A 
ATOM     14  C   UNL     1      17.214  -4.768  26.636  0.00  0.00    +0.089 A 
ATOM     15  C   UNL     1      16.997  -5.030  24.207  0.00  0.00    +0.073 A 
ATOM     16  C   UNL     1      17.385  -3.381  26.492  0.00  0.00    +0.033 A 
ATOM     18  C   UNL     1      17.169  -3.647  24.081  0.00  0.00    +0.122 A 
ATOM     19  C   UNL     1      17.361  -2.835  25.202  0.00  0.00    +0.048 A 
ATOM     24  H   UNL     1      16.743  -7.659  25.429  0.00  0.00    +0.167 HD
BRANCH  18   1
ATOM      1  O   UNL     1      17.150  -3.082  22.840  0.00  0.00    -0.495 OA
ATOM     23  C   UNL     1      17.135  -1.658  22.777  0.00  0.00    +0.277 C 
ENDBRANCH  18   1
ENDBRANCH   6  10
BRANCH   2  11
ATOM     11  C   UNL     1      14.124  -9.461  30.120  0.00  0.00    +0.139 C 
BRANCH  11  13
ATOM      5  N   UNL     1      13.410  -8.261  32.112  0.00  0.00    -0.259 NA
ATOM     13  C   UNL     1      13.502  -8.251  30.763  0.00  0.00    +0.055 A 
ATOM     17  C   UNL     1      13.061  -7.207  29.964  0.00  0.00    +0.024 A 
ATOM     20  C   UNL     1      12.492  -6.104  30.590  0.00  0.00    +0.003 A 
ATOM     21  C   UNL     1      12.851  -7.172  32.685  0.00  0.00    +0.111 A 
ATOM     22  C   UNL     1      12.382  -6.078  31.975  0.00  0.00    +0.020 A 
ENDBRANCH  11  13
ENDBRANCH   2  11
TORSDOF 4
ENDMDL
MODEL 3
REMARK VINA RESULT:      -2.3     14.252     17.031
REMARK  Name = 45784296
REMARK  5 active torsions:
REMARK  status: ('A' for Active; 'I' for Inactive)
REMARK    1  A    between atoms: O_1  and  C_18
REMARK    2  A    between atoms: O_1  and  C_23
REMARK    3  A    between atoms: N_2  and  C_11
REMARK    4  A    between atoms: C_6  and  C_10
REMARK    5  A    between atoms: C_11  and  C_13
REMARK                            x       y       z     vdW  Elec       q    Type
REMARK                         _______ _______ _______ _____ _____    ______ ____
ROOT
ATOM      2  N   UNL     1      -3.720   1.780  25.170  0.00  0.00    -0.296 NA
ATOM      6  C   UNL     1      -1.470   2.212  24.665  0.00  0.00    +0.070 C 
ATOM      7  C   UNL     1      -2.374   3.038  23.735  0.00  0.00    +0.028 C 
ATOM      8  C   UNL     1      -2.401   1.151  25.269  0.00  0.00    +0.096 C 
ATOM      9  C   UNL     1      -3.748   2.388  23.840  0.00  0.00    +0.085 C 
ENDROOT
BRANCH   6  10
ATOM      3  N   UNL     1       1.012   2.009  24.351  0.00  0.00    -0.341 N 
ATOM      4  N   UNL     1      -0.237   0.701  23.058  0.00  0.00    -0.232 NA
ATOM     10  C   UNL     1      -0.251   1.616  24.001  0.00  0.00    +0.113 A 
ATOM     12  C   UNL     1       1.899   1.299  23.582  0.00  0.00    +0.070 A 
ATOM     14  C   UNL     1       1.095   0.490  22.784  0.00  0.00    +0.089 A 
ATOM     15  C   UNL     1       3.292   1.295  23.519  0.00  0.00    +0.073 A 
ATOM     16  C   UNL     1       1.699  -0.381  21.862  0.00  0.00    +0.033 A 
ATOM     18  C   UNL     1       3.878   0.422  22.596  0.00  0.00    +0.122 A 
ATOM     19  C   UNL     1       3.098  -0.401  21.780  0.00  0.00    +0.048 A 
ATOM     24  H   UNL     1       1.253   2.698  25.050  0.00  0.00    +0.167 HD
BRANCH  18   1
ATOM      1  O   UNL     1       5.237   0.377  22.490  0.00  0.00    -0.495 OA
ATOM     23  C   UNL     1       5.954  -0.168  23.596  0.00  0.00    +0.277 C 
ENDBRANCH  18   1
ENDBRANCH   6  10
BRANCH   2  11
ATOM     11  C   UNL     1      -4.805   0.830  25.367  0.00  0.00    +0.139 C 
BRANCH  11  13
ATOM      5  N   UNL     1      -3.692  -1.214  26.074  0.00  0.00    -0.259 NA
ATOM     13  C   UNL     1      -4.370  -0.583  25.089  0.00  0.00    +0.055 A 
ATOM     17  C   UNL     1      -4.676  -1.161  23.867  0.00  0.00    +0.024 A 
ATOM     20  C   UNL     1      -4.261  -2.468  23.643  0.00  0.00    +0.003 A 
ATOM     21  C   UNL     1      -3.305  -2.483  25.821  0.00  0.00    +0.111 A 
ATOM     22  C   UNL     1      -3.562  -3.149  24.632  0.00  0.00    +0.020 A 
ENDBRANCH  11  13
ENDBRANCH   2  11
TORSDOF 4
ENDMDL
MODEL 4
REMARK VINA RESULT:      -1.9     15.002     18.651
REMARK  Name = 45784296
REMARK  5 active torsions:
REMARK  status: ('A' for Active; 'I' for Inactive)
REMARK    1  A    between atoms: O_1  and  C_18
REMARK    2  A    between atoms: O_1  and  C_23
REMARK    3  A    between atoms: N_2  and  C_11
REMARK    4  A    between atoms: C_6  and  C_10
REMARK    5  A    between atoms: C_11  and  C_13
REMARK                            x       y       z     vdW  Elec       q    Type
REMARK                         _______ _______ _______ _____ _____    ______ ____
ROOT
ATOM      2  N   UNL     1       0.737  -0.658  23.707  0.00  0.00    -0.296 NA
ATOM      6  C   UNL     1      -1.121  -0.294  25.092  0.00  0.00    +0.070 C 
ATOM      7  C   UNL     1      -1.205  -1.702  24.477  0.00  0.00    +0.028 C 
ATOM      8  C   UNL     1      -0.073   0.439  24.243  0.00  0.00    +0.096 C 
ATOM      9  C   UNL     1      -0.230  -1.680  23.306  0.00  0.00    +0.085 C 
ENDROOT
BRANCH   6  10
ATOM      3  N   UNL     1      -2.486   1.780  25.456  0.00  0.00    -0.341 N 
ATOM      4  N   UNL     1      -3.635  -0.063  24.986  0.00  0.00    -0.232 NA
ATOM     10  C   UNL     1      -2.437   0.444  25.170  0.00  0.00    +0.113 A 
ATOM     12  C   UNL     1      -3.803   2.160  25.457  0.00  0.00    +0.070 A 
ATOM     14  C   UNL     1      -4.501   0.992  25.161  0.00  0.00    +0.089 A 
ATOM     15  C   UNL     1      -4.426   3.388  25.684  0.00  0.00    +0.073 A 
ATOM     16  C   UNL     1      -5.903   1.032  25.083  0.00  0.00    +0.033 A 
ATOM     18  C   UNL     1      -5.823   3.410  25.602  0.00  0.00    +0.122 A 
ATOM     19  C   UNL     1      -6.550   2.254  25.308  0.00  0.00    +0.048 A 
ATOM     24  H   UNL     1      -1.694   2.384  25.636  0.00  0.00    +0.167 HD
BRANCH  18   1
ATOM      1  O   UNL     1      -6.485   4.583  25.816  0.00  0.00    -0.495 OA
ATOM     23  C   UNL     1      -6.075   5.707  25.041  0.00  0.00    +0.277 C 
ENDBRANCH  18   1
ENDBRANCH   6  10
BRANCH   2  11
ATOM     11  C   UNL     1       1.584  -0.234  22.602  0.00  0.00    +0.139 C 
BRANCH  11  13
ATOM      5  N   UNL     1       3.549  -1.312  23.548  0.00  0.00    -0.259 NA
ATOM     13  C   UNL     1       3.036  -0.191  22.993  0.00  0.00    +0.055 A 
ATOM     17  C   UNL     1       3.765   0.968  22.774  0.00  0.00    +0.024 A 
ATOM     20  C   UNL     1       5.105   0.975  23.146  0.00  0.00    +0.003 A 
ATOM     21  C   UNL     1       4.854  -1.268  23.897  0.00  0.00    +0.111 A 
ATOM     22  C   UNL     1       5.667  -0.160  23.719  0.00  0.00    +0.020 A 
ENDBRANCH  11  13
ENDBRANCH   2  11
TORSDOF 4
ENDMDL
MODEL 5
REMARK VINA RESULT:      -1.0     14.700     17.543
REMARK  Name = 45784296
REMARK  5 active torsions:
REMARK  status: ('A' for Active; 'I' for Inactive)
REMARK    1  A    between atoms: O_1  and  C_18
REMARK    2  A    between atoms: O_1  and  C_23
REMARK    3  A    between atoms: N_2  and  C_11
REMARK    4  A    between atoms: C_6  and  C_10
REMARK    5  A    between atoms: C_11  and  C_13
REMARK                            x       y       z     vdW  Elec       q    Type
REMARK                         _______ _______ _______ _____ _____    ______ ____
ROOT
ATOM      2  N   UNL     1      -4.399  -0.681  24.735  0.00  0.00    -0.296 NA
ATOM      6  C   UNL     1      -2.154  -1.186  24.277  0.00  0.00    +0.070 C 
ATOM      7  C   UNL     1      -2.430  -1.378  25.779  0.00  0.00    +0.028 C 
ATOM      8  C   UNL     1      -3.347  -0.366  23.766  0.00  0.00    +0.096 C 
ATOM      9  C   UNL     1      -3.736  -0.639  26.038  0.00  0.00    +0.085 C 
ENDROOT
BRANCH   6  10
ATOM      3  N   UNL     1       0.263  -1.315  23.614  0.00  0.00    -0.341 N 
ATOM      4  N   UNL     1      -0.540   0.730  23.951  0.00  0.00    -0.232 NA
ATOM     10  C   UNL     1      -0.822  -0.553  23.952  0.00  0.00    +0.113 A 
ATOM     12  C   UNL     1       1.314  -0.466  23.379  0.00  0.00    +0.070 A 
ATOM     14  C   UNL     1       0.788   0.805  23.597  0.00  0.00    +0.089 A 
ATOM     15  C   UNL     1       2.639  -0.693  23.007  0.00  0.00    +0.073 A 
ATOM     16  C   UNL     1       1.618   1.927  23.437  0.00  0.00    +0.033 A 
ATOM     18  C   UNL     1       3.451   0.435  22.852  0.00  0.00    +0.122 A 
ATOM     19  C   UNL     1       2.952   1.723  23.064  0.00  0.00    +0.048 A 
ATOM     24  H   UNL     1       0.289  -2.324  23.548  0.00  0.00    +0.167 HD
BRANCH  18   1
ATOM      1  O   UNL     1       4.756   0.273  22.490  0.00  0.00    -0.495 OA
ATOM     23  C   UNL     1       5.690   0.009  23.535  0.00  0.00    +0.277 C 
ENDBRANCH  18   1
ENDBRANCH   6  10
BRANCH   2  11
ATOM     11  C   UNL     1      -5.522   0.241  24.655  0.00  0.00    +0.139 C 
BRANCH  11  13
ATOM      5  N   UNL     1      -4.112   2.094  23.953  0.00  0.00    -0.259 NA
ATOM     13  C   UNL     1      -5.083   1.673  24.794  0.00  0.00    +0.055 A 
ATOM     17  C   UNL     1      -5.679   2.477  25.754  0.00  0.00    +0.024 A 
ATOM     20  C   UNL     1      -5.251   3.795  25.855  0.00  0.00    +0.003 A 
ATOM     21  C   UNL     1      -3.722   3.381  24.081  0.00  0.00    +0.111 A 
ATOM     22  C   UNL     1      -4.255   4.264  25.007  0.00  0.00    +0.020 A 
ENDBRANCH  11  13
ENDBRANCH   2  11
TORSDOF 4
ENDMDL
MODEL 6
REMARK VINA RESULT:      -0.4     14.924     18.291
REMARK  Name = 45784296
REMARK  5 active torsions:
REMARK  status: ('A' for Active; 'I' for Inactive)
REMARK    1  A    between atoms: O_1  and  C_18
REMARK    2  A    between atoms: O_1  and  C_23
REMARK    3  A    between atoms: N_2  and  C_11
REMARK    4  A    between atoms: C_6  and  C_10
REMARK    5  A    between atoms: C_11  and  C_13
REMARK                            x       y       z     vdW  Elec       q    Type
REMARK                         _______ _______ _______ _____ _____    ______ ____
ROOT
ATOM      2  N   UNL     1       1.171  -0.599  23.199  0.00  0.00    -0.296 NA
ATOM      6  C   UNL     1      -0.587  -0.032  24.645  0.00  0.00    +0.070 C 
ATOM      7  C   UNL     1      -1.087  -1.042  23.597  0.00  0.00    +0.028 C 
ATOM      8  C   UNL     1       0.740   0.492  24.077  0.00  0.00    +0.096 C 
ATOM      9  C   UNL     1      -0.040  -1.014  22.491  0.00  0.00    +0.085 C 
ENDROOT
BRANCH   6  10
ATOM      3  N   UNL     1      -2.904   0.927  24.754  0.00  0.00    -0.341 N 
ATOM      4  N   UNL     1      -1.275   2.249  25.488  0.00  0.00    -0.232 NA
ATOM     10  C   UNL     1      -1.563   1.073  24.976  0.00  0.00    +0.113 A 
ATOM     12  C   UNL     1      -3.523   2.085  25.149  0.00  0.00    +0.070 A 
ATOM     14  C   UNL     1      -2.485   2.895  25.603  0.00  0.00    +0.089 A 
ATOM     15  C   UNL     1      -4.860   2.483  25.149  0.00  0.00    +0.073 A 
ATOM     16  C   UNL     1      -2.779   4.180  26.089  0.00  0.00    +0.033 A 
ATOM     18  C   UNL     1      -5.136   3.765  25.636  0.00  0.00    +0.122 A 
ATOM     19  C   UNL     1      -4.115   4.600  26.097  0.00  0.00    +0.048 A 
ATOM     24  H   UNL     1      -3.362   0.112  24.369  0.00  0.00    +0.167 HD
BRANCH  18   1
ATOM      1  O   UNL     1      -6.426   4.207  25.659  0.00  0.00    -0.495 OA
ATOM     23  C   UNL     1      -6.633   5.607  25.487  0.00  0.00    +0.277 C 
ENDBRANCH  18   1
ENDBRANCH   6  10
BRANCH   2  11
ATOM     11  C   UNL     1       2.232  -0.193  22.289  0.00  0.00    +0.139 C 
BRANCH  11  13
ATOM      5  N   UNL     1       3.944  -1.422  23.503  0.00  0.00    -0.259 NA
ATOM     13  C   UNL     1       3.584  -0.244  22.946  0.00  0.00    +0.055 A 
ATOM     17  C   UNL     1       4.381   0.891  22.951  0.00  0.00    +0.024 A 
ATOM     20  C   UNL     1       5.625   0.809  23.566  0.00  0.00    +0.003 A 
ATOM     21  C   UNL     1       5.160  -1.464  24.091  0.00  0.00    +0.111 A 
ATOM     22  C   UNL     1       6.030  -0.386  24.149  0.00  0.00    +0.020 A 
ENDBRANCH  11  13
ENDBRANCH   2  11
TORSDOF 4
ENDMDL
MODEL 7
REMARK VINA RESULT:      -0.2      4.660      6.960
REMARK  Name = 45784296
REMARK  5 active torsions:
REMARK  status: ('A' for Active; 'I' for Inactive)
REMARK    1  A    between atoms: O_1  and  C_18
REMARK    2  A    between atoms: O_1  and  C_23
REMARK    3  A    between atoms: N_2  and  C_11
REMARK    4  A    between atoms: C_6  and  C_10
REMARK    5  A    between atoms: C_11  and  C_13
REMARK                            x       y       z     vdW  Elec       q    Type
REMARK                         _______ _______ _______ _____ _____    ______ ____
ROOT
ATOM      2  N   UNL     1      15.728  -7.356  29.067  0.00  0.00    -0.296 NA
ATOM      6  C   UNL     1      17.110  -5.662  28.216  0.00  0.00    +0.070 C 
ATOM      7  C   UNL     1      16.566  -5.240  29.592  0.00  0.00    +0.028 C 
ATOM      8  C   UNL     1      16.216  -6.835  27.788  0.00  0.00    +0.096 C 
ATOM      9  C   UNL     1      15.387  -6.170  29.853  0.00  0.00    +0.085 C 
ENDROOT
BRANCH   6  10
ATOM      3  N   UNL     1      17.219  -4.833  25.850  0.00  0.00    -0.341 N 
ATOM      4  N   UNL     1      17.164  -3.264  27.423  0.00  0.00    -0.232 NA
ATOM     10  C   UNL     1      17.163  -4.557  27.188  0.00  0.00    +0.113 A 
ATOM     12  C   UNL     1      17.258  -3.639  25.177  0.00  0.00    +0.070 A 
ATOM     14  C   UNL     1      17.224  -2.674  26.181  0.00  0.00    +0.089 A 
ATOM     15  C   UNL     1      17.320  -3.328  23.819  0.00  0.00    +0.073 A 
ATOM     16  C   UNL     1      17.250  -1.315  25.827  0.00  0.00    +0.033 A 
ATOM     18  C   UNL     1      17.345  -1.970  23.484  0.00  0.00    +0.122 A 
ATOM     19  C   UNL     1      17.312  -0.980  24.468  0.00  0.00    +0.048 A 
ATOM     24  H   UNL     1      17.229  -5.752  25.428  0.00  0.00    +0.167 HD
BRANCH  18   1
ATOM      1  O   UNL     1      17.405  -1.608  22.170  0.00  0.00    -0.495 OA
ATOM     23  C   UNL     1      16.302  -0.868  21.652  0.00  0.00    +0.277 C 
ENDBRANCH  18   1
ENDBRANCH   6  10
BRANCH   2  11
ATOM     11  C   UNL     1      14.596  -8.256  28.905  0.00  0.00    +0.139 C 
BRANCH  11  13
ATOM      5  N   UNL     1      13.201  -9.729  30.247  0.00  0.00    -0.259 NA
ATOM     13  C   UNL     1      14.413  -9.150  30.101  0.00  0.00    +0.055 A 
ATOM     17  C   UNL     1      15.471  -9.335  30.979  0.00  0.00    +0.024 A 
ATOM     20  C   UNL     1      15.269 -10.168  32.073  0.00  0.00    +0.003 A 
ATOM     21  C   UNL     1      13.042 -10.531  31.322  0.00  0.00    +0.111 A 
ATOM     22  C   UNL     1      14.036 -10.781  32.256  0.00  0.00    +0.020 A 
ENDBRANCH  11  13
ENDBRANCH   2  11
TORSDOF 4
ENDMDL
