MODEL 1
REMARK VINA RESULT:      -1.9      0.000      0.000
REMARK  Name = 26743088
REMARK  10 active torsions:
REMARK  status: ('A' for Active; 'I' for Inactive)
REMARK    1  A    between atoms: S_1  and  C_21
REMARK    2  A    between atoms: S_1  and  C_27
REMARK    3  A    between atoms: N_5  and  C_17
REMARK    4  A    between atoms: N_5  and  C_19
REMARK    5  A    between atoms: C_7  and  C_12
REMARK    6  A    between atoms: C_8  and  C_13
REMARK    7  A    between atoms: C_12  and  C_15
REMARK    8  A    between atoms: C_13  and  C_14
REMARK    9  A    between atoms: C_17  and  C_20
REMARK   10  A    between atoms: C_18  and  C_21
REMARK                            x       y       z     vdW  Elec       q    Type
REMARK                         _______ _______ _______ _____ _____    ______ ____
ROOT
ATOM      4  N   UNL     1      -4.344  -2.775  23.781  0.00  0.00    -0.316 NA
ATOM      7  C   UNL     1      -2.155  -1.473  25.225  0.00  0.00    +0.004 C 
ATOM      8  C   UNL     1      -3.445  -0.706  24.844  0.00  0.00    +0.012 C 
ATOM      9  C   UNL     1      -1.921  -2.660  24.279  0.00  0.00    +0.019 C 
ATOM     10  C   UNL     1      -4.616  -1.699  24.736  0.00  0.00    +0.085 C 
ATOM     11  C   UNL     1      -3.163  -3.543  24.172  0.00  0.00    +0.081 C 
ATOM     33  H   UNL     1      -4.207  -2.389  22.850  0.00  0.00    +0.122 HD
ENDROOT
BRANCH   7  12
ATOM     12  C   UNL     1      -0.917  -0.580  25.294  0.00  0.00    +0.100 C 
BRANCH  12  15
ATOM      2  O   UNL     1       0.784  -2.129  24.621  0.00  0.00    -0.276 OA
ATOM      5  N   UNL     1       0.508  -0.243  23.299  0.00  0.00    -0.300 N 
ATOM     15  C   UNL     1       0.200  -1.067  24.387  0.00  0.00    +0.216 C 
ATOM     19  C   UNL     1      -0.195   1.008  23.043  0.00  0.00    +0.132 C 
BRANCH   5  17
ATOM     17  C   UNL     1       1.557  -0.574  22.338  0.00  0.00    +0.142 C 
BRANCH  17  20
ATOM     20  C   UNL     1       2.926  -0.280  22.876  0.00  0.00    -0.030 A 
ATOM     22  C   UNL     1       3.662  -1.287  23.501  0.00  0.00    +0.005 A 
ATOM     23  C   UNL     1       3.465   1.001  22.754  0.00  0.00    +0.005 A 
ATOM     24  C   UNL     1       4.935  -1.014  24.002  0.00  0.00    +0.000 A 
ATOM     25  C   UNL     1       4.737   1.275  23.255  0.00  0.00    +0.000 A 
ATOM     26  C   UNL     1       5.472   0.267  23.879  0.00  0.00    +0.000 A 
ENDBRANCH  17  20
ENDBRANCH   5  17
ENDBRANCH  12  15
ENDBRANCH   7  12
BRANCH   8  13
ATOM     13  C   UNL     1      -3.316   0.125  23.560  0.00  0.00    +0.064 C 
BRANCH  13  14
ATOM      3  O   UNL     1      -4.008   3.652  23.363  0.00  0.00    -0.359 OA
ATOM      6  N   UNL     1      -3.521   2.463  22.834  0.00  0.00    -0.083 NA
ATOM     14  C   UNL     1      -3.725   1.551  23.788  0.00  0.00    +0.084 A 
ATOM     16  C   UNL     1      -4.331   2.101  24.931  0.00  0.00    +0.071 A 
ATOM     18  C   UNL     1      -4.488   3.424  24.612  0.00  0.00    +0.148 A 
BRANCH  18  21
ATOM     21  C   UNL     1      -5.045   4.582  25.321  0.00  0.00    +0.151 C 
BRANCH  21   1
ATOM      1  S   UNL     1      -3.889   5.306  26.538  0.00  0.00    -0.117 S 
BRANCH   1  27
ATOM     27  C   UNL     1      -2.340   4.593  26.005  0.00  0.00    +0.008 A 
ATOM     28  C   UNL     1      -1.562   5.249  25.050  0.00  0.00    +0.015 A 
ATOM     29  C   UNL     1      -1.909   3.381  26.542  0.00  0.00    +0.015 A 
ATOM     30  C   UNL     1      -0.353   4.692  24.633  0.00  0.00    +0.001 A 
ATOM     31  C   UNL     1      -0.700   2.823  26.125  0.00  0.00    +0.001 A 
ATOM     32  C   UNL     1       0.078   3.480  25.170  0.00  0.00    +0.000 A 
ENDBRANCH   1  27
ENDBRANCH  21   1
ENDBRANCH  18  21
ENDBRANCH  13  14
ENDBRANCH   8  13
TORSDOF 9
ENDMDL
MODEL 2
REMARK VINA RESULT:      -1.7      2.289      7.288
REMARK  Name = 26743088
REMARK  10 active torsions:
REMARK  status: ('A' for Active; 'I' for Inactive)
REMARK    1  A    between atoms: S_1  and  C_21
REMARK    2  A    between atoms: S_1  and  C_27
REMARK    3  A    between atoms: N_5  and  C_17
REMARK    4  A    between atoms: N_5  and  C_19
REMARK    5  A    between atoms: C_7  and  C_12
REMARK    6  A    between atoms: C_8  and  C_13
REMARK    7  A    between atoms: C_12  and  C_15
REMARK    8  A    between atoms: C_13  and  C_14
REMARK    9  A    between atoms: C_17  and  C_20
REMARK   10  A    between atoms: C_18  and  C_21
REMARK                            x       y       z     vdW  Elec       q    Type
REMARK                         _______ _______ _______ _____ _____    ______ ____
ROOT
ATOM      4  N   UNL     1      -0.269   4.430  24.854  0.00  0.00    -0.316 NA
ATOM      7  C   UNL     1      -3.018   4.417  25.862  0.00  0.00    +0.004 C 
ATOM      8  C   UNL     1      -2.175   3.122  25.791  0.00  0.00    +0.012 C 
ATOM      9  C   UNL     1      -2.526   5.452  24.839  0.00  0.00    +0.019 C 
ATOM     10  C   UNL     1      -0.680   3.479  25.888  0.00  0.00    +0.085 C 
ATOM     11  C   UNL     1      -1.020   5.682  24.958  0.00  0.00    +0.081 C 
ATOM     33  H   UNL     1      -0.409   4.024  23.931  0.00  0.00    +0.122 HD
ENDROOT
BRANCH   7  12
ATOM     12  C   UNL     1      -4.519   4.173  25.709  0.00  0.00    +0.100 C 
BRANCH  12  15
ATOM      2  O   UNL     1      -4.478   3.048  23.593  0.00  0.00    -0.276 OA
ATOM      5  N   UNL     1      -5.513   1.936  25.347  0.00  0.00    -0.300 N 
ATOM     15  C   UNL     1      -4.826   3.014  24.777  0.00  0.00    +0.216 C 
ATOM     19  C   UNL     1      -5.915   1.918  26.748  0.00  0.00    +0.132 C 
BRANCH   5  17
ATOM     17  C   UNL     1      -5.881   0.748  24.580  0.00  0.00    +0.142 C 
BRANCH  17  20
ATOM     20  C   UNL     1      -4.880  -0.357  24.741  0.00  0.00    -0.030 A 
ATOM     22  C   UNL     1      -4.202  -0.515  25.951  0.00  0.00    +0.005 A 
ATOM     23  C   UNL     1      -4.624  -1.229  23.682  0.00  0.00    +0.005 A 
ATOM     24  C   UNL     1      -3.271  -1.542  26.101  0.00  0.00    +0.000 A 
ATOM     25  C   UNL     1      -3.693  -2.256  23.832  0.00  0.00    +0.000 A 
ATOM     26  C   UNL     1      -3.017  -2.412  25.042  0.00  0.00    +0.000 A 
ENDBRANCH  17  20
ENDBRANCH   5  17
ENDBRANCH  12  15
ENDBRANCH   7  12
BRANCH   8  13
ATOM     13  C   UNL     1      -2.450   2.270  24.544  0.00  0.00    +0.064 C 
BRANCH  13  14
ATOM      3  O   UNL     1      -0.084  -0.410  24.968  0.00  0.00    -0.359 OA
ATOM      6  N   UNL     1      -1.008   0.503  25.459  0.00  0.00    -0.083 NA
ATOM     14  C   UNL     1      -1.426   1.182  24.388  0.00  0.00    +0.084 A 
ATOM     16  C   UNL     1      -0.807   0.746  23.204  0.00  0.00    +0.071 A 
ATOM     18  C   UNL     1       0.027  -0.256  23.623  0.00  0.00    +0.148 A 
BRANCH  18  21
ATOM     21  C   UNL     1       0.969  -1.149  22.937  0.00  0.00    +0.151 C 
BRANCH  21   1
ATOM      1  S   UNL     1       2.102  -0.269  21.805  0.00  0.00    -0.117 S 
BRANCH   1  27
ATOM     27  C   UNL     1       3.597  -0.226  22.782  0.00  0.00    +0.008 A 
ATOM     28  C   UNL     1       4.005  -1.360  23.485  0.00  0.00    +0.015 A 
ATOM     29  C   UNL     1       4.356   0.942  22.844  0.00  0.00    +0.015 A 
ATOM     30  C   UNL     1       5.172  -1.326  24.248  0.00  0.00    +0.001 A 
ATOM     31  C   UNL     1       5.524   0.977  23.607  0.00  0.00    +0.001 A 
ATOM     32  C   UNL     1       5.931  -0.158  24.309  0.00  0.00    +0.000 A 
ENDBRANCH   1  27
ENDBRANCH  21   1
ENDBRANCH  18  21
ENDBRANCH  13  14
ENDBRANCH   8  13
TORSDOF 9
ENDMDL
MODEL 3
REMARK VINA RESULT:      -0.2      1.291      1.786
REMARK  Name = 26743088
REMARK  10 active torsions:
REMARK  status: ('A' for Active; 'I' for Inactive)
REMARK    1  A    between atoms: S_1  and  C_21
REMARK    2  A    between atoms: S_1  and  C_27
REMARK    3  A    between atoms: N_5  and  C_17
REMARK    4  A    between atoms: N_5  and  C_19
REMARK    5  A    between atoms: C_7  and  C_12
REMARK    6  A    between atoms: C_8  and  C_13
REMARK    7  A    between atoms: C_12  and  C_15
REMARK    8  A    between atoms: C_13  and  C_14
REMARK    9  A    between atoms: C_17  and  C_20
REMARK   10  A    between atoms: C_18  and  C_21
REMARK                            x       y       z     vdW  Elec       q    Type
REMARK                         _______ _______ _______ _____ _____    ______ ____
ROOT
ATOM      4  N   UNL     1      -3.576  -3.195  25.046  0.00  0.00    -0.316 NA
ATOM      7  C   UNL     1      -1.597  -1.054  24.785  0.00  0.00    +0.004 C 
ATOM      8  C   UNL     1      -3.031  -0.774  25.294  0.00  0.00    +0.012 C 
ATOM      9  C   UNL     1      -1.559  -2.315  23.909  0.00  0.00    +0.019 C 
ATOM     10  C   UNL     1      -3.596  -2.046  25.953  0.00  0.00    +0.085 C 
ATOM     11  C   UNL     1      -2.214  -3.503  24.612  0.00  0.00    +0.081 C 
ATOM     33  H   UNL     1      -4.159  -3.008  24.232  0.00  0.00    +0.122 HD
ENDROOT
BRANCH   7  12
ATOM     12  C   UNL     1      -0.969   0.133  24.055  0.00  0.00    +0.100 C 
BRANCH  12  15
ATOM      2  O   UNL     1      -0.074  -1.282  22.341  0.00  0.00    -0.276 OA
ATOM      5  N   UNL     1       1.252   0.494  23.025  0.00  0.00    -0.300 N 
ATOM     15  C   UNL     1       0.096  -0.295  23.060  0.00  0.00    +0.216 C 
ATOM     19  C   UNL     1       1.432   1.656  23.885  0.00  0.00    +0.132 C 
BRANCH   5  17
ATOM     17  C   UNL     1       2.366   0.210  22.122  0.00  0.00    +0.142 C 
BRANCH  17  20
ATOM     20  C   UNL     1       3.632  -0.089  22.870  0.00  0.00    -0.030 A 
ATOM     22  C   UNL     1       4.632   0.880  22.965  0.00  0.00    +0.005 A 
ATOM     23  C   UNL     1       3.811  -1.336  23.469  0.00  0.00    +0.005 A 
ATOM     24  C   UNL     1       5.809   0.602  23.660  0.00  0.00    +0.000 A 
ATOM     25  C   UNL     1       4.988  -1.614  24.164  0.00  0.00    +0.000 A 
ATOM     26  C   UNL     1       5.987  -0.645  24.259  0.00  0.00    +0.000 A 
ENDBRANCH  17  20
ENDBRANCH   5  17
ENDBRANCH  12  15
ENDBRANCH   7  12
BRANCH   8  13
ATOM     13  C   UNL     1      -3.984  -0.254  24.210  0.00  0.00    +0.064 C 
BRANCH  13  14
ATOM      3  O   UNL     1      -6.104   2.380  25.446  0.00  0.00    -0.359 OA
ATOM      6  N   UNL     1      -5.819   1.041  25.206  0.00  0.00    -0.083 NA
ATOM     14  C   UNL     1      -4.620   1.044  24.617  0.00  0.00    +0.084 A 
ATOM     16  C   UNL     1      -4.104   2.341  24.462  0.00  0.00    +0.071 A 
ATOM     18  C   UNL     1      -5.075   3.145  24.999  0.00  0.00    +0.148 A 
BRANCH  18  21
ATOM     21  C   UNL     1      -5.212   4.595  25.176  0.00  0.00    +0.151 C 
BRANCH  21   1
ATOM      1  S   UNL     1      -4.134   5.265  26.493  0.00  0.00    -0.117 S 
BRANCH   1  27
ATOM     27  C   UNL     1      -2.546   4.613  26.000  0.00  0.00    +0.008 A 
ATOM     28  C   UNL     1      -2.076   3.424  26.558  0.00  0.00    +0.015 A 
ATOM     29  C   UNL     1      -1.775   5.293  25.057  0.00  0.00    +0.015 A 
ATOM     30  C   UNL     1      -0.836   2.915  26.173  0.00  0.00    +0.001 A 
ATOM     31  C   UNL     1      -0.534   4.785  24.672  0.00  0.00    +0.001 A 
ATOM     32  C   UNL     1      -0.065   3.596  25.230  0.00  0.00    +0.000 A 
ENDBRANCH   1  27
ENDBRANCH  21   1
ENDBRANCH  18  21
ENDBRANCH  13  14
ENDBRANCH   8  13
TORSDOF 9
ENDMDL
MODEL 4
REMARK VINA RESULT:       0.1      1.901      4.384
REMARK  Name = 26743088
REMARK  10 active torsions:
REMARK  status: ('A' for Active; 'I' for Inactive)
REMARK    1  A    between atoms: S_1  and  C_21
REMARK    2  A    between atoms: S_1  and  C_27
REMARK    3  A    between atoms: N_5  and  C_17
REMARK    4  A    between atoms: N_5  and  C_19
REMARK    5  A    between atoms: C_7  and  C_12
REMARK    6  A    between atoms: C_8  and  C_13
REMARK    7  A    between atoms: C_12  and  C_15
REMARK    8  A    between atoms: C_13  and  C_14
REMARK    9  A    between atoms: C_17  and  C_20
REMARK   10  A    between atoms: C_18  and  C_21
REMARK                            x       y       z     vdW  Elec       q    Type
REMARK                         _______ _______ _______ _____ _____    ______ ____
ROOT
ATOM      4  N   UNL     1      -2.107   5.204  25.509  0.00  0.00    -0.316 NA
ATOM      7  C   UNL     1      -0.526   2.741  25.448  0.00  0.00    +0.004 C 
ATOM      8  C   UNL     1      -0.461   3.775  24.298  0.00  0.00    +0.012 C 
ATOM      9  C   UNL     1      -1.860   2.839  26.203  0.00  0.00    +0.019 C 
ATOM     10  C   UNL     1      -0.802   5.172  24.847  0.00  0.00    +0.085 C 
ATOM     11  C   UNL     1      -2.151   4.275  26.638  0.00  0.00    +0.081 C 
ATOM     33  H   UNL     1      -2.842   4.968  24.844  0.00  0.00    +0.122 HD
ENDROOT
BRANCH   7  12
ATOM     12  C   UNL     1      -0.264   1.307  24.991  0.00  0.00    +0.100 C 
BRANCH  12  15
ATOM      2  O   UNL     1       1.772   2.085  23.995  0.00  0.00    -0.276 OA
ATOM      5  N   UNL     1       0.914   0.087  23.188  0.00  0.00    -0.300 N 
ATOM     15  C   UNL     1       0.902   1.211  24.022  0.00  0.00    +0.216 C 
ATOM     19  C   UNL     1      -0.125  -0.934  23.237  0.00  0.00    +0.132 C 
BRANCH   5  17
ATOM     17  C   UNL     1       1.968  -0.147  22.204  0.00  0.00    +0.142 C 
BRANCH  17  20
ATOM     20  C   UNL     1       3.321  -0.251  22.844  0.00  0.00    -0.030 A 
ATOM     22  C   UNL     1       3.699  -1.428  23.490  0.00  0.00    +0.005 A 
ATOM     23  C   UNL     1       4.203   0.830  22.793  0.00  0.00    +0.005 A 
ATOM     24  C   UNL     1       4.957  -1.525  24.085  0.00  0.00    +0.000 A 
ATOM     25  C   UNL     1       5.461   0.733  23.388  0.00  0.00    +0.000 A 
ATOM     26  C   UNL     1       5.837  -0.444  24.034  0.00  0.00    +0.000 A 
ENDBRANCH  17  20
ENDBRANCH   5  17
ENDBRANCH  12  15
ENDBRANCH   7  12
BRANCH   8  13
ATOM     13  C   UNL     1      -1.358   3.427  23.101  0.00  0.00    +0.064 C 
BRANCH  13  14
ATOM      3  O   UNL     1      -4.831   3.828  23.959  0.00  0.00    -0.359 OA
ATOM      6  N   UNL     1      -3.605   4.323  23.532  0.00  0.00    -0.083 NA
ATOM     14  C   UNL     1      -2.791   3.265  23.521  0.00  0.00    +0.084 A 
ATOM     16  C   UNL     1      -3.440   2.086  23.926  0.00  0.00    +0.071 A 
ATOM     18  C   UNL     1      -4.721   2.495  24.190  0.00  0.00    +0.148 A 
BRANCH  18  21
ATOM     21  C   UNL     1      -5.933   1.807  24.650  0.00  0.00    +0.151 C 
BRANCH  21   1
ATOM      1  S   UNL     1      -5.655   0.764  26.125  0.00  0.00    -0.117 S 
BRANCH   1  27
ATOM     27  C   UNL     1      -4.574  -0.491  25.456  0.00  0.00    +0.008 A 
ATOM     28  C   UNL     1      -4.880  -1.100  24.239  0.00  0.00    +0.015 A 
ATOM     29  C   UNL     1      -3.424  -0.864  26.152  0.00  0.00    +0.015 A 
ATOM     30  C   UNL     1      -4.036  -2.080  23.717  0.00  0.00    +0.001 A 
ATOM     31  C   UNL     1      -2.579  -1.844  25.631  0.00  0.00    +0.001 A 
ATOM     32  C   UNL     1      -2.886  -2.453  24.413  0.00  0.00    +0.000 A 
ENDBRANCH   1  27
ENDBRANCH  21   1
ENDBRANCH  18  21
ENDBRANCH  13  14
ENDBRANCH   8  13
TORSDOF 9
ENDMDL
MODEL 5
REMARK VINA RESULT:       0.6      1.140      2.433
REMARK  Name = 26743088
REMARK  10 active torsions:
REMARK  status: ('A' for Active; 'I' for Inactive)
REMARK    1  A    between atoms: S_1  and  C_21
REMARK    2  A    between atoms: S_1  and  C_27
REMARK    3  A    between atoms: N_5  and  C_17
REMARK    4  A    between atoms: N_5  and  C_19
REMARK    5  A    between atoms: C_7  and  C_12
REMARK    6  A    between atoms: C_8  and  C_13
REMARK    7  A    between atoms: C_12  and  C_15
REMARK    8  A    between atoms: C_13  and  C_14
REMARK    9  A    between atoms: C_17  and  C_20
REMARK   10  A    between atoms: C_18  and  C_21
REMARK                            x       y       z     vdW  Elec       q    Type
REMARK                         _______ _______ _______ _____ _____    ______ ____
ROOT
ATOM      4  N   UNL     1      -4.567  -2.655  23.639  0.00  0.00    -0.316 NA
ATOM      7  C   UNL     1      -2.372  -1.562  25.238  0.00  0.00    +0.004 C 
ATOM      8  C   UNL     1      -3.451  -0.648  24.611  0.00  0.00    +0.012 C 
ATOM      9  C   UNL     1      -2.238  -2.875  24.453  0.00  0.00    +0.019 C 
ATOM     10  C   UNL     1      -4.758  -1.443  24.439  0.00  0.00    +0.085 C 
ATOM     11  C   UNL     1      -3.594  -3.552  24.261  0.00  0.00    +0.081 C 
ATOM     33  H   UNL     1      -4.253  -2.409  22.702  0.00  0.00    +0.122 HD
ENDROOT
BRANCH   7  12
ATOM     12  C   UNL     1      -1.013  -0.880  25.392  0.00  0.00    +0.100 C 
BRANCH  12  15
ATOM      2  O   UNL     1      -0.148  -2.079  23.506  0.00  0.00    -0.276 OA
ATOM      5  N   UNL     1       0.632   0.083  23.814  0.00  0.00    -0.300 N 
ATOM     15  C   UNL     1      -0.146  -1.029  24.154  0.00  0.00    +0.216 C 
ATOM     19  C   UNL     1       0.618   1.315  24.595  0.00  0.00    +0.132 C 
BRANCH   5  17
ATOM     17  C   UNL     1       1.517   0.095  22.652  0.00  0.00    +0.142 C 
BRANCH  17  20
ATOM     20  C   UNL     1       2.958  -0.055  23.041  0.00  0.00    -0.030 A 
ATOM     22  C   UNL     1       3.844   1.008  22.865  0.00  0.00    +0.005 A 
ATOM     23  C   UNL     1       3.414  -1.259  23.579  0.00  0.00    +0.005 A 
ATOM     24  C   UNL     1       5.183   0.869  23.228  0.00  0.00    +0.000 A 
ATOM     25  C   UNL     1       4.754  -1.399  23.942  0.00  0.00    +0.000 A 
ATOM     26  C   UNL     1       5.638  -0.335  23.765  0.00  0.00    +0.000 A 
ENDBRANCH  17  20
ENDBRANCH   5  17
ENDBRANCH  12  15
ENDBRANCH   7  12
BRANCH   8  13
ATOM     13  C   UNL     1      -3.026  -0.007  23.283  0.00  0.00    +0.064 C 
BRANCH  13  14
ATOM      3  O   UNL     1      -1.909   3.400  22.947  0.00  0.00    -0.359 OA
ATOM      6  N   UNL     1      -2.248   2.159  22.421  0.00  0.00    -0.083 NA
ATOM     14  C   UNL     1      -2.592   1.418  23.478  0.00  0.00    +0.084 A 
ATOM     16  C   UNL     1      -2.491   2.130  24.685  0.00  0.00    +0.071 A 
ATOM     18  C   UNL     1      -2.058   3.370  24.297  0.00  0.00    +0.148 A 
BRANCH  18  21
ATOM     21  C   UNL     1      -1.741   4.609  25.018  0.00  0.00    +0.151 C 
BRANCH  21   1
ATOM      1  S   UNL     1      -3.094   5.173  26.110  0.00  0.00    -0.117 S 
BRANCH   1  27
ATOM     27  C   UNL     1      -4.346   3.946  25.766  0.00  0.00    +0.008 A 
ATOM     28  C   UNL     1      -4.909   3.861  24.493  0.00  0.00    +0.015 A 
ATOM     29  C   UNL     1      -4.761   3.074  26.772  0.00  0.00    +0.015 A 
ATOM     30  C   UNL     1      -5.886   2.902  24.225  0.00  0.00    +0.001 A 
ATOM     31  C   UNL     1      -5.739   2.115  26.505  0.00  0.00    +0.001 A 
ATOM     32  C   UNL     1      -6.301   2.030  25.231  0.00  0.00    +0.000 A 
ENDBRANCH   1  27
ENDBRANCH  21   1
ENDBRANCH  18  21
ENDBRANCH  13  14
ENDBRANCH   8  13
TORSDOF 9
ENDMDL
MODEL 6
REMARK VINA RESULT:       0.7      2.368      6.742
REMARK  Name = 26743088
REMARK  10 active torsions:
REMARK  status: ('A' for Active; 'I' for Inactive)
REMARK    1  A    between atoms: S_1  and  C_21
REMARK    2  A    between atoms: S_1  and  C_27
REMARK    3  A    between atoms: N_5  and  C_17
REMARK    4  A    between atoms: N_5  and  C_19
REMARK    5  A    between atoms: C_7  and  C_12
REMARK    6  A    between atoms: C_8  and  C_13
REMARK    7  A    between atoms: C_12  and  C_15
REMARK    8  A    between atoms: C_13  and  C_14
REMARK    9  A    between atoms: C_17  and  C_20
REMARK   10  A    between atoms: C_18  and  C_21
REMARK                            x       y       z     vdW  Elec       q    Type
REMARK                         _______ _______ _______ _____ _____    ______ ____
ROOT
ATOM      4  N   UNL     1      -1.215   4.893  25.048  0.00  0.00    -0.316 NA
ATOM      7  C   UNL     1      -4.093   4.354  25.081  0.00  0.00    +0.004 C 
ATOM      8  C   UNL     1      -3.182   3.965  26.270  0.00  0.00    +0.012 C 
ATOM      9  C   UNL     1      -3.290   4.434  23.774  0.00  0.00    +0.019 C 
ATOM     10  C   UNL     1      -1.963   4.904  26.307  0.00  0.00    +0.085 C 
ATOM     11  C   UNL     1      -2.056   5.322  23.930  0.00  0.00    +0.081 C 
ATOM     33  H   UNL     1      -0.855   3.958  24.865  0.00  0.00    +0.122 HD
ENDROOT
BRANCH   7  12
ATOM     12  C   UNL     1      -5.304   3.436  24.919  0.00  0.00    +0.100 C 
BRANCH  12  15
ATOM      2  O   UNL     1      -4.288   2.064  23.237  0.00  0.00    -0.276 OA
ATOM      5  N   UNL     1      -5.394   0.964  24.954  0.00  0.00    -0.300 N 
ATOM     15  C   UNL     1      -4.942   2.105  24.283  0.00  0.00    +0.216 C 
ATOM     19  C   UNL     1      -6.166   1.037  26.189  0.00  0.00    +0.132 C 
BRANCH   5  17
ATOM     17  C   UNL     1      -5.126  -0.388  24.468  0.00  0.00    +0.142 C 
BRANCH  17  20
ATOM     20  C   UNL     1      -3.735  -0.840  24.801  0.00  0.00    -0.030 A 
ATOM     22  C   UNL     1      -2.894  -1.312  23.792  0.00  0.00    +0.005 A 
ATOM     23  C   UNL     1      -3.280  -0.789  26.119  0.00  0.00    +0.005 A 
ATOM     24  C   UNL     1      -1.600  -1.732  24.101  0.00  0.00    +0.000 A 
ATOM     25  C   UNL     1      -1.986  -1.209  26.427  0.00  0.00    +0.000 A 
ATOM     26  C   UNL     1      -1.147  -1.681  25.418  0.00  0.00    +0.000 A 
ENDBRANCH  17  20
ENDBRANCH   5  17
ENDBRANCH  12  15
ENDBRANCH   7  12
BRANCH   8  13
ATOM     13  C   UNL     1      -2.737   2.496  26.255  0.00  0.00    +0.064 C 
BRANCH  13  14
ATOM      3  O   UNL     1       0.777   2.323  25.492  0.00  0.00    -0.359 OA
ATOM      6  N   UNL     1      -0.282   2.548  26.362  0.00  0.00    -0.083 NA
ATOM     14  C   UNL     1      -1.381   2.342  25.630  0.00  0.00    +0.084 A 
ATOM     16  C   UNL     1      -1.080   1.989  24.303  0.00  0.00    +0.071 A 
ATOM     18  C   UNL     1       0.290   1.991  24.269  0.00  0.00    +0.148 A 
BRANCH  18  21
ATOM     21  C   UNL     1       1.281   1.717  23.221  0.00  0.00    +0.151 C 
BRANCH  21   1
ATOM      1  S   UNL     1       1.505  -0.066  22.889  0.00  0.00    -0.117 S 
BRANCH   1  27
ATOM     27  C   UNL     1       3.246  -0.263  23.237  0.00  0.00    +0.008 A 
ATOM     28  C   UNL     1       4.129   0.791  23.002  0.00  0.00    +0.015 A 
ATOM     29  C   UNL     1       3.723  -1.472  23.742  0.00  0.00    +0.015 A 
ATOM     30  C   UNL     1       5.488   0.637  23.273  0.00  0.00    +0.001 A 
ATOM     31  C   UNL     1       5.083  -1.627  24.013  0.00  0.00    +0.001 A 
ATOM     32  C   UNL     1       5.965  -0.572  23.779  0.00  0.00    +0.000 A 
ENDBRANCH   1  27
ENDBRANCH  21   1
ENDBRANCH  18  21
ENDBRANCH  13  14
ENDBRANCH   8  13
TORSDOF 9
ENDMDL
MODEL 7
REMARK VINA RESULT:       1.0      2.351      6.586
REMARK  Name = 26743088
REMARK  10 active torsions:
REMARK  status: ('A' for Active; 'I' for Inactive)
REMARK    1  A    between atoms: S_1  and  C_21
REMARK    2  A    between atoms: S_1  and  C_27
REMARK    3  A    between atoms: N_5  and  C_17
REMARK    4  A    between atoms: N_5  and  C_19
REMARK    5  A    between atoms: C_7  and  C_12
REMARK    6  A    between atoms: C_8  and  C_13
REMARK    7  A    between atoms: C_12  and  C_15
REMARK    8  A    between atoms: C_13  and  C_14
REMARK    9  A    between atoms: C_17  and  C_20
REMARK   10  A    between atoms: C_18  and  C_21
REMARK                            x       y       z     vdW  Elec       q    Type
REMARK                         _______ _______ _______ _____ _____    ______ ____
ROOT
ATOM      4  N   UNL     1      -1.726  -2.616  24.395  0.00  0.00    -0.316 NA
ATOM      7  C   UNL     1      -4.221  -1.085  24.389  0.00  0.00    +0.004 C 
ATOM      8  C   UNL     1      -2.853  -0.407  24.132  0.00  0.00    +0.012 C 
ATOM      9  C   UNL     1      -4.052  -2.372  25.209  0.00  0.00    +0.019 C 
ATOM     10  C   UNL     1      -1.877  -1.438  23.538  0.00  0.00    +0.085 C 
ATOM     11  C   UNL     1      -3.006  -3.297  24.588  0.00  0.00    +0.081 C 
ATOM     33  H   UNL     1      -1.344  -2.344  25.299  0.00  0.00    +0.122 HD
ENDROOT
BRANCH   7  12
ATOM     12  C   UNL     1      -5.245  -0.156  25.040  0.00  0.00    +0.100 C 
BRANCH  12  15
ATOM      2  O   UNL     1      -4.378   1.611  23.672  0.00  0.00    -0.276 OA
ATOM      5  N   UNL     1      -5.563   2.242  25.564  0.00  0.00    -0.300 N 
ATOM     15  C   UNL     1      -5.015   1.303  24.683  0.00  0.00    +0.216 C 
ATOM     19  C   UNL     1      -6.311   1.854  26.754  0.00  0.00    +0.132 C 
BRANCH   5  17
ATOM     17  C   UNL     1      -5.426   3.682  25.358  0.00  0.00    +0.142 C 
BRANCH  17  20
ATOM     20  C   UNL     1      -3.989   4.104  25.275  0.00  0.00    -0.030 A 
ATOM     22  C   UNL     1      -3.128   3.864  26.346  0.00  0.00    +0.005 A 
ATOM     23  C   UNL     1      -3.512   4.737  24.126  0.00  0.00    +0.005 A 
ATOM     24  C   UNL     1      -1.791   4.256  26.269  0.00  0.00    +0.000 A 
ATOM     25  C   UNL     1      -2.176   5.129  24.049  0.00  0.00    +0.000 A 
ATOM     26  C   UNL     1      -1.316   4.889  25.121  0.00  0.00    +0.000 A 
ENDBRANCH  17  20
ENDBRANCH   5  17
ENDBRANCH  12  15
ENDBRANCH   7  12
BRANCH   8  13
ATOM     13  C   UNL     1      -2.249   0.262  25.374  0.00  0.00    +0.064 C 
BRANCH  13  14
ATOM      3  O   UNL     1       0.865   2.068  25.385  0.00  0.00    -0.359 OA
ATOM      6  N   UNL     1      -0.297   1.618  25.999  0.00  0.00    -0.083 NA
ATOM     14  C   UNL     1      -0.932   0.912  25.059  0.00  0.00    +0.084 A 
ATOM     16  C   UNL     1      -0.226   0.881  23.845  0.00  0.00    +0.071 A 
ATOM     18  C   UNL     1       0.896   1.623  24.102  0.00  0.00    +0.148 A 
BRANCH  18  21
ATOM     21  C   UNL     1       2.065   2.010  23.303  0.00  0.00    +0.151 C 
BRANCH  21   1
ATOM      1  S   UNL     1       2.613   0.703  22.149  0.00  0.00    -0.117 S 
BRANCH   1  27
ATOM     27  C   UNL     1       3.990   0.006  23.050  0.00  0.00    +0.008 A 
ATOM     28  C   UNL     1       3.972  -1.339  23.420  0.00  0.00    +0.015 A 
ATOM     29  C   UNL     1       5.081   0.807  23.383  0.00  0.00    +0.015 A 
ATOM     30  C   UNL     1       5.047  -1.883  24.123  0.00  0.00    +0.001 A 
ATOM     31  C   UNL     1       6.157   0.263  24.087  0.00  0.00    +0.001 A 
ATOM     32  C   UNL     1       6.139  -1.082  24.457  0.00  0.00    +0.000 A 
ENDBRANCH   1  27
ENDBRANCH  21   1
ENDBRANCH  18  21
ENDBRANCH  13  14
ENDBRANCH   8  13
TORSDOF 9
ENDMDL
MODEL 8
REMARK VINA RESULT:       1.0      2.088      6.172
REMARK  Name = 26743088
REMARK  10 active torsions:
REMARK  status: ('A' for Active; 'I' for Inactive)
REMARK    1  A    between atoms: S_1  and  C_21
REMARK    2  A    between atoms: S_1  and  C_27
REMARK    3  A    between atoms: N_5  and  C_17
REMARK    4  A    between atoms: N_5  and  C_19
REMARK    5  A    between atoms: C_7  and  C_12
REMARK    6  A    between atoms: C_8  and  C_13
REMARK    7  A    between atoms: C_12  and  C_15
REMARK    8  A    between atoms: C_13  and  C_14
REMARK    9  A    between atoms: C_17  and  C_20
REMARK   10  A    between atoms: C_18  and  C_21
REMARK                            x       y       z     vdW  Elec       q    Type
REMARK                         _______ _______ _______ _____ _____    ______ ____
ROOT
ATOM      4  N   UNL     1      -2.337  -2.037  25.833  0.00  0.00    -0.316 NA
ATOM      7  C   UNL     1      -4.639  -0.323  25.252  0.00  0.00    +0.004 C 
ATOM      8  C   UNL     1      -4.340  -1.591  24.416  0.00  0.00    +0.012 C 
ATOM      9  C   UNL     1      -3.360   0.218  25.908  0.00  0.00    +0.019 C 
ATOM     10  C   UNL     1      -3.570  -2.604  25.282  0.00  0.00    +0.085 C 
ATOM     11  C   UNL     1      -2.620  -0.876  26.677  0.00  0.00    +0.081 C 
ATOM     33  H   UNL     1      -1.710  -1.765  25.079  0.00  0.00    +0.122 HD
ENDROOT
BRANCH   7  12
ATOM     12  C   UNL     1      -5.349   0.773  24.459  0.00  0.00    +0.100 C 
BRANCH  12  15
ATOM      2  O   UNL     1      -3.722   2.264  23.526  0.00  0.00    -0.276 OA
ATOM      5  N   UNL     1      -4.824   2.986  25.434  0.00  0.00    -0.300 N 
ATOM     15  C   UNL     1      -4.552   2.066  24.416  0.00  0.00    +0.216 C 
ATOM     19  C   UNL     1      -5.810   2.730  26.477  0.00  0.00    +0.132 C 
BRANCH   5  17
ATOM     17  C   UNL     1      -4.140   4.274  25.530  0.00  0.00    +0.142 C 
BRANCH  17  20
ATOM     20  C   UNL     1      -2.648   4.123  25.473  0.00  0.00    -0.030 A 
ATOM     22  C   UNL     1      -2.026   3.076  26.153  0.00  0.00    +0.005 A 
ATOM     23  C   UNL     1      -1.882   5.030  24.740  0.00  0.00    +0.005 A 
ATOM     24  C   UNL     1      -0.639   2.936  26.100  0.00  0.00    +0.000 A 
ATOM     25  C   UNL     1      -0.495   4.890  24.687  0.00  0.00    +0.000 A 
ATOM     26  C   UNL     1       0.126   3.843  25.368  0.00  0.00    +0.000 A 
ENDBRANCH  17  20
ENDBRANCH   5  17
ENDBRANCH  12  15
ENDBRANCH   7  12
BRANCH   8  13
ATOM     13  C   UNL     1      -3.587  -1.309  23.109  0.00  0.00    +0.064 C 
BRANCH  13  14
ATOM      3  O   UNL     1      -0.077  -1.404  23.901  0.00  0.00    -0.359 OA
ATOM      6  N   UNL     1      -1.322  -2.003  23.762  0.00  0.00    -0.083 NA
ATOM     14  C   UNL     1      -2.136  -1.021  23.365  0.00  0.00    +0.084 A 
ATOM     16  C   UNL     1      -1.467   0.209  23.239  0.00  0.00    +0.071 A 
ATOM     18  C   UNL     1      -0.176  -0.086  23.587  0.00  0.00    +0.148 A 
BRANCH  18  21
ATOM     21  C   UNL     1       1.058   0.704  23.682  0.00  0.00    +0.151 C 
BRANCH  21   1
ATOM      1  S   UNL     1       2.159   0.496  22.237  0.00  0.00    -0.117 S 
BRANCH   1  27
ATOM     27  C   UNL     1       3.679  -0.001  23.034  0.00  0.00    +0.008 A 
ATOM     28  C   UNL     1       4.727   0.909  23.167  0.00  0.00    +0.015 A 
ATOM     29  C   UNL     1       3.817  -1.300  23.522  0.00  0.00    +0.015 A 
ATOM     30  C   UNL     1       5.913   0.521  23.789  0.00  0.00    +0.001 A 
ATOM     31  C   UNL     1       5.004  -1.689  24.144  0.00  0.00    +0.001 A 
ATOM     32  C   UNL     1       6.052  -0.777  24.278  0.00  0.00    +0.000 A 
ENDBRANCH   1  27
ENDBRANCH  21   1
ENDBRANCH  18  21
ENDBRANCH  13  14
ENDBRANCH   8  13
TORSDOF 9
ENDMDL
MODEL 9
REMARK VINA RESULT:       1.4      2.036      6.178
REMARK  Name = 26743088
REMARK  10 active torsions:
REMARK  status: ('A' for Active; 'I' for Inactive)
REMARK    1  A    between atoms: S_1  and  C_21
REMARK    2  A    between atoms: S_1  and  C_27
REMARK    3  A    between atoms: N_5  and  C_17
REMARK    4  A    between atoms: N_5  and  C_19
REMARK    5  A    between atoms: C_7  and  C_12
REMARK    6  A    between atoms: C_8  and  C_13
REMARK    7  A    between atoms: C_12  and  C_15
REMARK    8  A    between atoms: C_13  and  C_14
REMARK    9  A    between atoms: C_17  and  C_20
REMARK   10  A    between atoms: C_18  and  C_21
REMARK                            x       y       z     vdW  Elec       q    Type
REMARK                         _______ _______ _______ _____ _____    ______ ____
ROOT
ATOM      4  N   UNL     1      -2.446  -2.156  25.458  0.00  0.00    -0.316 NA
ATOM      7  C   UNL     1      -4.902  -0.597  25.123  0.00  0.00    +0.004 C 
ATOM      8  C   UNL     1      -4.387  -1.547  24.015  0.00  0.00    +0.012 C 
ATOM      9  C   UNL     1      -3.750  -0.128  26.025  0.00  0.00    +0.019 C 
ATOM     10  C   UNL     1      -3.555  -2.673  24.654  0.00  0.00    +0.085 C 
ATOM     11  C   UNL     1      -2.933  -1.308  26.547  0.00  0.00    +0.081 C 
ATOM     33  H   UNL     1      -1.808  -1.623  24.871  0.00  0.00    +0.122 HD
ENDROOT
BRANCH   7  12
ATOM     12  C   UNL     1      -5.689   0.596  24.582  0.00  0.00    +0.100 C 
BRANCH  12  15
ATOM      2  O   UNL     1      -5.757   2.089  26.456  0.00  0.00    -0.276 OA
ATOM      5  N   UNL     1      -4.578   2.807  24.592  0.00  0.00    -0.300 N 
ATOM     15  C   UNL     1      -5.354   1.888  25.307  0.00  0.00    +0.216 C 
ATOM     19  C   UNL     1      -4.114   2.549  23.235  0.00  0.00    +0.132 C 
BRANCH   5  17
ATOM     17  C   UNL     1      -4.174   4.095  25.153  0.00  0.00    +0.142 C 
BRANCH  17  20
ATOM     20  C   UNL     1      -2.682   4.234  25.222  0.00  0.00    -0.030 A 
ATOM     22  C   UNL     1      -2.059   5.354  24.669  0.00  0.00    +0.005 A 
ATOM     23  C   UNL     1      -1.916   3.245  25.839  0.00  0.00    +0.005 A 
ATOM     24  C   UNL     1      -0.671   5.484  24.734  0.00  0.00    +0.000 A 
ATOM     25  C   UNL     1      -0.529   3.375  25.904  0.00  0.00    +0.000 A 
ATOM     26  C   UNL     1       0.093   4.494  25.351  0.00  0.00    +0.000 A 
ENDBRANCH  17  20
ENDBRANCH   5  17
ENDBRANCH  12  15
ENDBRANCH   7  12
BRANCH   8  13
ATOM     13  C   UNL     1      -3.587  -0.838  22.913  0.00  0.00    +0.064 C 
BRANCH  13  14
ATOM      3  O   UNL     1      -0.146  -1.105  23.936  0.00  0.00    -0.359 OA
ATOM      6  N   UNL     1      -1.372  -1.659  23.589  0.00  0.00    -0.083 NA
ATOM     14  C   UNL     1      -2.162  -0.614  23.330  0.00  0.00    +0.084 A 
ATOM     16  C   UNL     1      -1.497   0.613  23.496  0.00  0.00    +0.071 A 
ATOM     18  C   UNL     1      -0.233   0.249  23.878  0.00  0.00    +0.148 A 
BRANCH  18  21
ATOM     21  C   UNL     1       0.983   0.998  24.217  0.00  0.00    +0.151 C 
BRANCH  21   1
ATOM      1  S   UNL     1       2.070   1.297  22.778  0.00  0.00    -0.117 S 
BRANCH   1  27
ATOM     27  C   UNL     1       3.506   0.335  23.229  0.00  0.00    +0.008 A 
ATOM     28  C   UNL     1       3.370  -1.019  23.539  0.00  0.00    +0.015 A 
ATOM     29  C   UNL     1       4.763   0.936  23.272  0.00  0.00    +0.015 A 
ATOM     30  C   UNL     1       4.491  -1.770  23.891  0.00  0.00    +0.001 A 
ATOM     31  C   UNL     1       5.885   0.185  23.624  0.00  0.00    +0.001 A 
ATOM     32  C   UNL     1       5.748  -1.168  23.934  0.00  0.00    +0.000 A 
ENDBRANCH   1  27
ENDBRANCH  21   1
ENDBRANCH  18  21
ENDBRANCH  13  14
ENDBRANCH   8  13
TORSDOF 9
ENDMDL
