MODEL 1
REMARK VINA RESULT:      -2.1      0.000      0.000
REMARK  Name = 45361564
REMARK  11 active torsions:
REMARK  status: ('A' for Active; 'I' for Inactive)
REMARK    1  A    between atoms: O_1  and  C_10
REMARK    2  A    between atoms: N_4  and  C_14
REMARK    3  A    between atoms: N_5  and  C_24
REMARK    4  A    between atoms: C_7  and  C_17
REMARK    5  A    between atoms: C_9  and  C_19
REMARK    6  A    between atoms: C_13  and  C_18
REMARK    7  A    between atoms: C_18  and  C_20
REMARK    8  A    between atoms: C_18  and  C_21
REMARK    9  A    between atoms: C_22  and  C_23
REMARK   10  A    between atoms: C_24  and  C_25
REMARK   11  A    between atoms: C_24  and  C_26
REMARK                            x       y       z     vdW  Elec       q    Type
REMARK                         _______ _______ _______ _____ _____    ______ ____
ROOT
ATOM      7  C   UNL     1      -2.900  -1.212  24.901  0.00  0.00    -0.027 C 
ATOM      8  C   UNL     1      -2.507   0.138  24.216  0.00  0.00    +0.028 C 
ATOM      9  C   UNL     1      -0.957   0.381  24.308  0.00  0.00    +0.012 C 
ATOM     10  C   UNL     1      -3.398   1.308  24.725  0.00  0.00    +0.122 C 
ATOM     11  C   UNL     1      -4.411  -1.475  24.695  0.00  0.00    +0.007 C 
ATOM     12  C   UNL     1      -2.126  -2.366  24.224  0.00  0.00    +0.009 C 
ATOM     13  C   UNL     1      -4.909   0.998  24.612  0.00  0.00    +0.029 C 
ATOM     14  C   UNL     1      -0.188  -0.820  23.690  0.00  0.00    +0.076 C 
ATOM     15  C   UNL     1      -5.288  -0.349  25.227  0.00  0.00    +0.007 C 
ATOM     16  C   UNL     1      -0.616  -2.173  24.258  0.00  0.00    +0.023 C 
ATOM     17  C   UNL     1      -2.597  -1.217  26.422  0.00  0.00    +0.011 C 
ATOM     19  C   UNL     1      -0.497   1.682  23.627  0.00  0.00    +0.010 C 
ENDROOT
BRANCH  14   4
ATOM      3  O   UNL     1       1.735  -0.217  21.644  0.00  0.00    -0.270 OA
ATOM      4  N   UNL     1       1.244  -0.684  23.861  0.00  0.00    -0.308 N 
ATOM     22  C   UNL     1       2.091  -0.390  22.806  0.00  0.00    +0.244 C 
ATOM     31  H   UNL     1       1.622  -0.923  24.772  0.00  0.00    +0.149 HD
BRANCH  22  23
ATOM      6  N   UNL     1       6.253  -0.157  23.778  0.00  0.00    -0.263 NA
ATOM     23  C   UNL     1       3.536  -0.310  23.142  0.00  0.00    +0.040 A 
ATOM     27  C   UNL     1       4.176  -1.393  23.733  0.00  0.00    +0.033 A 
ATOM     28  C   UNL     1       4.253   0.849  22.868  0.00  0.00    +0.033 A 
ATOM     29  C   UNL     1       5.524  -1.268  24.029  0.00  0.00    +0.111 A 
ATOM     30  C   UNL     1       5.597   0.875  23.203  0.00  0.00    +0.111 A 
ENDBRANCH  22  23
ENDBRANCH  14   4
BRANCH  10   1
ATOM      1  O   UNL     1      -3.160   2.470  23.928  0.00  0.00    -0.391 OA
ATOM     32  H   UNL     1      -3.704   2.402  23.125  0.00  0.00    +0.210 HD
ENDBRANCH  10   1
BRANCH  13  18
ATOM     18  C   UNL     1      -5.765   2.106  25.236  0.00  0.00    +0.077 C 
ATOM     20  C   UNL     1      -6.991   2.372  24.370  0.00  0.00    +0.017 C 
BRANCH  18  21
ATOM      2  O   UNL     1      -5.283   4.469  24.998  0.00  0.00    -0.276 OA
ATOM      5  N   UNL     1      -3.744   3.128  26.100  0.00  0.00    -0.313 N 
ATOM     21  C   UNL     1      -4.929   3.369  25.418  0.00  0.00    +0.216 C 
ATOM     33  H   UNL     1      -3.503   2.173  26.349  0.00  0.00    +0.149 HD
BRANCH   5  24
ATOM     24  C   UNL     1      -2.786   4.167  26.392  0.00  0.00    +0.067 C 
ATOM     25  C   UNL     1      -1.409   3.568  26.651  0.00  0.00    +0.027 C 
ATOM     26  C   UNL     1      -2.740   5.182  25.255  0.00  0.00    +0.027 C 
ENDBRANCH   5  24
ENDBRANCH  18  21
ENDBRANCH  13  18
TORSDOF 6
ENDMDL
MODEL 2
REMARK VINA RESULT:      -2.0     15.457     18.011
REMARK  Name = 45361564
REMARK  11 active torsions:
REMARK  status: ('A' for Active; 'I' for Inactive)
REMARK    1  A    between atoms: O_1  and  C_10
REMARK    2  A    between atoms: N_4  and  C_14
REMARK    3  A    between atoms: N_5  and  C_24
REMARK    4  A    between atoms: C_7  and  C_17
REMARK    5  A    between atoms: C_9  and  C_19
REMARK    6  A    between atoms: C_13  and  C_18
REMARK    7  A    between atoms: C_18  and  C_20
REMARK    8  A    between atoms: C_18  and  C_21
REMARK    9  A    between atoms: C_22  and  C_23
REMARK   10  A    between atoms: C_24  and  C_25
REMARK   11  A    between atoms: C_24  and  C_26
REMARK                            x       y       z     vdW  Elec       q    Type
REMARK                         _______ _______ _______ _____ _____    ______ ____
ROOT
ATOM      7  C   UNL     1      13.775  -6.018  31.229  0.00  0.00    -0.027 C 
ATOM      8  C   UNL     1      14.187  -7.416  30.658  0.00  0.00    +0.028 C 
ATOM      9  C   UNL     1      14.755  -7.279  29.199  0.00  0.00    +0.012 C 
ATOM     10  C   UNL     1      13.043  -8.455  30.835  0.00  0.00    +0.122 C 
ATOM     11  C   UNL     1      13.328  -6.173  32.702  0.00  0.00    +0.007 C 
ATOM     12  C   UNL     1      15.006  -5.082  31.207  0.00  0.00    +0.009 C 
ATOM     13  C   UNL     1      12.528  -8.531  32.291  0.00  0.00    +0.029 C 
ATOM     14  C   UNL     1      15.945  -6.278  29.178  0.00  0.00    +0.076 C 
ATOM     15  C   UNL     1      12.182  -7.161  32.873  0.00  0.00    +0.007 C 
ATOM     16  C   UNL     1      15.618  -4.931  29.821  0.00  0.00    +0.023 C 
ATOM     17  C   UNL     1      12.623  -5.364  30.424  0.00  0.00    +0.011 C 
ATOM     19  C   UNL     1      15.207  -8.615  28.587  0.00  0.00    +0.010 C 
ENDROOT
BRANCH  14   4
ATOM      3  O   UNL     1      14.330  -5.895  26.835  0.00  0.00    -0.270 OA
ATOM      4  N   UNL     1      16.419  -6.039  27.830  0.00  0.00    -0.308 N 
ATOM     22  C   UNL     1      15.555  -5.866  26.762  0.00  0.00    +0.244 C 
ATOM     31  H   UNL     1      17.419  -6.114  27.676  0.00  0.00    +0.149 HD
BRANCH  22  23
ATOM      6  N   UNL     1      17.405  -5.262  22.950  0.00  0.00    -0.263 NA
ATOM     23  C   UNL     1      16.199  -5.656  25.439  0.00  0.00    +0.040 A 
ATOM     27  C   UNL     1      16.179  -4.399  24.846  0.00  0.00    +0.033 A 
ATOM     28  C   UNL     1      16.822  -6.716  24.790  0.00  0.00    +0.033 A 
ATOM     29  C   UNL     1      16.791  -4.255  23.611  0.00  0.00    +0.111 A 
ATOM     30  C   UNL     1      17.405  -6.469  23.558  0.00  0.00    +0.111 A 
ENDBRANCH  22  23
ENDBRANCH  14   4
BRANCH  10   1
ATOM      1  O   UNL     1      13.527  -9.758  30.505  0.00  0.00    -0.391 OA
ATOM     32  H   UNL     1      14.464  -9.678  30.255  0.00  0.00    +0.210 HD
ENDBRANCH  10   1
BRANCH  13  18
ATOM     18  C   UNL     1      11.317  -9.464  32.418  0.00  0.00    +0.077 C 
ATOM     20  C   UNL     1      11.519 -10.706  31.558  0.00  0.00    +0.017 C 
BRANCH  18  21
ATOM      2  O   UNL     1       9.986  -7.492  31.959  0.00  0.00    -0.276 OA
ATOM      5  N   UNL     1       8.985  -9.575  31.766  0.00  0.00    -0.313 N 
ATOM     21  C   UNL     1      10.044  -8.718  32.028  0.00  0.00    +0.216 C 
ATOM     33  H   UNL     1       9.108 -10.573  31.916  0.00  0.00    +0.149 HD
BRANCH   5  24
ATOM     24  C   UNL     1       7.676  -9.105  31.379  0.00  0.00    +0.067 C 
ATOM     25  C   UNL     1       7.164  -9.880  30.172  0.00  0.00    +0.027 C 
ATOM     26  C   UNL     1       6.708  -9.208  32.551  0.00  0.00    +0.027 C 
ENDBRANCH   5  24
ENDBRANCH  18  21
ENDBRANCH  13  18
TORSDOF 6
ENDMDL
