MODEL 1
REMARK VINA RESULT:      -5.5      0.000      0.000
REMARK  Name = 75536529
REMARK  12 active torsions:
REMARK  status: ('A' for Active; 'I' for Inactive)
REMARK    1  A    between atoms: O_2  and  C_9
REMARK    2  A    between atoms: N_4  and  C_8
REMARK    3  A    between atoms: N_4  and  C_14
REMARK    4  A    between atoms: N_5  and  C_12
REMARK    5  A    between atoms: N_6  and  C_22
REMARK    6  A    between atoms: C_10  and  C_12
REMARK    7  A    between atoms: C_13  and  C_15
REMARK    8  A    between atoms: C_13  and  C_17
REMARK    9  A    between atoms: C_13  and  C_18
REMARK   10  A    between atoms: C_13  and  C_19
REMARK   11  A    between atoms: C_14  and  C_20
REMARK   12  A    between atoms: C_15  and  C_16
REMARK                            x       y       z     vdW  Elec       q    Type
REMARK                         _______ _______ _______ _____ _____    ______ ____
ROOT
ATOM      1  O   UNL     1      -0.209   2.926  23.552  0.00  0.00    -0.371 OA
ATOM      8  C   UNL     1      -1.094   3.630  25.641  0.00  0.00    +0.111 C 
ATOM      9  C   UNL     1      -0.410   2.287  25.820  0.00  0.00    +0.164 C 
ATOM     10  C   UNL     1       0.508   2.260  24.605  0.00  0.00    +0.165 C 
ATOM     11  C   UNL     1      -1.296   3.665  24.135  0.00  0.00    +0.181 C 
ENDROOT
BRANCH   9   2
ATOM      2  O   UNL     1       0.315   2.201  27.031  0.00  0.00    -0.388 OA
ATOM     26  H   UNL     1      -0.263   1.808  27.706  0.00  0.00    +0.210 HD
ENDBRANCH   9   2
BRANCH   8   4
ATOM      4  N   UNL     1      -2.338   3.755  26.382  0.00  0.00    -0.302 NA
ATOM     24  H   UNL     1      -2.211   4.428  27.137  0.00  0.00    +0.123 HD
BRANCH   4  14
ATOM     14  C   UNL     1      -3.420   4.211  25.518  0.00  0.00    +0.156 C 
BRANCH  14  20
ATOM      6  N   UNL     1      -4.717   2.304  24.514  0.00  0.00    -0.336 N 
ATOM      7  N   UNL     1      -5.536   3.169  26.388  0.00  0.00    -0.239 NA
ATOM     20  C   UNL     1      -4.570   3.240  25.499  0.00  0.00    +0.123 A 
ATOM     21  C   UNL     1      -5.850   1.591  24.791  0.00  0.00    +0.106 A 
ATOM     22  C   UNL     1      -3.847   2.093  23.381  0.00  0.00    +0.150 C 
ATOM     23  C   UNL     1      -6.338   2.144  25.952  0.00  0.00    +0.130 A 
ENDBRANCH  14  20
ENDBRANCH   4  14
ENDBRANCH   8   4
BRANCH  10  12
ATOM     12  C   UNL     1       0.880   0.856  24.165  0.00  0.00    +0.138 C 
BRANCH  12   5
ATOM      3  O   UNL     1      -0.107  -1.590  25.362  0.00  0.00    -0.276 OA
ATOM      5  N   UNL     1      -0.287   0.098  23.774  0.00  0.00    -0.313 N 
ATOM     16  C   UNL     1      -0.682  -1.067  24.410  0.00  0.00    +0.214 C 
ATOM     25  H   UNL     1      -0.839   0.453  23.000  0.00  0.00    +0.149 HD
BRANCH  16  15
ATOM     15  C   UNL     1      -1.935  -1.679  23.804  0.00  0.00    +0.102 C 
BRANCH  15  13
ATOM     13  C   UNL     1      -3.151  -1.738  24.759  0.00  0.00    -0.029 C 
ATOM     17  C   UNL     1      -3.088  -0.614  25.806  0.00  0.00    +0.011 C 
ATOM     18  C   UNL     1      -4.428  -1.548  23.917  0.00  0.00    +0.011 C 
ATOM     19  C   UNL     1      -3.240  -3.096  25.476  0.00  0.00    +0.011 C 
ENDBRANCH  15  13
ENDBRANCH  16  15
ENDBRANCH  12   5
ENDBRANCH  10  12
TORSDOF 8
ENDMDL
MODEL 2
REMARK VINA RESULT:      -4.6      2.761      5.077
REMARK  Name = 75536529
REMARK  12 active torsions:
REMARK  status: ('A' for Active; 'I' for Inactive)
REMARK    1  A    between atoms: O_2  and  C_9
REMARK    2  A    between atoms: N_4  and  C_8
REMARK    3  A    between atoms: N_4  and  C_14
REMARK    4  A    between atoms: N_5  and  C_12
REMARK    5  A    between atoms: N_6  and  C_22
REMARK    6  A    between atoms: C_10  and  C_12
REMARK    7  A    between atoms: C_13  and  C_15
REMARK    8  A    between atoms: C_13  and  C_17
REMARK    9  A    between atoms: C_13  and  C_18
REMARK   10  A    between atoms: C_13  and  C_19
REMARK   11  A    between atoms: C_14  and  C_20
REMARK   12  A    between atoms: C_15  and  C_16
REMARK                            x       y       z     vdW  Elec       q    Type
REMARK                         _______ _______ _______ _____ _____    ______ ____
ROOT
ATOM      1  O   UNL     1      -0.390   0.575  25.252  0.00  0.00    -0.371 OA
ATOM      8  C   UNL     1      -2.258  -0.836  25.651  0.00  0.00    +0.111 C 
ATOM      9  C   UNL     1      -1.648  -1.189  24.307  0.00  0.00    +0.164 C 
ATOM     10  C   UNL     1      -0.246  -0.615  24.461  0.00  0.00    +0.165 C 
ATOM     11  C   UNL     1      -1.679   0.550  25.888  0.00  0.00    +0.181 C 
ENDROOT
BRANCH   9   2
ATOM      2  O   UNL     1      -1.625  -2.583  24.069  0.00  0.00    -0.388 OA
ATOM     26  H   UNL     1      -2.502  -2.944  24.281  0.00  0.00    +0.210 HD
ENDBRANCH   9   2
BRANCH   8   4
ATOM      4  N   UNL     1      -3.712  -0.849  25.654  0.00  0.00    -0.302 NA
ATOM     24  H   UNL     1      -4.049  -0.370  26.489  0.00  0.00    +0.123 HD
BRANCH   4  14
ATOM     14  C   UNL     1      -4.246  -0.179  24.475  0.00  0.00    +0.156 C 
BRANCH  14  20
ATOM      6  N   UNL     1      -3.908   2.279  24.062  0.00  0.00    -0.336 N 
ATOM      7  N   UNL     1      -5.398   1.742  25.617  0.00  0.00    -0.239 NA
ATOM     20  C   UNL     1      -4.538   1.274  24.740  0.00  0.00    +0.123 A 
ATOM     21  C   UNL     1      -4.396   3.464  24.536  0.00  0.00    +0.106 A 
ATOM     22  C   UNL     1      -2.907   2.135  23.031  0.00  0.00    +0.150 C 
ATOM     23  C   UNL     1      -5.314   3.107  25.496  0.00  0.00    +0.130 A 
ENDBRANCH  14  20
ENDBRANCH   4  14
ENDBRANCH   8   4
BRANCH  10  12
ATOM     12  C   UNL     1       0.412  -0.275  23.136  0.00  0.00    +0.138 C 
BRANCH  12   5
ATOM      3  O   UNL     1       2.567  -0.185  21.203  0.00  0.00    -0.276 OA
ATOM      5  N   UNL     1       1.739   0.265  23.328  0.00  0.00    -0.313 N 
ATOM     16  C   UNL     1       2.708   0.263  22.339  0.00  0.00    +0.214 C 
ATOM     25  H   UNL     1       1.954   0.669  24.233  0.00  0.00    +0.149 HD
BRANCH  16  15
ATOM     15  C   UNL     1       4.021   0.880  22.792  0.00  0.00    +0.102 C 
BRANCH  15  13
ATOM     13  C   UNL     1       5.005  -0.111  23.458  0.00  0.00    -0.029 C 
ATOM     17  C   UNL     1       6.217  -0.381  22.552  0.00  0.00    +0.011 C 
ATOM     18  C   UNL     1       5.508   0.524  24.769  0.00  0.00    +0.011 C 
ATOM     19  C   UNL     1       4.318  -1.445  23.798  0.00  0.00    +0.011 C 
ENDBRANCH  15  13
ENDBRANCH  16  15
ENDBRANCH  12   5
ENDBRANCH  10  12
TORSDOF 8
ENDMDL
MODEL 3
REMARK VINA RESULT:      -3.9      2.304      5.363
REMARK  Name = 75536529
REMARK  12 active torsions:
REMARK  status: ('A' for Active; 'I' for Inactive)
REMARK    1  A    between atoms: O_2  and  C_9
REMARK    2  A    between atoms: N_4  and  C_8
REMARK    3  A    between atoms: N_4  and  C_14
REMARK    4  A    between atoms: N_5  and  C_12
REMARK    5  A    between atoms: N_6  and  C_22
REMARK    6  A    between atoms: C_10  and  C_12
REMARK    7  A    between atoms: C_13  and  C_15
REMARK    8  A    between atoms: C_13  and  C_17
REMARK    9  A    between atoms: C_13  and  C_18
REMARK   10  A    between atoms: C_13  and  C_19
REMARK   11  A    between atoms: C_14  and  C_20
REMARK   12  A    between atoms: C_15  and  C_16
REMARK                            x       y       z     vdW  Elec       q    Type
REMARK                         _______ _______ _______ _____ _____    ______ ____
ROOT
ATOM      1  O   UNL     1      -2.326   3.846  25.577  0.00  0.00    -0.371 OA
ATOM      8  C   UNL     1      -0.336   2.934  24.654  0.00  0.00    +0.111 C 
ATOM      9  C   UNL     1      -1.531   2.379  23.901  0.00  0.00    +0.164 C 
ATOM     10  C   UNL     1      -2.595   3.417  24.232  0.00  0.00    +0.165 C 
ATOM     11  C   UNL     1      -0.992   3.438  25.929  0.00  0.00    +0.181 C 
ENDROOT
BRANCH   9   2
ATOM      2  O   UNL     1      -1.302   2.283  22.509  0.00  0.00    -0.388 OA
ATOM     26  H   UNL     1      -2.157   2.142  22.068  0.00  0.00    +0.210 HD
ENDBRANCH   9   2
BRANCH   8   4
ATOM      4  N   UNL     1       0.705   1.950  24.903  0.00  0.00    -0.302 NA
ATOM     24  H   UNL     1       0.579   1.561  25.837  0.00  0.00    +0.123 HD
BRANCH   4  14
ATOM     14  C   UNL     1       0.650   0.869  23.927  0.00  0.00    +0.156 C 
BRANCH  14  20
ATOM      6  N   UNL     1       2.057  -0.032  22.046  0.00  0.00    -0.336 N 
ATOM      7  N   UNL     1       3.099   1.265  23.516  0.00  0.00    -0.239 NA
ATOM     20  C   UNL     1       1.951   0.719  23.184  0.00  0.00    +0.123 A 
ATOM     21  C   UNL     1       3.356   0.039  21.627  0.00  0.00    +0.106 A 
ATOM     22  C   UNL     1       1.003  -0.772  21.394  0.00  0.00    +0.150 C 
ATOM     23  C   UNL     1       3.980   0.845  22.551  0.00  0.00    +0.130 A 
ENDBRANCH  14  20
ENDBRANCH   4  14
ENDBRANCH   8   4
BRANCH  10  12
ATOM     12  C   UNL     1      -4.010   2.876  24.139  0.00  0.00    +0.138 C 
BRANCH  12   5
ATOM      3  O   UNL     1      -5.179   0.777  25.758  0.00  0.00    -0.276 OA
ATOM      5  N   UNL     1      -4.017   1.458  23.863  0.00  0.00    -0.313 N 
ATOM     16  C   UNL     1      -4.604   0.525  24.701  0.00  0.00    +0.214 C 
ATOM     25  H   UNL     1      -3.574   1.145  23.005  0.00  0.00    +0.149 HD
BRANCH  16  15
ATOM     15  C   UNL     1      -4.468  -0.901  24.191  0.00  0.00    +0.102 C 
BRANCH  15  13
ATOM     13  C   UNL     1      -3.318  -1.711  24.834  0.00  0.00    -0.029 C 
ATOM     17  C   UNL     1      -3.286  -1.512  26.358  0.00  0.00    +0.011 C 
ATOM     18  C   UNL     1      -3.564  -3.204  24.543  0.00  0.00    +0.011 C 
ATOM     19  C   UNL     1      -1.953  -1.319  24.242  0.00  0.00    +0.011 C 
ENDBRANCH  15  13
ENDBRANCH  16  15
ENDBRANCH  12   5
ENDBRANCH  10  12
TORSDOF 8
ENDMDL
MODEL 4
REMARK VINA RESULT:      -3.8      2.051      5.389
REMARK  Name = 75536529
REMARK  12 active torsions:
REMARK  status: ('A' for Active; 'I' for Inactive)
REMARK    1  A    between atoms: O_2  and  C_9
REMARK    2  A    between atoms: N_4  and  C_8
REMARK    3  A    between atoms: N_4  and  C_14
REMARK    4  A    between atoms: N_5  and  C_12
REMARK    5  A    between atoms: N_6  and  C_22
REMARK    6  A    between atoms: C_10  and  C_12
REMARK    7  A    between atoms: C_13  and  C_15
REMARK    8  A    between atoms: C_13  and  C_17
REMARK    9  A    between atoms: C_13  and  C_18
REMARK   10  A    between atoms: C_13  and  C_19
REMARK   11  A    between atoms: C_14  and  C_20
REMARK   12  A    between atoms: C_15  and  C_16
REMARK                            x       y       z     vdW  Elec       q    Type
REMARK                         _______ _______ _______ _____ _____    ______ ____
ROOT
ATOM      1  O   UNL     1      -2.694  -2.538  24.573  0.00  0.00    -0.371 OA
ATOM      8  C   UNL     1      -0.506  -1.690  24.938  0.00  0.00    +0.111 C 
ATOM      9  C   UNL     1      -1.511  -0.773  25.610  0.00  0.00    +0.164 C 
ATOM     10  C   UNL     1      -2.713  -1.699  25.739  0.00  0.00    +0.165 C 
ATOM     11  C   UNL     1      -1.394  -2.447  23.965  0.00  0.00    +0.181 C 
ENDROOT
BRANCH   9   2
ATOM      2  O   UNL     1      -1.066  -0.305  26.868  0.00  0.00    -0.388 OA
ATOM     26  H   UNL     1      -1.746  -0.515  27.530  0.00  0.00    +0.210 HD
ENDBRANCH   9   2
BRANCH   8   4
ATOM      4  N   UNL     1       0.581  -0.983  24.279  0.00  0.00    -0.302 NA
ATOM     24  H   UNL     1       1.147  -1.652  23.759  0.00  0.00    +0.123 HD
BRANCH   4  14
ATOM     14  C   UNL     1       0.069   0.023  23.357  0.00  0.00    +0.156 C 
BRANCH  14  20
ATOM      6  N   UNL     1      -1.063   2.251  23.644  0.00  0.00    -0.336 N 
ATOM      7  N   UNL     1       0.631   1.828  25.015  0.00  0.00    -0.239 NA
ATOM     20  C   UNL     1      -0.097   1.363  24.025  0.00  0.00    +0.123 A 
ATOM     21  C   UNL     1      -0.943   3.355  24.441  0.00  0.00    +0.106 A 
ATOM     22  C   UNL     1      -2.038   2.075  22.593  0.00  0.00    +0.150 C 
ATOM     23  C   UNL     1       0.109   3.070  25.279  0.00  0.00    +0.130 A 
ENDBRANCH  14  20
ENDBRANCH   4  14
ENDBRANCH   8   4
BRANCH  10  12
ATOM     12  C   UNL     1      -4.035  -0.958  25.818  0.00  0.00    +0.138 C 
BRANCH  12   5
ATOM      3  O   UNL     1      -5.951   1.213  25.917  0.00  0.00    -0.276 OA
ATOM      5  N   UNL     1      -3.989   0.286  25.083  0.00  0.00    -0.313 N 
ATOM     16  C   UNL     1      -4.957   1.270  25.196  0.00  0.00    +0.214 C 
ATOM     25  H   UNL     1      -3.198   0.435  24.464  0.00  0.00    +0.149 HD
BRANCH  16  15
ATOM     15  C   UNL     1      -4.683   2.477  24.312  0.00  0.00    +0.102 C 
BRANCH  15  13
ATOM     13  C   UNL     1      -4.542   3.816  25.074  0.00  0.00    -0.029 C 
ATOM     17  C   UNL     1      -3.592   3.672  26.274  0.00  0.00    +0.011 C 
ATOM     18  C   UNL     1      -3.947   4.855  24.104  0.00  0.00    +0.011 C 
ATOM     19  C   UNL     1      -5.905   4.333  25.564  0.00  0.00    +0.011 C 
ENDBRANCH  15  13
ENDBRANCH  16  15
ENDBRANCH  12   5
ENDBRANCH  10  12
TORSDOF 8
ENDMDL
MODEL 5
REMARK VINA RESULT:      -3.8      2.145      6.413
REMARK  Name = 75536529
REMARK  12 active torsions:
REMARK  status: ('A' for Active; 'I' for Inactive)
REMARK    1  A    between atoms: O_2  and  C_9
REMARK    2  A    between atoms: N_4  and  C_8
REMARK    3  A    between atoms: N_4  and  C_14
REMARK    4  A    between atoms: N_5  and  C_12
REMARK    5  A    between atoms: N_6  and  C_22
REMARK    6  A    between atoms: C_10  and  C_12
REMARK    7  A    between atoms: C_13  and  C_15
REMARK    8  A    between atoms: C_13  and  C_17
REMARK    9  A    between atoms: C_13  and  C_18
REMARK   10  A    between atoms: C_13  and  C_19
REMARK   11  A    between atoms: C_14  and  C_20
REMARK   12  A    between atoms: C_15  and  C_16
REMARK                            x       y       z     vdW  Elec       q    Type
REMARK                         _______ _______ _______ _____ _____    ______ ____
ROOT
ATOM      1  O   UNL     1      -3.403  -2.104  24.668  0.00  0.00    -0.371 OA
ATOM      8  C   UNL     1      -1.083  -1.849  25.108  0.00  0.00    +0.111 C 
ATOM      9  C   UNL     1      -1.791  -0.541  25.408  0.00  0.00    +0.164 C 
ATOM     10  C   UNL     1      -3.225  -1.019  25.592  0.00  0.00    +0.165 C 
ATOM     11  C   UNL     1      -2.107  -2.551  24.231  0.00  0.00    +0.181 C 
ENDROOT
BRANCH   9   2
ATOM      2  O   UNL     1      -1.294   0.095  26.569  0.00  0.00    -0.388 OA
ATOM     26  H   UNL     1      -1.784  -0.244  27.337  0.00  0.00    +0.210 HD
ENDBRANCH   9   2
BRANCH   8   4
ATOM      4  N   UNL     1       0.203  -1.680  24.452  0.00  0.00    -0.302 NA
ATOM     24  H   UNL     1       0.511  -2.579  24.083  0.00  0.00    +0.123 HD
BRANCH   4  14
ATOM     14  C   UNL     1       0.111  -0.724  23.355  0.00  0.00    +0.156 C 
BRANCH  14  20
ATOM      6  N   UNL     1       1.704   1.221  23.427  0.00  0.00    -0.336 N 
ATOM      7  N   UNL     1       2.461  -0.632  22.465  0.00  0.00    -0.239 NA
ATOM     20  C   UNL     1       1.437  -0.071  23.068  0.00  0.00    +0.123 A 
ATOM     21  C   UNL     1       2.980   1.503  23.025  0.00  0.00    +0.106 A 
ATOM     22  C   UNL     1       0.815   2.136  24.103  0.00  0.00    +0.150 C 
ATOM     23  C   UNL     1       3.426   0.344  22.434  0.00  0.00    +0.130 A 
ENDBRANCH  14  20
ENDBRANCH   4  14
ENDBRANCH   8   4
BRANCH  10  12
ATOM     12  C   UNL     1      -4.257   0.061  25.319  0.00  0.00    +0.138 C 
BRANCH  12   5
ATOM      3  O   UNL     1      -5.536   2.638  24.983  0.00  0.00    -0.276 OA
ATOM      5  N   UNL     1      -3.629   1.310  24.948  0.00  0.00    -0.313 N 
ATOM     16  C   UNL     1      -4.327   2.498  24.811  0.00  0.00    +0.214 C 
ATOM     25  H   UNL     1      -2.627   1.302  24.791  0.00  0.00    +0.149 HD
BRANCH  16  15
ATOM     15  C   UNL     1      -3.441   3.664  24.404  0.00  0.00    +0.102 C 
BRANCH  15  13
ATOM     13  C   UNL     1      -2.510   4.189  25.522  0.00  0.00    -0.029 C 
ATOM     17  C   UNL     1      -1.825   5.500  25.103  0.00  0.00    +0.011 C 
ATOM     18  C   UNL     1      -3.371   4.466  26.769  0.00  0.00    +0.011 C 
ATOM     19  C   UNL     1      -1.436   3.152  25.895  0.00  0.00    +0.011 C 
ENDBRANCH  15  13
ENDBRANCH  16  15
ENDBRANCH  12   5
ENDBRANCH  10  12
TORSDOF 8
ENDMDL
MODEL 6
REMARK VINA RESULT:      -3.8      1.967      4.371
REMARK  Name = 75536529
REMARK  12 active torsions:
REMARK  status: ('A' for Active; 'I' for Inactive)
REMARK    1  A    between atoms: O_2  and  C_9
REMARK    2  A    between atoms: N_4  and  C_8
REMARK    3  A    between atoms: N_4  and  C_14
REMARK    4  A    between atoms: N_5  and  C_12
REMARK    5  A    between atoms: N_6  and  C_22
REMARK    6  A    between atoms: C_10  and  C_12
REMARK    7  A    between atoms: C_13  and  C_15
REMARK    8  A    between atoms: C_13  and  C_17
REMARK    9  A    between atoms: C_13  and  C_18
REMARK   10  A    between atoms: C_13  and  C_19
REMARK   11  A    between atoms: C_14  and  C_20
REMARK   12  A    between atoms: C_15  and  C_16
REMARK                            x       y       z     vdW  Elec       q    Type
REMARK                         _______ _______ _______ _____ _____    ______ ____
ROOT
ATOM      1  O   UNL     1      -4.284   3.847  26.317  0.00  0.00    -0.371 OA
ATOM      8  C   UNL     1      -2.293   4.245  25.084  0.00  0.00    +0.111 C 
ATOM      9  C   UNL     1      -3.087   3.146  24.403  0.00  0.00    +0.164 C 
ATOM     10  C   UNL     1      -4.479   3.395  24.967  0.00  0.00    +0.165 C 
ATOM     11  C   UNL     1      -2.911   4.244  26.473  0.00  0.00    +0.181 C 
ENDROOT
BRANCH   9   2
ATOM      2  O   UNL     1      -3.063   3.250  22.992  0.00  0.00    -0.388 OA
ATOM     26  H   UNL     1      -2.782   2.394  22.627  0.00  0.00    +0.210 HD
ENDBRANCH   9   2
BRANCH   8   4
ATOM      4  N   UNL     1      -0.860   4.006  25.102  0.00  0.00    -0.302 NA
ATOM     24  H   UNL     1      -0.398   4.778  25.581  0.00  0.00    +0.123 HD
BRANCH   4  14
ATOM     14  C   UNL     1      -0.544   2.762  25.794  0.00  0.00    +0.156 C 
BRANCH  14  20
ATOM      6  N   UNL     1      -0.351   0.360  25.073  0.00  0.00    -0.336 N 
ATOM      7  N   UNL     1       0.535   1.868  23.706  0.00  0.00    -0.239 NA
ATOM     20  C   UNL     1      -0.107   1.684  24.838  0.00  0.00    +0.123 A 
ATOM     21  C   UNL     1       0.170  -0.346  24.025  0.00  0.00    +0.106 A 
ATOM     22  C   UNL     1      -1.030  -0.208  26.214  0.00  0.00    +0.150 C 
ATOM     23  C   UNL     1       0.711   0.607  23.194  0.00  0.00    +0.130 A 
ENDBRANCH  14  20
ENDBRANCH   4  14
ENDBRANCH   8   4
BRANCH  10  12
ATOM     12  C   UNL     1      -5.359   2.158  24.962  0.00  0.00    +0.138 C 
BRANCH  12   5
ATOM      3  O   UNL     1      -4.264  -0.330  25.965  0.00  0.00    -0.276 OA
ATOM      5  N   UNL     1      -4.763   1.089  24.192  0.00  0.00    -0.313 N 
ATOM     16  C   UNL     1      -4.264  -0.070  24.763  0.00  0.00    +0.214 C 
ATOM     25  H   UNL     1      -4.724   1.203  23.184  0.00  0.00    +0.149 HD
BRANCH  16  15
ATOM     15  C   UNL     1      -3.683  -1.034  23.741  0.00  0.00    +0.102 C 
BRANCH  15  13
ATOM     13  C   UNL     1      -3.325  -2.430  24.301  0.00  0.00    -0.029 C 
ATOM     17  C   UNL     1      -3.406  -2.449  25.836  0.00  0.00    +0.011 C 
ATOM     18  C   UNL     1      -4.346  -3.443  23.747  0.00  0.00    +0.011 C 
ATOM     19  C   UNL     1      -1.918  -2.871  23.862  0.00  0.00    +0.011 C 
ENDBRANCH  15  13
ENDBRANCH  16  15
ENDBRANCH  12   5
ENDBRANCH  10  12
TORSDOF 8
ENDMDL
MODEL 7
REMARK VINA RESULT:      -3.4      1.726      4.850
REMARK  Name = 75536529
REMARK  12 active torsions:
REMARK  status: ('A' for Active; 'I' for Inactive)
REMARK    1  A    between atoms: O_2  and  C_9
REMARK    2  A    between atoms: N_4  and  C_8
REMARK    3  A    between atoms: N_4  and  C_14
REMARK    4  A    between atoms: N_5  and  C_12
REMARK    5  A    between atoms: N_6  and  C_22
REMARK    6  A    between atoms: C_10  and  C_12
REMARK    7  A    between atoms: C_13  and  C_15
REMARK    8  A    between atoms: C_13  and  C_17
REMARK    9  A    between atoms: C_13  and  C_18
REMARK   10  A    between atoms: C_13  and  C_19
REMARK   11  A    between atoms: C_14  and  C_20
REMARK   12  A    between atoms: C_15  and  C_16
REMARK                            x       y       z     vdW  Elec       q    Type
REMARK                         _______ _______ _______ _____ _____    ______ ____
ROOT
ATOM      1  O   UNL     1      -1.066   3.092  26.469  0.00  0.00    -0.371 OA
ATOM      8  C   UNL     1       0.132   1.868  24.824  0.00  0.00    +0.111 C 
ATOM      9  C   UNL     1      -0.482   3.097  24.178  0.00  0.00    +0.164 C 
ATOM     10  C   UNL     1      -0.718   3.981  25.396  0.00  0.00    +0.165 C 
ATOM     11  C   UNL     1      -0.692   1.755  26.096  0.00  0.00    +0.181 C 
ENDROOT
BRANCH   9   2
ATOM      2  O   UNL     1       0.383   3.709  23.241  0.00  0.00    -0.388 OA
ATOM     26  H   UNL     1       1.235   3.242  23.261  0.00  0.00    +0.210 HD
ENDBRANCH   9   2
BRANCH   8   4
ATOM      4  N   UNL     1       0.059   0.676  23.995  0.00  0.00    -0.302 NA
ATOM     24  H   UNL     1       0.517  -0.096  24.479  0.00  0.00    +0.123 HD
BRANCH   4  14
ATOM     14  C   UNL     1      -1.325   0.309  23.722  0.00  0.00    +0.156 C 
BRANCH  14  20
ATOM      6  N   UNL     1      -2.913  -1.593  24.154  0.00  0.00    -0.336 N 
ATOM      7  N   UNL     1      -0.868  -1.814  24.989  0.00  0.00    -0.239 NA
ATOM     20  C   UNL     1      -1.674  -1.036  24.301  0.00  0.00    +0.123 A 
ATOM     21  C   UNL     1      -2.898  -2.802  24.790  0.00  0.00    +0.106 A 
ATOM     22  C   UNL     1      -4.043  -1.023  23.459  0.00  0.00    +0.150 C 
ATOM     23  C   UNL     1      -1.625  -2.916  25.299  0.00  0.00    +0.130 A 
ENDBRANCH  14  20
ENDBRANCH   4  14
ENDBRANCH   8   4
BRANCH  10  12
ATOM     12  C   UNL     1      -1.825   4.999  25.192  0.00  0.00    +0.138 C 
BRANCH  12   5
ATOM      3  O   UNL     1      -4.018   3.805  23.724  0.00  0.00    -0.276 OA
ATOM      5  N   UNL     1      -3.083   4.527  25.725  0.00  0.00    -0.313 N 
ATOM     16  C   UNL     1      -4.077   3.967  24.941  0.00  0.00    +0.214 C 
ATOM     25  H   UNL     1      -3.226   4.608  26.727  0.00  0.00    +0.149 HD
BRANCH  16  15
ATOM     15  C   UNL     1      -5.305   3.558  25.739  0.00  0.00    +0.102 C 
BRANCH  15  13
ATOM     13  C   UNL     1      -5.656   2.054  25.659  0.00  0.00    -0.029 C 
ATOM     17  C   UNL     1      -6.552   1.758  24.446  0.00  0.00    +0.011 C 
ATOM     18  C   UNL     1      -4.341   1.265  25.497  0.00  0.00    +0.011 C 
ATOM     19  C   UNL     1      -6.357   1.570  26.940  0.00  0.00    +0.011 C 
ENDBRANCH  15  13
ENDBRANCH  16  15
ENDBRANCH  12   5
ENDBRANCH  10  12
TORSDOF 8
ENDMDL
MODEL 8
REMARK VINA RESULT:      -3.2      1.560      4.369
REMARK  Name = 75536529
REMARK  12 active torsions:
REMARK  status: ('A' for Active; 'I' for Inactive)
REMARK    1  A    between atoms: O_2  and  C_9
REMARK    2  A    between atoms: N_4  and  C_8
REMARK    3  A    between atoms: N_4  and  C_14
REMARK    4  A    between atoms: N_5  and  C_12
REMARK    5  A    between atoms: N_6  and  C_22
REMARK    6  A    between atoms: C_10  and  C_12
REMARK    7  A    between atoms: C_13  and  C_15
REMARK    8  A    between atoms: C_13  and  C_17
REMARK    9  A    between atoms: C_13  and  C_18
REMARK   10  A    between atoms: C_13  and  C_19
REMARK   11  A    between atoms: C_14  and  C_20
REMARK   12  A    between atoms: C_15  and  C_16
REMARK                            x       y       z     vdW  Elec       q    Type
REMARK                         _______ _______ _______ _____ _____    ______ ____
ROOT
ATOM      1  O   UNL     1      -1.310  -0.945  26.229  0.00  0.00    -0.371 OA
ATOM      8  C   UNL     1      -3.411  -1.644  25.367  0.00  0.00    +0.111 C 
ATOM      9  C   UNL     1      -2.350  -1.830  24.298  0.00  0.00    +0.164 C 
ATOM     10  C   UNL     1      -1.083  -1.858  25.143  0.00  0.00    +0.165 C 
ATOM     11  C   UNL     1      -2.720  -0.671  26.309  0.00  0.00    +0.181 C 
ENDROOT
BRANCH   9   2
ATOM      2  O   UNL     1      -2.520  -3.026  23.563  0.00  0.00    -0.388 OA
ATOM     26  H   UNL     1      -2.788  -3.728  24.179  0.00  0.00    +0.210 HD
ENDBRANCH   9   2
BRANCH   8   4
ATOM      4  N   UNL     1      -4.673  -1.136  24.855  0.00  0.00    -0.302 NA
ATOM     24  H   UNL     1      -5.282  -0.905  25.639  0.00  0.00    +0.123 HD
BRANCH   4  14
ATOM     14  C   UNL     1      -4.468   0.058  24.045  0.00  0.00    +0.156 C 
BRANCH  14  20
ATOM      6  N   UNL     1      -4.635   2.555  24.303  0.00  0.00    -0.336 N 
ATOM      7  N   UNL     1      -5.698   1.338  25.826  0.00  0.00    -0.239 NA
ATOM     20  C   UNL     1      -4.949   1.301  24.747  0.00  0.00    +0.123 A 
ATOM     21  C   UNL     1      -5.221   3.450  25.154  0.00  0.00    +0.106 A 
ATOM     22  C   UNL     1      -3.833   2.892  23.151  0.00  0.00    +0.150 C 
ATOM     23  C   UNL     1      -5.871   2.675  26.086  0.00  0.00    +0.130 A 
ENDBRANCH  14  20
ENDBRANCH   4  14
ENDBRANCH   8   4
BRANCH  10  12
ATOM     12  C   UNL     1       0.159  -1.444  24.375  0.00  0.00    +0.138 C 
BRANCH  12   5
ATOM      3  O   UNL     1      -1.027   0.793  22.968  0.00  0.00    -0.276 OA
ATOM      5  N   UNL     1       0.450  -0.039  24.558  0.00  0.00    -0.313 N 
ATOM     16  C   UNL     1      -0.172   0.964  23.834  0.00  0.00    +0.214 C 
ATOM     25  H   UNL     1       1.140   0.209  25.260  0.00  0.00    +0.149 HD
BRANCH  16  15
ATOM     15  C   UNL     1       0.315   2.355  24.206  0.00  0.00    +0.102 C 
BRANCH  15  13
ATOM     13  C   UNL     1      -0.441   3.010  25.386  0.00  0.00    -0.029 C 
ATOM     17  C   UNL     1      -1.777   2.297  25.651  0.00  0.00    +0.011 C 
ATOM     18  C   UNL     1       0.437   2.882  26.646  0.00  0.00    +0.011 C 
ATOM     19  C   UNL     1      -0.705   4.503  25.128  0.00  0.00    +0.011 C 
ENDBRANCH  15  13
ENDBRANCH  16  15
ENDBRANCH  12   5
ENDBRANCH  10  12
TORSDOF 8
ENDMDL
MODEL 9
REMARK VINA RESULT:      -3.2      2.608      6.870
REMARK  Name = 75536529
REMARK  12 active torsions:
REMARK  status: ('A' for Active; 'I' for Inactive)
REMARK    1  A    between atoms: O_2  and  C_9
REMARK    2  A    between atoms: N_4  and  C_8
REMARK    3  A    between atoms: N_4  and  C_14
REMARK    4  A    between atoms: N_5  and  C_12
REMARK    5  A    between atoms: N_6  and  C_22
REMARK    6  A    between atoms: C_10  and  C_12
REMARK    7  A    between atoms: C_13  and  C_15
REMARK    8  A    between atoms: C_13  and  C_17
REMARK    9  A    between atoms: C_13  and  C_18
REMARK   10  A    between atoms: C_13  and  C_19
REMARK   11  A    between atoms: C_14  and  C_20
REMARK   12  A    between atoms: C_15  and  C_16
REMARK                            x       y       z     vdW  Elec       q    Type
REMARK                         _______ _______ _______ _____ _____    ______ ____
ROOT
ATOM      1  O   UNL     1      -1.981  -1.600  23.927  0.00  0.00    -0.371 OA
ATOM      8  C   UNL     1       0.119  -0.535  24.243  0.00  0.00    +0.111 C 
ATOM      9  C   UNL     1      -0.953   0.258  24.968  0.00  0.00    +0.164 C 
ATOM     10  C   UNL     1      -2.047  -0.792  25.113  0.00  0.00    +0.165 C 
ATOM     11  C   UNL     1      -0.718  -1.361  23.281  0.00  0.00    +0.181 C 
ENDROOT
BRANCH   9   2
ATOM      2  O   UNL     1      -0.517   0.743  26.223  0.00  0.00    -0.388 OA
ATOM     26  H   UNL     1      -0.204  -0.010  26.750  0.00  0.00    +0.210 HD
ENDBRANCH   9   2
BRANCH   8   4
ATOM      4  N   UNL     1       1.103   0.295  23.568  0.00  0.00    -0.302 NA
ATOM     24  H   UNL     1       1.683   0.760  24.266  0.00  0.00    +0.123 HD
BRANCH   4  14
ATOM     14  C   UNL     1       1.957  -0.506  22.699  0.00  0.00    +0.156 C 
BRANCH  14  20
ATOM      6  N   UNL     1       4.238   0.506  23.024  0.00  0.00    -0.336 N 
ATOM      7  N   UNL     1       3.952  -1.547  23.820  0.00  0.00    -0.239 NA
ATOM     20  C   UNL     1       3.379  -0.545  23.192  0.00  0.00    +0.123 A 
ATOM     21  C   UNL     1       5.435   0.150  23.579  0.00  0.00    +0.106 A 
ATOM     22  C   UNL     1       3.950   1.766  22.380  0.00  0.00    +0.150 C 
ATOM     23  C   UNL     1       5.234  -1.121  24.064  0.00  0.00    +0.130 A 
ENDBRANCH  14  20
ENDBRANCH   4  14
ENDBRANCH   8   4
BRANCH  10  12
ATOM     12  C   UNL     1      -3.436  -0.195  25.251  0.00  0.00    +0.138 C 
BRANCH  12   5
ATOM      3  O   UNL     1      -3.243   1.597  22.983  0.00  0.00    -0.276 OA
ATOM      5  N   UNL     1      -3.391   1.250  25.277  0.00  0.00    -0.313 N 
ATOM     16  C   UNL     1      -3.297   2.026  24.134  0.00  0.00    +0.214 C 
ATOM     25  H   UNL     1      -3.439   1.704  26.183  0.00  0.00    +0.149 HD
BRANCH  16  15
ATOM     15  C   UNL     1      -3.258   3.517  24.429  0.00  0.00    +0.102 C 
BRANCH  15  13
ATOM     13  C   UNL     1      -1.918   4.025  25.012  0.00  0.00    -0.029 C 
ATOM     17  C   UNL     1      -1.863   5.561  25.017  0.00  0.00    +0.011 C 
ATOM     18  C   UNL     1      -1.812   3.529  26.467  0.00  0.00    +0.011 C 
ATOM     19  C   UNL     1      -0.716   3.476  24.224  0.00  0.00    +0.011 C 
ENDBRANCH  15  13
ENDBRANCH  16  15
ENDBRANCH  12   5
ENDBRANCH  10  12
TORSDOF 8
ENDMDL
MODEL 10
REMARK VINA RESULT:      -3.2      2.758      6.795
REMARK  Name = 75536529
REMARK  12 active torsions:
REMARK  status: ('A' for Active; 'I' for Inactive)
REMARK    1  A    between atoms: O_2  and  C_9
REMARK    2  A    between atoms: N_4  and  C_8
REMARK    3  A    between atoms: N_4  and  C_14
REMARK    4  A    between atoms: N_5  and  C_12
REMARK    5  A    between atoms: N_6  and  C_22
REMARK    6  A    between atoms: C_10  and  C_12
REMARK    7  A    between atoms: C_13  and  C_15
REMARK    8  A    between atoms: C_13  and  C_17
REMARK    9  A    between atoms: C_13  and  C_18
REMARK   10  A    between atoms: C_13  and  C_19
REMARK   11  A    between atoms: C_14  and  C_20
REMARK   12  A    between atoms: C_15  and  C_16
REMARK                            x       y       z     vdW  Elec       q    Type
REMARK                         _______ _______ _______ _____ _____    ______ ____
ROOT
ATOM      1  O   UNL     1      -1.707  -2.033  24.198  0.00  0.00    -0.371 OA
ATOM      8  C   UNL     1       0.172  -0.586  24.331  0.00  0.00    +0.111 C 
ATOM      9  C   UNL     1      -1.000   0.057  25.049  0.00  0.00    +0.164 C 
ATOM     10  C   UNL     1      -1.877  -1.157  25.324  0.00  0.00    +0.165 C 
ATOM     11  C   UNL     1      -0.534  -1.623  23.473  0.00  0.00    +0.181 C 
ENDROOT
BRANCH   9   2
ATOM      2  O   UNL     1      -0.616   0.712  26.242  0.00  0.00    -0.388 OA
ATOM     26  H   UNL     1       0.319   0.510  26.414  0.00  0.00    +0.210 HD
ENDBRANCH   9   2
BRANCH   8   4
ATOM      4  N   UNL     1       0.963   0.351  23.549  0.00  0.00    -0.302 NA
ATOM     24  H   UNL     1       1.539   0.908  24.179  0.00  0.00    +0.123 HD
BRANCH   4  14
ATOM     14  C   UNL     1       1.829  -0.350  22.609  0.00  0.00    +0.156 C 
BRANCH  14  20
ATOM      6  N   UNL     1       4.149   0.549  22.982  0.00  0.00    -0.336 N 
ATOM      7  N   UNL     1       3.755  -1.498  23.747  0.00  0.00    -0.239 NA
ATOM     20  C   UNL     1       3.240  -0.462  23.123  0.00  0.00    +0.123 A 
ATOM     21  C   UNL     1       5.319   0.131  23.550  0.00  0.00    +0.106 A 
ATOM     22  C   UNL     1       3.931   1.829  22.350  0.00  0.00    +0.150 C 
ATOM     23  C   UNL     1       5.052  -1.136  24.015  0.00  0.00    +0.130 A 
ENDBRANCH  14  20
ENDBRANCH   4  14
ENDBRANCH   8   4
BRANCH  10  12
ATOM     12  C   UNL     1      -3.346  -0.811  25.488  0.00  0.00    +0.138 C 
BRANCH  12   5
ATOM      3  O   UNL     1      -5.712   0.650  24.674  0.00  0.00    -0.276 OA
ATOM      5  N   UNL     1      -3.551   0.620  25.530  0.00  0.00    -0.313 N 
ATOM     16  C   UNL     1      -4.723   1.231  25.117  0.00  0.00    +0.214 C 
ATOM     25  H   UNL     1      -2.793   1.191  25.890  0.00  0.00    +0.149 HD
BRANCH  16  15
ATOM     15  C   UNL     1      -4.684   2.745  25.253  0.00  0.00    +0.102 C 
BRANCH  15  13
ATOM     13  C   UNL     1      -3.570   3.439  24.435  0.00  0.00    -0.029 C 
ATOM     17  C   UNL     1      -4.060   4.777  23.858  0.00  0.00    +0.011 C 
ATOM     18  C   UNL     1      -2.387   3.720  25.382  0.00  0.00    +0.011 C 
ATOM     19  C   UNL     1      -3.072   2.544  23.288  0.00  0.00    +0.011 C 
ENDBRANCH  15  13
ENDBRANCH  16  15
ENDBRANCH  12   5
ENDBRANCH  10  12
TORSDOF 8
ENDMDL
