MODEL 1
REMARK VINA RESULT:      -0.9      0.000      0.000
REMARK  Name = 75536096
REMARK  9 active torsions:
REMARK  status: ('A' for Active; 'I' for Inactive)
REMARK    1  A    between atoms: S_1  and  N_10
REMARK    2  A    between atoms: S_1  and  C_19
REMARK    3  A    between atoms: O_5  and  C_13
REMARK    4  A    between atoms: O_6  and  C_15
REMARK    5  A    between atoms: O_9  and  C_22
REMARK    6  A    between atoms: O_9  and  C_29
REMARK    7  A    between atoms: N_10  and  C_11
REMARK    8  A    between atoms: C_12  and  C_16
REMARK    9  A    between atoms: C_27  and  C_28
REMARK                            x       y       z     vdW  Elec       q    Type
REMARK                         _______ _______ _______ _____ _____    ______ ____
ROOT
ATOM     11  C   UNL     1      -3.339   3.250  25.236  0.00  0.00    +0.115 C 
ATOM     12  C   UNL     1      -4.340   2.418  24.387  0.00  0.00    +0.043 C 
ATOM     13  C   UNL     1      -4.192   4.259  26.018  0.00  0.00    +0.162 C 
ATOM     14  C   UNL     1      -5.736   2.898  24.814  0.00  0.00    +0.043 C 
ATOM     15  C   UNL     1      -5.494   4.341  25.227  0.00  0.00    +0.145 C 
ENDROOT
BRANCH  12  16
ATOM     16  C   UNL     1      -4.161   0.921  24.516  0.00  0.00    -0.042 A 
ATOM     17  C   UNL     1      -3.934   0.145  23.380  0.00  0.00    +0.007 A 
ATOM     18  C   UNL     1      -4.222   0.318  25.773  0.00  0.00    +0.007 A 
ATOM     20  C   UNL     1      -3.769  -1.236  23.500  0.00  0.00    +0.046 A 
ATOM     21  C   UNL     1      -4.057  -1.061  25.893  0.00  0.00    +0.046 A 
ATOM     22  C   UNL     1      -3.831  -1.839  24.757  0.00  0.00    +0.120 A 
BRANCH  22   9
ATOM      9  O   UNL     1      -3.669  -3.185  24.874  0.00  0.00    -0.495 OA
ATOM     29  C   UNL     1      -3.689  -3.948  23.668  0.00  0.00    +0.277 C 
ENDBRANCH  22   9
ENDBRANCH  12  16
BRANCH  13   5
ATOM      5  O   UNL     1      -4.425   3.725  27.319  0.00  0.00    -0.388 OA
ATOM     31  H   UNL     1      -5.067   4.306  27.763  0.00  0.00    +0.210 HD
ENDBRANCH  13   5
BRANCH  15   6
ATOM      6  O   UNL     1      -6.567   4.848  25.994  0.00  0.00    -0.389 OA
ATOM     32  H   UNL     1      -6.343   4.720  26.931  0.00  0.00    +0.210 HD
ENDBRANCH  15   6
BRANCH  11  10
ATOM     10  N   UNL     1      -2.416   3.982  24.329  0.00  0.00    -0.184 NA
ATOM     30  H   UNL     1      -2.818   4.438  23.502  0.00  0.00    +0.148 HD
BRANCH  10   1
ATOM      1  S   UNL     1      -0.739   3.760  24.471  0.00  0.00    +0.059 S 
ATOM      7  O   UNL     1      -0.273   4.369  25.703  0.00  0.00    -0.153 OA
ATOM      8  O   UNL     1      -0.113   4.100  23.207  0.00  0.00    -0.153 OA
BRANCH   1  19
ATOM     19  C   UNL     1      -0.616   2.005  24.651  0.00  0.00    +0.105 A 
ATOM     23  C   UNL     1      -0.326   1.210  23.541  0.00  0.00    +0.029 A 
ATOM     24  C   UNL     1      -0.812   1.417  25.900  0.00  0.00    +0.029 A 
ATOM     25  C   UNL     1      -0.232  -0.174  23.683  0.00  0.00    +0.014 A 
ATOM     26  C   UNL     1      -0.717   0.032  26.040  0.00  0.00    +0.014 A 
ATOM     27  C   UNL     1      -0.427  -0.764  24.931  0.00  0.00    +0.055 A 
BRANCH  27  28
ATOM      2  F   UNL     1      -0.590  -2.909  23.920  0.00  0.00    -0.166 F 
ATOM      3  F   UNL     1       0.910  -2.671  25.476  0.00  0.00    -0.166 F 
ATOM      4  F   UNL     1      -1.192  -2.760  26.004  0.00  0.00    -0.166 F 
ATOM     28  C   UNL     1      -0.326  -2.244  25.082  0.00  0.00    +0.417 C 
ENDBRANCH  27  28
ENDBRANCH   1  19
ENDBRANCH  10   1
ENDBRANCH  11  10
TORSDOF 8
ENDMDL
MODEL 2
REMARK VINA RESULT:      -0.8      2.263      4.272
REMARK  Name = 75536096
REMARK  9 active torsions:
REMARK  status: ('A' for Active; 'I' for Inactive)
REMARK    1  A    between atoms: S_1  and  N_10
REMARK    2  A    between atoms: S_1  and  C_19
REMARK    3  A    between atoms: O_5  and  C_13
REMARK    4  A    between atoms: O_6  and  C_15
REMARK    5  A    between atoms: O_9  and  C_22
REMARK    6  A    between atoms: O_9  and  C_29
REMARK    7  A    between atoms: N_10  and  C_11
REMARK    8  A    between atoms: C_12  and  C_16
REMARK    9  A    between atoms: C_27  and  C_28
REMARK                            x       y       z     vdW  Elec       q    Type
REMARK                         _______ _______ _______ _____ _____    ______ ____
ROOT
ATOM     11  C   UNL     1      -3.666   3.421  24.978  0.00  0.00    +0.115 C 
ATOM     12  C   UNL     1      -2.228   3.232  25.535  0.00  0.00    +0.043 C 
ATOM     13  C   UNL     1      -3.815   4.924  24.707  0.00  0.00    +0.162 C 
ATOM     14  C   UNL     1      -1.566   4.616  25.439  0.00  0.00    +0.043 C 
ATOM     15  C   UNL     1      -2.742   5.570  25.579  0.00  0.00    +0.145 C 
ENDROOT
BRANCH  12  16
ATOM     16  C   UNL     1      -1.436   2.146  24.839  0.00  0.00    -0.042 A 
ATOM     17  C   UNL     1      -0.616   1.296  25.580  0.00  0.00    +0.007 A 
ATOM     18  C   UNL     1      -1.528   1.995  23.455  0.00  0.00    +0.007 A 
ATOM     20  C   UNL     1       0.114   0.295  24.938  0.00  0.00    +0.046 A 
ATOM     21  C   UNL     1      -0.799   0.995  22.813  0.00  0.00    +0.046 A 
ATOM     22  C   UNL     1       0.022   0.145  23.554  0.00  0.00    +0.120 A 
BRANCH  22   9
ATOM      9  O   UNL     1       0.733  -0.832  22.927  0.00  0.00    -0.495 OA
ATOM     29  C   UNL     1       1.898  -0.427  22.210  0.00  0.00    +0.277 C 
ENDBRANCH  22   9
ENDBRANCH  12  16
BRANCH  13   5
ATOM      5  O   UNL     1      -3.547   5.153  23.325  0.00  0.00    -0.388 OA
ATOM     31  H   UNL     1      -3.789   4.344  22.842  0.00  0.00    +0.210 HD
ENDBRANCH  13   5
BRANCH  15   6
ATOM      6  O   UNL     1      -2.404   6.874  25.152  0.00  0.00    -0.389 OA
ATOM     32  H   UNL     1      -1.445   6.891  24.993  0.00  0.00    +0.210 HD
ENDBRANCH  15   6
BRANCH  11  10
ATOM     10  N   UNL     1      -4.651   3.006  26.011  0.00  0.00    -0.184 NA
ATOM     30  H   UNL     1      -4.493   3.319  26.976  0.00  0.00    +0.148 HD
BRANCH  10   1
ATOM      1  S   UNL     1      -5.772   1.779  25.666  0.00  0.00    +0.059 S 
ATOM      7  O   UNL     1      -6.520   2.129  24.473  0.00  0.00    -0.153 OA
ATOM      8  O   UNL     1      -6.471   1.426  26.887  0.00  0.00    -0.153 OA
BRANCH   1  19
ATOM     19  C   UNL     1      -4.715   0.419  25.266  0.00  0.00    +0.105 A 
ATOM     23  C   UNL     1      -3.974  -0.205  26.270  0.00  0.00    +0.029 A 
ATOM     24  C   UNL     1      -4.620  -0.027  23.948  0.00  0.00    +0.029 A 
ATOM     25  C   UNL     1      -3.138  -1.276  25.955  0.00  0.00    +0.014 A 
ATOM     26  C   UNL     1      -3.784  -1.098  23.634  0.00  0.00    +0.014 A 
ATOM     27  C   UNL     1      -3.042  -1.723  24.637  0.00  0.00    +0.055 A 
BRANCH  27  28
ATOM      2  F   UNL     1      -2.842  -3.999  23.980  0.00  0.00    -0.166 F 
ATOM      3  F   UNL     1      -1.327  -2.627  23.237  0.00  0.00    -0.166 F 
ATOM      4  F   UNL     1      -1.314  -3.228  25.321  0.00  0.00    -0.166 F 
ATOM     28  C   UNL     1      -2.149  -2.868  24.301  0.00  0.00    +0.417 C 
ENDBRANCH  27  28
ENDBRANCH   1  19
ENDBRANCH  10   1
ENDBRANCH  11  10
TORSDOF 8
ENDMDL
MODEL 3
REMARK VINA RESULT:      -0.7      1.974      2.749
REMARK  Name = 75536096
REMARK  9 active torsions:
REMARK  status: ('A' for Active; 'I' for Inactive)
REMARK    1  A    between atoms: S_1  and  N_10
REMARK    2  A    between atoms: S_1  and  C_19
REMARK    3  A    between atoms: O_5  and  C_13
REMARK    4  A    between atoms: O_6  and  C_15
REMARK    5  A    between atoms: O_9  and  C_22
REMARK    6  A    between atoms: O_9  and  C_29
REMARK    7  A    between atoms: N_10  and  C_11
REMARK    8  A    between atoms: C_12  and  C_16
REMARK    9  A    between atoms: C_27  and  C_28
REMARK                            x       y       z     vdW  Elec       q    Type
REMARK                         _______ _______ _______ _____ _____    ______ ____
ROOT
ATOM     11  C   UNL     1      -4.339   2.478  25.452  0.00  0.00    +0.115 C 
ATOM     12  C   UNL     1      -4.378   1.391  24.343  0.00  0.00    +0.043 C 
ATOM     13  C   UNL     1      -5.805   2.784  25.789  0.00  0.00    +0.162 C 
ATOM     14  C   UNL     1      -5.862   1.025  24.180  0.00  0.00    +0.043 C 
ATOM     15  C   UNL     1      -6.578   2.311  24.562  0.00  0.00    +0.145 C 
ENDROOT
BRANCH  12  16
ATOM     16  C   UNL     1      -3.498   0.193  24.624  0.00  0.00    -0.042 A 
ATOM     17  C   UNL     1      -2.458   0.292  25.548  0.00  0.00    +0.007 A 
ATOM     18  C   UNL     1      -3.729  -1.013  23.961  0.00  0.00    +0.007 A 
ATOM     20  C   UNL     1      -1.648  -0.813  25.808  0.00  0.00    +0.046 A 
ATOM     21  C   UNL     1      -2.919  -2.117  24.220  0.00  0.00    +0.046 A 
ATOM     22  C   UNL     1      -1.878  -2.018  25.144  0.00  0.00    +0.120 A 
BRANCH  22   9
ATOM      9  O   UNL     1      -1.087  -3.097  25.398  0.00  0.00    -0.495 OA
ATOM     29  C   UNL     1       0.297  -2.845  25.633  0.00  0.00    +0.277 C 
ENDBRANCH  22   9
ENDBRANCH  12  16
BRANCH  13   5
ATOM      5  O   UNL     1      -6.164   2.018  26.937  0.00  0.00    -0.388 OA
ATOM     31  H   UNL     1      -6.971   2.412  27.311  0.00  0.00    +0.210 HD
ENDBRANCH  13   5
BRANCH  15   6
ATOM      6  O   UNL     1      -7.946   2.081  24.833  0.00  0.00    -0.389 OA
ATOM     32  H   UNL     1      -8.012   1.235  25.306  0.00  0.00    +0.210 HD
ENDBRANCH  15   6
BRANCH  11  10
ATOM     10  N   UNL     1      -3.690   3.703  24.917  0.00  0.00    -0.184 NA
ATOM     30  H   UNL     1      -4.078   4.116  24.061  0.00  0.00    +0.148 HD
BRANCH  10   1
ATOM      1  S   UNL     1      -2.165   4.175  25.496  0.00  0.00    +0.059 S 
ATOM      7  O   UNL     1      -2.102   3.951  26.928  0.00  0.00    -0.153 OA
ATOM      8  O   UNL     1      -1.837   5.476  24.946  0.00  0.00    -0.153 OA
BRANCH   1  19
ATOM     19  C   UNL     1      -1.098   3.001  24.714  0.00  0.00    +0.105 A 
ATOM     23  C   UNL     1      -1.422   2.499  23.454  0.00  0.00    +0.029 A 
ATOM     24  C   UNL     1       0.064   2.577  25.359  0.00  0.00    +0.029 A 
ATOM     25  C   UNL     1      -0.581   1.571  22.838  0.00  0.00    +0.014 A 
ATOM     26  C   UNL     1       0.904   1.650  24.742  0.00  0.00    +0.014 A 
ATOM     27  C   UNL     1       0.581   1.146  23.481  0.00  0.00    +0.055 A 
BRANCH  27  28
ATOM      2  F   UNL     1       1.646  -0.978  23.564  0.00  0.00    -0.166 F 
ATOM      3  F   UNL     1       1.028  -0.267  21.604  0.00  0.00    -0.166 F 
ATOM      4  F   UNL     1       2.739   0.629  22.590  0.00  0.00    -0.166 F 
ATOM     28  C   UNL     1       1.479   0.156  22.822  0.00  0.00    +0.417 C 
ENDBRANCH  27  28
ENDBRANCH   1  19
ENDBRANCH  10   1
ENDBRANCH  11  10
TORSDOF 8
ENDMDL
MODEL 4
REMARK VINA RESULT:      -0.2      3.569      6.154
REMARK  Name = 75536096
REMARK  9 active torsions:
REMARK  status: ('A' for Active; 'I' for Inactive)
REMARK    1  A    between atoms: S_1  and  N_10
REMARK    2  A    between atoms: S_1  and  C_19
REMARK    3  A    between atoms: O_5  and  C_13
REMARK    4  A    between atoms: O_6  and  C_15
REMARK    5  A    between atoms: O_9  and  C_22
REMARK    6  A    between atoms: O_9  and  C_29
REMARK    7  A    between atoms: N_10  and  C_11
REMARK    8  A    between atoms: C_12  and  C_16
REMARK    9  A    between atoms: C_27  and  C_28
REMARK                            x       y       z     vdW  Elec       q    Type
REMARK                         _______ _______ _______ _____ _____    ______ ____
ROOT
ATOM     11  C   UNL     1      -3.468  -0.482  25.098  0.00  0.00    +0.115 C 
ATOM     12  C   UNL     1      -2.511  -1.068  24.024  0.00  0.00    +0.043 C 
ATOM     13  C   UNL     1      -3.883  -1.669  25.980  0.00  0.00    +0.162 C 
ATOM     14  C   UNL     1      -2.314  -2.543  24.411  0.00  0.00    +0.043 C 
ATOM     15  C   UNL     1      -3.619  -2.893  25.109  0.00  0.00    +0.145 C 
ENDROOT
BRANCH  12  16
ATOM     16  C   UNL     1      -1.207  -0.312  23.883  0.00  0.00    -0.042 A 
ATOM     17  C   UNL     1      -1.018   0.885  24.572  0.00  0.00    +0.007 A 
ATOM     18  C   UNL     1      -0.195  -0.815  23.066  0.00  0.00    +0.007 A 
ATOM     20  C   UNL     1       0.184   1.582  24.443  0.00  0.00    +0.046 A 
ATOM     21  C   UNL     1       1.006  -0.119  22.936  0.00  0.00    +0.046 A 
ATOM     22  C   UNL     1       1.196   1.080  23.624  0.00  0.00    +0.120 A 
BRANCH  22   9
ATOM      9  O   UNL     1       2.369   1.759  23.498  0.00  0.00    -0.495 OA
ATOM     29  C   UNL     1       3.429   1.100  22.809  0.00  0.00    +0.277 C 
ENDBRANCH  22   9
ENDBRANCH  12  16
BRANCH  13   5
ATOM      5  O   UNL     1      -3.043  -1.678  27.132  0.00  0.00    -0.388 OA
ATOM     31  H   UNL     1      -2.606  -2.547  27.168  0.00  0.00    +0.210 HD
ENDBRANCH  13   5
BRANCH  15   6
ATOM      6  O   UNL     1      -3.501  -4.083  25.862  0.00  0.00    -0.389 OA
ATOM     32  H   UNL     1      -2.716  -3.994  26.428  0.00  0.00    +0.210 HD
ENDBRANCH  15   6
BRANCH  11  10
ATOM     10  N   UNL     1      -4.671   0.080  24.430  0.00  0.00    -0.184 NA
ATOM     30  H   UNL     1      -4.906  -0.269  23.493  0.00  0.00    +0.148 HD
BRANCH  10   1
ATOM      1  S   UNL     1      -5.399   1.486  25.043  0.00  0.00    +0.059 S 
ATOM      7  O   UNL     1      -5.726   1.290  26.443  0.00  0.00    -0.153 OA
ATOM      8  O   UNL     1      -6.419   1.929  24.111  0.00  0.00    -0.153 OA
BRANCH   1  19
ATOM     19  C   UNL     1      -4.075   2.653  24.951  0.00  0.00    +0.105 A 
ATOM     23  C   UNL     1      -3.520   2.981  23.714  0.00  0.00    +0.029 A 
ATOM     24  C   UNL     1      -3.584   3.244  26.115  0.00  0.00    +0.029 A 
ATOM     25  C   UNL     1      -2.474   3.901  23.641  0.00  0.00    +0.014 A 
ATOM     26  C   UNL     1      -2.537   4.164  26.042  0.00  0.00    +0.014 A 
ATOM     27  C   UNL     1      -1.982   4.492  24.805  0.00  0.00    +0.055 A 
BRANCH  27  28
ATOM      2  F   UNL     1      -1.258   6.745  25.036  0.00  0.00    -0.166 F 
ATOM      3  F   UNL     1       0.171   5.196  25.573  0.00  0.00    -0.166 F 
ATOM      4  F   UNL     1      -0.296   5.560  23.487  0.00  0.00    -0.166 F 
ATOM     28  C   UNL     1      -0.864   5.475  24.727  0.00  0.00    +0.417 C 
ENDBRANCH  27  28
ENDBRANCH   1  19
ENDBRANCH  10   1
ENDBRANCH  11  10
TORSDOF 8
ENDMDL
MODEL 5
REMARK VINA RESULT:       0.0      3.550      6.392
REMARK  Name = 75536096
REMARK  9 active torsions:
REMARK  status: ('A' for Active; 'I' for Inactive)
REMARK    1  A    between atoms: S_1  and  N_10
REMARK    2  A    between atoms: S_1  and  C_19
REMARK    3  A    between atoms: O_5  and  C_13
REMARK    4  A    between atoms: O_6  and  C_15
REMARK    5  A    between atoms: O_9  and  C_22
REMARK    6  A    between atoms: O_9  and  C_29
REMARK    7  A    between atoms: N_10  and  C_11
REMARK    8  A    between atoms: C_12  and  C_16
REMARK    9  A    between atoms: C_27  and  C_28
REMARK                            x       y       z     vdW  Elec       q    Type
REMARK                         _______ _______ _______ _____ _____    ______ ____
ROOT
ATOM     11  C   UNL     1      -3.827  -0.585  25.078  0.00  0.00    +0.115 C 
ATOM     12  C   UNL     1      -2.561  -0.282  24.230  0.00  0.00    +0.043 C 
ATOM     13  C   UNL     1      -4.003  -2.110  25.036  0.00  0.00    +0.162 C 
ATOM     14  C   UNL     1      -1.988  -1.655  23.845  0.00  0.00    +0.043 C 
ATOM     15  C   UNL     1      -3.221  -2.543  23.800  0.00  0.00    +0.145 C 
ENDROOT
BRANCH  12  16
ATOM     16  C   UNL     1      -1.554   0.607  24.926  0.00  0.00    -0.042 A 
ATOM     17  C   UNL     1      -1.492   0.634  26.319  0.00  0.00    +0.007 A 
ATOM     18  C   UNL     1      -0.686   1.399  24.173  0.00  0.00    +0.007 A 
ATOM     20  C   UNL     1      -0.563   1.454  26.961  0.00  0.00    +0.046 A 
ATOM     21  C   UNL     1       0.242   2.219  24.814  0.00  0.00    +0.046 A 
ATOM     22  C   UNL     1       0.304   2.247  26.208  0.00  0.00    +0.120 A 
BRANCH  22   9
ATOM      9  O   UNL     1       1.211   3.046  26.833  0.00  0.00    -0.495 OA
ATOM     29  C   UNL     1       1.563   2.703  28.172  0.00  0.00    +0.277 C 
ENDBRANCH  22   9
ENDBRANCH  12  16
BRANCH  13   5
ATOM      5  O   UNL     1      -3.419  -2.654  26.218  0.00  0.00    -0.388 OA
ATOM     31  H   UNL     1      -3.688  -3.587  26.275  0.00  0.00    +0.210 HD
ENDBRANCH  13   5
BRANCH  15   6
ATOM      6  O   UNL     1      -2.875  -3.913  23.825  0.00  0.00    -0.389 OA
ATOM     32  H   UNL     1      -3.555  -4.377  24.342  0.00  0.00    +0.210 HD
ENDBRANCH  15   6
BRANCH  11  10
ATOM     10  N   UNL     1      -5.007   0.064  24.448  0.00  0.00    -0.184 NA
ATOM     30  H   UNL     1      -5.221  -0.173  23.473  0.00  0.00    +0.148 HD
BRANCH  10   1
ATOM      1  S   UNL     1      -5.738   1.400  25.199  0.00  0.00    +0.059 S 
ATOM      7  O   UNL     1      -5.956   1.106  26.603  0.00  0.00    -0.153 OA
ATOM      8  O   UNL     1      -6.837   1.859  24.372  0.00  0.00    -0.153 OA
BRANCH   1  19
ATOM     19  C   UNL     1      -4.465   2.622  25.090  0.00  0.00    +0.105 A 
ATOM     23  C   UNL     1      -3.937   3.184  26.252  0.00  0.00    +0.029 A 
ATOM     24  C   UNL     1      -3.992   3.027  23.841  0.00  0.00    +0.029 A 
ATOM     25  C   UNL     1      -2.935   4.150  26.166  0.00  0.00    +0.014 A 
ATOM     26  C   UNL     1      -2.989   3.993  23.755  0.00  0.00    +0.014 A 
ATOM     27  C   UNL     1      -2.461   4.555  24.918  0.00  0.00    +0.055 A 
BRANCH  27  28
ATOM      2  F   UNL     1      -1.073   5.902  23.536  0.00  0.00    -0.166 F 
ATOM      3  F   UNL     1      -1.716   6.771  25.423  0.00  0.00    -0.166 F 
ATOM      4  F   UNL     1      -0.213   5.207  25.409  0.00  0.00    -0.166 F 
ATOM     28  C   UNL     1      -1.389   5.587  24.826  0.00  0.00    +0.417 C 
ENDBRANCH  27  28
ENDBRANCH   1  19
ENDBRANCH  10   1
ENDBRANCH  11  10
TORSDOF 8
ENDMDL
MODEL 6
REMARK VINA RESULT:       0.2      4.116      6.990
REMARK  Name = 75536096
REMARK  9 active torsions:
REMARK  status: ('A' for Active; 'I' for Inactive)
REMARK    1  A    between atoms: S_1  and  N_10
REMARK    2  A    between atoms: S_1  and  C_19
REMARK    3  A    between atoms: O_5  and  C_13
REMARK    4  A    between atoms: O_6  and  C_15
REMARK    5  A    between atoms: O_9  and  C_22
REMARK    6  A    between atoms: O_9  and  C_29
REMARK    7  A    between atoms: N_10  and  C_11
REMARK    8  A    between atoms: C_12  and  C_16
REMARK    9  A    between atoms: C_27  and  C_28
REMARK                            x       y       z     vdW  Elec       q    Type
REMARK                         _______ _______ _______ _____ _____    ______ ____
ROOT
ATOM     11  C   UNL     1       0.486   0.927  24.146  0.00  0.00    +0.115 C 
ATOM     12  C   UNL     1       1.179   0.093  23.033  0.00  0.00    +0.043 C 
ATOM     13  C   UNL     1      -0.684   0.067  24.645  0.00  0.00    +0.162 C 
ATOM     14  C   UNL     1       0.457  -1.264  23.028  0.00  0.00    +0.043 C 
ATOM     15  C   UNL     1      -0.944  -0.910  23.503  0.00  0.00    +0.145 C 
ENDROOT
BRANCH  12  16
ATOM     16  C   UNL     1       2.677  -0.033  23.201  0.00  0.00    -0.042 A 
ATOM     17  C   UNL     1       3.509   1.038  22.873  0.00  0.00    +0.007 A 
ATOM     18  C   UNL     1       3.227  -1.220  23.684  0.00  0.00    +0.007 A 
ATOM     20  C   UNL     1       4.890   0.922  23.028  0.00  0.00    +0.046 A 
ATOM     21  C   UNL     1       4.608  -1.336  23.839  0.00  0.00    +0.046 A 
ATOM     22  C   UNL     1       5.440  -0.266  23.511  0.00  0.00    +0.120 A 
BRANCH  22   9
ATOM      9  O   UNL     1       6.788  -0.379  23.663  0.00  0.00    -0.495 OA
ATOM     29  C   UNL     1       7.524  -0.897  22.557  0.00  0.00    +0.277 C 
ENDBRANCH  22   9
ENDBRANCH  12  16
BRANCH  13   5
ATOM      5  O   UNL     1      -0.255  -0.627  25.815  0.00  0.00    -0.388 OA
ATOM     31  H   UNL     1      -0.607  -1.532  25.764  0.00  0.00    +0.210 HD
ENDBRANCH  13   5
BRANCH  15   6
ATOM      6  O   UNL     1      -1.655  -2.058  23.918  0.00  0.00    -0.389 OA
ATOM     32  H   UNL     1      -1.383  -2.795  23.345  0.00  0.00    +0.210 HD
ENDBRANCH  15   6
BRANCH  11  10
ATOM     10  N   UNL     1      -0.041   2.186  23.560  0.00  0.00    -0.184 NA
ATOM     30  H   UNL     1       0.014   2.301  22.541  0.00  0.00    +0.148 HD
BRANCH  10   1
ATOM      1  S   UNL     1      -0.383   3.510  24.567  0.00  0.00    +0.059 S 
ATOM      7  O   UNL     1      -0.233   4.741  23.815  0.00  0.00    -0.153 OA
ATOM      8  O   UNL     1       0.316   3.334  25.826  0.00  0.00    -0.153 OA
BRANCH   1  19
ATOM     19  C   UNL     1      -2.105   3.281  24.898  0.00  0.00    +0.105 A 
ATOM     23  C   UNL     1      -2.701   3.940  25.974  0.00  0.00    +0.029 A 
ATOM     24  C   UNL     1      -2.866   2.440  24.086  0.00  0.00    +0.029 A 
ATOM     25  C   UNL     1      -4.059   3.758  26.236  0.00  0.00    +0.014 A 
ATOM     26  C   UNL     1      -4.224   2.259  24.349  0.00  0.00    +0.014 A 
ATOM     27  C   UNL     1      -4.821   2.918  25.425  0.00  0.00    +0.055 A 
BRANCH  27  28
ATOM      2  F   UNL     1      -6.962   3.901  25.741  0.00  0.00    -0.166 F 
ATOM      3  F   UNL     1      -6.911   1.951  24.779  0.00  0.00    -0.166 F 
ATOM      4  F   UNL     1      -6.520   2.118  26.905  0.00  0.00    -0.166 F 
ATOM     28  C   UNL     1      -6.272   2.724  25.706  0.00  0.00    +0.417 C 
ENDBRANCH  27  28
ENDBRANCH   1  19
ENDBRANCH  10   1
ENDBRANCH  11  10
TORSDOF 8
ENDMDL
MODEL 7
REMARK VINA RESULT:       0.8      3.654      6.914
REMARK  Name = 75536096
REMARK  9 active torsions:
REMARK  status: ('A' for Active; 'I' for Inactive)
REMARK    1  A    between atoms: S_1  and  N_10
REMARK    2  A    between atoms: S_1  and  C_19
REMARK    3  A    between atoms: O_5  and  C_13
REMARK    4  A    between atoms: O_6  and  C_15
REMARK    5  A    between atoms: O_9  and  C_22
REMARK    6  A    between atoms: O_9  and  C_29
REMARK    7  A    between atoms: N_10  and  C_11
REMARK    8  A    between atoms: C_12  and  C_16
REMARK    9  A    between atoms: C_27  and  C_28
REMARK                            x       y       z     vdW  Elec       q    Type
REMARK                         _______ _______ _______ _____ _____    ______ ____
ROOT
ATOM     11  C   UNL     1      -0.968  -1.115  24.598  0.00  0.00    +0.115 C 
ATOM     12  C   UNL     1      -0.337   0.055  23.793  0.00  0.00    +0.043 C 
ATOM     13  C   UNL     1       0.187  -2.075  24.913  0.00  0.00    +0.162 C 
ATOM     14  C   UNL     1       1.176  -0.217  23.792  0.00  0.00    +0.043 C 
ATOM     15  C   UNL     1       1.253  -1.733  23.876  0.00  0.00    +0.145 C 
ENDROOT
BRANCH  12  16
ATOM     16  C   UNL     1      -0.693   1.428  24.322  0.00  0.00    -0.042 A 
ATOM     17  C   UNL     1      -0.984   1.599  25.675  0.00  0.00    +0.007 A 
ATOM     18  C   UNL     1      -0.727   2.521  23.456  0.00  0.00    +0.007 A 
ATOM     20  C   UNL     1      -1.311   2.865  26.163  0.00  0.00    +0.046 A 
ATOM     21  C   UNL     1      -1.055   3.786  23.944  0.00  0.00    +0.046 A 
ATOM     22  C   UNL     1      -1.347   3.959  25.297  0.00  0.00    +0.120 A 
BRANCH  22   9
ATOM      9  O   UNL     1      -1.666   5.193  25.773  0.00  0.00    -0.495 OA
ATOM     29  C   UNL     1      -1.794   6.244  24.816  0.00  0.00    +0.277 C 
ENDBRANCH  22   9
ENDBRANCH  12  16
BRANCH  13   5
ATOM      5  O   UNL     1       0.654  -1.787  26.230  0.00  0.00    -0.388 OA
ATOM     31  H   UNL     1       0.341  -0.896  26.463  0.00  0.00    +0.210 HD
ENDBRANCH  13   5
BRANCH  15   6
ATOM      6  O   UNL     1       2.543  -2.166  24.257  0.00  0.00    -0.389 OA
ATOM     32  H   UNL     1       2.759  -1.736  25.101  0.00  0.00    +0.210 HD
ENDBRANCH  15   6
BRANCH  11  10
ATOM     10  N   UNL     1      -1.969  -1.811  23.748  0.00  0.00    -0.184 NA
ATOM     30  H   UNL     1      -1.717  -2.006  22.772  0.00  0.00    +0.148 HD
BRANCH  10   1
ATOM      1  S   UNL     1      -3.578  -1.945  24.275  0.00  0.00    +0.059 S 
ATOM      7  O   UNL     1      -3.613  -2.632  25.552  0.00  0.00    -0.153 OA
ATOM      8  O   UNL     1      -4.395  -2.414  23.172  0.00  0.00    -0.153 OA
BRANCH   1  19
ATOM     19  C   UNL     1      -4.013  -0.254  24.555  0.00  0.00    +0.105 A 
ATOM     23  C   UNL     1      -3.837   0.687  23.540  0.00  0.00    +0.029 A 
ATOM     24  C   UNL     1      -4.528   0.139  25.790  0.00  0.00    +0.029 A 
ATOM     25  C   UNL     1      -4.178   2.022  23.761  0.00  0.00    +0.014 A 
ATOM     26  C   UNL     1      -4.868   1.474  26.011  0.00  0.00    +0.014 A 
ATOM     27  C   UNL     1      -4.693   2.416  24.996  0.00  0.00    +0.055 A 
BRANCH  27  28
ATOM      2  F   UNL     1      -4.460   4.360  26.344  0.00  0.00    -0.166 F 
ATOM      3  F   UNL     1      -4.707   4.674  24.207  0.00  0.00    -0.166 F 
ATOM      4  F   UNL     1      -6.397   4.042  25.409  0.00  0.00    -0.166 F 
ATOM     28  C   UNL     1      -5.057   3.842  25.232  0.00  0.00    +0.417 C 
ENDBRANCH  27  28
ENDBRANCH   1  19
ENDBRANCH  10   1
ENDBRANCH  11  10
TORSDOF 8
ENDMDL
MODEL 8
REMARK VINA RESULT:       1.0      3.313      5.617
REMARK  Name = 75536096
REMARK  9 active torsions:
REMARK  status: ('A' for Active; 'I' for Inactive)
REMARK    1  A    between atoms: S_1  and  N_10
REMARK    2  A    between atoms: S_1  and  C_19
REMARK    3  A    between atoms: O_5  and  C_13
REMARK    4  A    between atoms: O_6  and  C_15
REMARK    5  A    between atoms: O_9  and  C_22
REMARK    6  A    between atoms: O_9  and  C_29
REMARK    7  A    between atoms: N_10  and  C_11
REMARK    8  A    between atoms: C_12  and  C_16
REMARK    9  A    between atoms: C_27  and  C_28
REMARK                            x       y       z     vdW  Elec       q    Type
REMARK                         _______ _______ _______ _____ _____    ______ ____
ROOT
ATOM     11  C   UNL     1       0.265   0.954  23.844  0.00  0.00    +0.115 C 
ATOM     12  C   UNL     1       0.003  -0.349  24.649  0.00  0.00    +0.043 C 
ATOM     13  C   UNL     1       1.588   0.726  23.100  0.00  0.00    +0.162 C 
ATOM     14  C   UNL     1       1.119  -1.320  24.231  0.00  0.00    +0.043 C 
ATOM     15  C   UNL     1       2.271  -0.391  23.883  0.00  0.00    +0.145 C 
ENDROOT
BRANCH  12  16
ATOM     16  C   UNL     1      -1.384  -0.922  24.457  0.00  0.00    -0.042 A 
ATOM     17  C   UNL     1      -2.473  -0.069  24.279  0.00  0.00    +0.007 A 
ATOM     18  C   UNL     1      -1.574  -2.304  24.457  0.00  0.00    +0.007 A 
ATOM     20  C   UNL     1      -3.752  -0.598  24.101  0.00  0.00    +0.046 A 
ATOM     21  C   UNL     1      -2.852  -2.833  24.280  0.00  0.00    +0.046 A 
ATOM     22  C   UNL     1      -3.942  -1.980  24.102  0.00  0.00    +0.120 A 
BRANCH  22   9
ATOM      9  O   UNL     1      -5.189  -2.496  23.929  0.00  0.00    -0.495 OA
ATOM     29  C   UNL     1      -5.312  -3.614  23.051  0.00  0.00    +0.277 C 
ENDBRANCH  22   9
ENDBRANCH  12  16
BRANCH  13   5
ATOM      5  O   UNL     1       1.281   0.298  21.774  0.00  0.00    -0.388 OA
ATOM     31  H   UNL     1       1.212   1.093  21.218  0.00  0.00    +0.210 HD
ENDBRANCH  13   5
BRANCH  15   6
ATOM      6  O   UNL     1       3.264  -1.057  23.130  0.00  0.00    -0.389 OA
ATOM     32  H   UNL     1       2.811  -1.604  22.467  0.00  0.00    +0.210 HD
ENDBRANCH  15   6
BRANCH  11  10
ATOM     10  N   UNL     1       0.420   2.091  24.789  0.00  0.00    -0.184 NA
ATOM     30  H   UNL     1       0.727   1.881  25.746  0.00  0.00    +0.148 HD
BRANCH  10   1
ATOM      1  S   UNL     1      -0.229   3.610  24.397  0.00  0.00    +0.059 S 
ATOM      7  O   UNL     1      -0.093   3.841  22.971  0.00  0.00    -0.153 OA
ATOM      8  O   UNL     1       0.268   4.590  25.344  0.00  0.00    -0.153 OA
BRANCH   1  19
ATOM     19  C   UNL     1      -1.945   3.377  24.750  0.00  0.00    +0.105 A 
ATOM     23  C   UNL     1      -2.832   3.062  23.720  0.00  0.00    +0.029 A 
ATOM     24  C   UNL     1      -2.412   3.509  26.058  0.00  0.00    +0.029 A 
ATOM     25  C   UNL     1      -4.186   2.880  23.999  0.00  0.00    +0.014 A 
ATOM     26  C   UNL     1      -3.767   3.326  26.335  0.00  0.00    +0.014 A 
ATOM     27  C   UNL     1      -4.655   3.012  25.305  0.00  0.00    +0.055 A 
BRANCH  27  28
ATOM      2  F   UNL     1      -6.790   3.994  25.661  0.00  0.00    -0.166 F 
ATOM      3  F   UNL     1      -6.755   2.057  24.674  0.00  0.00    -0.166 F 
ATOM      4  F   UNL     1      -6.337   2.196  26.797  0.00  0.00    -0.166 F 
ATOM     28  C   UNL     1      -6.103   2.816  25.602  0.00  0.00    +0.417 C 
ENDBRANCH  27  28
ENDBRANCH   1  19
ENDBRANCH  10   1
ENDBRANCH  11  10
TORSDOF 8
ENDMDL
MODEL 9
REMARK VINA RESULT:       1.2      3.468      6.589
REMARK  Name = 75536096
REMARK  9 active torsions:
REMARK  status: ('A' for Active; 'I' for Inactive)
REMARK    1  A    between atoms: S_1  and  N_10
REMARK    2  A    between atoms: S_1  and  C_19
REMARK    3  A    between atoms: O_5  and  C_13
REMARK    4  A    between atoms: O_6  and  C_15
REMARK    5  A    between atoms: O_9  and  C_22
REMARK    6  A    between atoms: O_9  and  C_29
REMARK    7  A    between atoms: N_10  and  C_11
REMARK    8  A    between atoms: C_12  and  C_16
REMARK    9  A    between atoms: C_27  and  C_28
REMARK                            x       y       z     vdW  Elec       q    Type
REMARK                         _______ _______ _______ _____ _____    ______ ____
ROOT
ATOM     11  C   UNL     1       0.100  -0.751  23.749  0.00  0.00    +0.115 C 
ATOM     12  C   UNL     1      -0.361   0.558  23.051  0.00  0.00    +0.043 C 
ATOM     13  C   UNL     1       1.518  -1.025  23.228  0.00  0.00    +0.162 C 
ATOM     14  C   UNL     1       0.860   1.051  22.258  0.00  0.00    +0.043 C 
ATOM     15  C   UNL     1       1.597  -0.236  21.925  0.00  0.00    +0.145 C 
ENDROOT
BRANCH  12  16
ATOM     16  C   UNL     1      -0.913   1.600  24.000  0.00  0.00    -0.042 A 
ATOM     17  C   UNL     1      -1.947   2.440  23.589  0.00  0.00    +0.007 A 
ATOM     18  C   UNL     1      -0.386   1.718  25.287  0.00  0.00    +0.007 A 
ATOM     20  C   UNL     1      -2.456   3.400  24.465  0.00  0.00    +0.046 A 
ATOM     21  C   UNL     1      -0.894   2.678  26.162  0.00  0.00    +0.046 A 
ATOM     22  C   UNL     1      -1.929   3.519  25.751  0.00  0.00    +0.120 A 
BRANCH  22   9
ATOM      9  O   UNL     1      -2.425   4.456  26.605  0.00  0.00    -0.495 OA
ATOM     29  C   UNL     1      -3.765   4.273  27.060  0.00  0.00    +0.277 C 
ENDBRANCH  22   9
ENDBRANCH  12  16
BRANCH  13   5
ATOM      5  O   UNL     1       2.446  -0.516  24.184  0.00  0.00    -0.388 OA
ATOM     31  H   UNL     1       2.898   0.243  23.777  0.00  0.00    +0.210 HD
ENDBRANCH  13   5
BRANCH  15   6
ATOM      6  O   UNL     1       2.927   0.018  21.522  0.00  0.00    -0.389 OA
ATOM     32  H   UNL     1       3.354  -0.840  21.362  0.00  0.00    +0.210 HD
ENDBRANCH  15   6
BRANCH  11  10
ATOM     10  N   UNL     1      -0.798  -1.865  23.346  0.00  0.00    -0.184 NA
ATOM     30  H   UNL     1      -0.911  -2.050  22.342  0.00  0.00    +0.148 HD
BRANCH  10   1
ATOM      1  S   UNL     1      -1.855  -2.554  24.482  0.00  0.00    +0.059 S 
ATOM      7  O   UNL     1      -1.156  -2.745  25.739  0.00  0.00    -0.153 OA
ATOM      8  O   UNL     1      -2.553  -3.663  23.860  0.00  0.00    -0.153 OA
BRANCH   1  19
ATOM     19  C   UNL     1      -3.040  -1.261  24.708  0.00  0.00    +0.105 A 
ATOM     23  C   UNL     1      -3.791  -0.808  23.624  0.00  0.00    +0.029 A 
ATOM     24  C   UNL     1      -3.220  -0.694  25.970  0.00  0.00    +0.029 A 
ATOM     25  C   UNL     1      -4.725   0.213  23.803  0.00  0.00    +0.014 A 
ATOM     26  C   UNL     1      -4.154   0.327  26.147  0.00  0.00    +0.014 A 
ATOM     27  C   UNL     1      -4.906   0.781  25.063  0.00  0.00    +0.055 A 
BRANCH  27  28
ATOM      2  F   UNL     1      -7.072   1.639  24.585  0.00  0.00    -0.166 F 
ATOM      3  F   UNL     1      -6.261   2.068  26.557  0.00  0.00    -0.166 F 
ATOM      4  F   UNL     1      -5.470   3.092  24.816  0.00  0.00    -0.166 F 
ATOM     28  C   UNL     1      -5.904   1.873  25.253  0.00  0.00    +0.417 C 
ENDBRANCH  27  28
ENDBRANCH   1  19
ENDBRANCH  10   1
ENDBRANCH  11  10
TORSDOF 8
ENDMDL
