MODEL 1
REMARK VINA RESULT:      -6.8      0.000      0.000
REMARK  Name = 75536557
REMARK  6 active torsions:
REMARK  status: ('A' for Active; 'I' for Inactive)
REMARK    1  A    between atoms: O_4  and  C_10
REMARK    2  A    between atoms: N_6  and  C_8
REMARK    3  A    between atoms: N_6  and  C_9
REMARK    4  A    between atoms: N_7  and  C_19
REMARK    5  A    between atoms: C_11  and  C_19
REMARK    6  A    between atoms: C_18  and  C_24
REMARK                            x       y       z     vdW  Elec       q    Type
REMARK                         _______ _______ _______ _____ _____    ______ ____
ROOT
ATOM      3  O   UNL     1      -0.578   0.741  22.708  0.00  0.00    -0.371 OA
ATOM      8  C   UNL     1      -0.556   2.811  23.872  0.00  0.00    +0.111 C 
ATOM     10  C   UNL     1      -0.136   1.705  24.822  0.00  0.00    +0.164 C 
ATOM     11  C   UNL     1       0.300   0.626  23.841  0.00  0.00    +0.165 C 
ATOM     14  C   UNL     1      -1.236   2.018  22.769  0.00  0.00    +0.181 C 
ENDROOT
BRANCH  10   4
ATOM      4  O   UNL     1       0.918   2.094  25.681  0.00  0.00    -0.388 OA
ATOM     27  H   UNL     1       0.879   1.543  26.481  0.00  0.00    +0.210 HD
ENDBRANCH  10   4
BRANCH   8   6
ATOM      6  N   UNL     1      -1.430   3.801  24.480  0.00  0.00    -0.306 NA
ATOM     25  H   UNL     1      -1.671   4.523  23.802  0.00  0.00    +0.123 HD
BRANCH   6   9
ATOM      1  F   UNL     1      -5.861   4.567  25.392  0.00  0.00    -0.206 F 
ATOM      2  F   UNL     1      -6.610   2.683  26.177  0.00  0.00    -0.206 F 
ATOM      9  C   UNL     1      -2.646   3.173  24.993  0.00  0.00    +0.054 C 
ATOM     12  C   UNL     1      -3.121   3.908  26.253  0.00  0.00    +0.024 C 
ATOM     13  C   UNL     1      -3.730   3.174  23.908  0.00  0.00    +0.024 C 
ATOM     15  C   UNL     1      -4.430   3.324  26.777  0.00  0.00    +0.077 C 
ATOM     16  C   UNL     1      -5.040   2.588  24.431  0.00  0.00    +0.077 C 
ATOM     17  C   UNL     1      -5.499   3.294  25.697  0.00  0.00    +0.249 C 
ENDBRANCH   6   9
ENDBRANCH   8   6
BRANCH  11  19
ATOM     19  C   UNL     1       0.214  -0.777  24.415  0.00  0.00    +0.138 C 
BRANCH  19   7
ATOM      5  O   UNL     1      -1.268  -0.768  26.912  0.00  0.00    -0.276 OA
ATOM      7  N   UNL     1      -1.150  -1.173  24.622  0.00  0.00    -0.313 N 
ATOM     24  C   UNL     1      -1.782  -1.136  25.859  0.00  0.00    +0.216 C 
ATOM     26  H   UNL     1      -1.672  -1.493  23.811  0.00  0.00    +0.149 HD
BRANCH  24  18
ATOM     18  C   UNL     1      -3.211  -1.579  25.790  0.00  0.00    +0.075 C 
ATOM     20  C   UNL     1      -3.359  -2.750  24.811  0.00  0.00    +0.013 C 
ATOM     21  C   UNL     1      -4.099  -0.456  25.251  0.00  0.00    +0.013 C 
ATOM     22  C   UNL     1      -4.403  -2.311  23.791  0.00  0.00    +0.001 C 
ATOM     23  C   UNL     1      -4.298  -0.796  23.781  0.00  0.00    +0.001 C 
ENDBRANCH  24  18
ENDBRANCH  19   7
ENDBRANCH  11  19
TORSDOF 6
ENDMDL
MODEL 2
REMARK VINA RESULT:      -6.8      1.542      2.027
REMARK  Name = 75536557
REMARK  6 active torsions:
REMARK  status: ('A' for Active; 'I' for Inactive)
REMARK    1  A    between atoms: O_4  and  C_10
REMARK    2  A    between atoms: N_6  and  C_8
REMARK    3  A    between atoms: N_6  and  C_9
REMARK    4  A    between atoms: N_7  and  C_19
REMARK    5  A    between atoms: C_11  and  C_19
REMARK    6  A    between atoms: C_18  and  C_24
REMARK                            x       y       z     vdW  Elec       q    Type
REMARK                         _______ _______ _______ _____ _____    ______ ____
ROOT
ATOM      3  O   UNL     1      -0.205   2.989  23.331  0.00  0.00    -0.371 OA
ATOM      8  C   UNL     1      -0.958   3.637  25.489  0.00  0.00    +0.111 C 
ATOM     10  C   UNL     1      -0.236   2.307  25.595  0.00  0.00    +0.164 C 
ATOM     11  C   UNL     1       0.596   2.321  24.320  0.00  0.00    +0.165 C 
ATOM     14  C   UNL     1      -1.264   3.695  24.003  0.00  0.00    +0.181 C 
ENDROOT
BRANCH  10   4
ATOM      4  O   UNL     1       0.573   2.214  26.752  0.00  0.00    -0.388 OA
ATOM     27  H   UNL     1       0.544   3.068  27.215  0.00  0.00    +0.210 HD
ENDBRANCH  10   4
BRANCH   8   6
ATOM      6  N   UNL     1      -2.149   3.721  26.318  0.00  0.00    -0.306 NA
ATOM     25  H   UNL     1      -2.226   4.649  26.732  0.00  0.00    +0.123 HD
BRANCH   6   9
ATOM      1  F   UNL     1      -6.190   1.552  26.450  0.00  0.00    -0.206 F 
ATOM      2  F   UNL     1      -7.085   1.906  24.500  0.00  0.00    -0.206 F 
ATOM      9  C   UNL     1      -3.347   3.426  25.533  0.00  0.00    +0.054 C 
ATOM     12  C   UNL     1      -3.483   1.910  25.341  0.00  0.00    +0.024 C 
ATOM     13  C   UNL     1      -4.582   4.011  26.228  0.00  0.00    +0.024 C 
ATOM     15  C   UNL     1      -4.763   1.559  24.586  0.00  0.00    +0.077 C 
ATOM     16  C   UNL     1      -5.863   3.661  25.472  0.00  0.00    +0.077 C 
ATOM     17  C   UNL     1      -5.987   2.162  25.254  0.00  0.00    +0.249 C 
ENDBRANCH   6   9
ENDBRANCH   8   6
BRANCH  11  19
ATOM     19  C   UNL     1       0.965   0.933  23.828  0.00  0.00    +0.138 C 
BRANCH  19   7
ATOM      5  O   UNL     1      -1.770   0.068  23.382  0.00  0.00    -0.276 OA
ATOM      7  N   UNL     1       0.244  -0.082  24.542  0.00  0.00    -0.313 N 
ATOM     24  C   UNL     1      -1.071  -0.433  24.259  0.00  0.00    +0.216 C 
ATOM     26  H   UNL     1       0.733  -0.564  25.290  0.00  0.00    +0.149 HD
BRANCH  24  18
ATOM     18  C   UNL     1      -1.574  -1.537  25.136  0.00  0.00    +0.075 C 
ATOM     20  C   UNL     1      -1.879  -2.785  24.299  0.00  0.00    +0.013 C 
ATOM     21  C   UNL     1      -2.892  -1.139  25.804  0.00  0.00    +0.013 C 
ATOM     22  C   UNL     1      -3.336  -3.134  24.585  0.00  0.00    +0.001 C 
ATOM     23  C   UNL     1      -3.967  -1.805  24.959  0.00  0.00    +0.001 C 
ENDBRANCH  24  18
ENDBRANCH  19   7
ENDBRANCH  11  19
TORSDOF 6
ENDMDL
MODEL 3
REMARK VINA RESULT:      -6.5      2.663      5.089
REMARK  Name = 75536557
REMARK  6 active torsions:
REMARK  status: ('A' for Active; 'I' for Inactive)
REMARK    1  A    between atoms: O_4  and  C_10
REMARK    2  A    between atoms: N_6  and  C_8
REMARK    3  A    between atoms: N_6  and  C_9
REMARK    4  A    between atoms: N_7  and  C_19
REMARK    5  A    between atoms: C_11  and  C_19
REMARK    6  A    between atoms: C_18  and  C_24
REMARK                            x       y       z     vdW  Elec       q    Type
REMARK                         _______ _______ _______ _____ _____    ______ ____
ROOT
ATOM      3  O   UNL     1       0.426   3.539  26.113  0.00  0.00    -0.371 OA
ATOM      8  C   UNL     1      -0.172   1.294  25.619  0.00  0.00    +0.111 C 
ATOM     10  C   UNL     1      -1.147   2.229  24.929  0.00  0.00    +0.164 C 
ATOM     11  C   UNL     1      -0.343   3.522  24.899  0.00  0.00    +0.165 C 
ATOM     14  C   UNL     1       0.434   2.211  26.667  0.00  0.00    +0.181 C 
ENDROOT
BRANCH  10   4
ATOM      4  O   UNL     1      -1.495   1.794  23.629  0.00  0.00    -0.388 OA
ATOM     27  H   UNL     1      -2.275   2.295  23.338  0.00  0.00    +0.210 HD
ENDBRANCH  10   4
BRANCH   8   6
ATOM      6  N   UNL     1      -0.801   0.115  26.193  0.00  0.00    -0.306 NA
ATOM     25  H   UNL     1      -1.329   0.368  27.026  0.00  0.00    +0.123 HD
BRANCH   6   9
ATOM      1  F   UNL     1      -3.550  -3.501  25.543  0.00  0.00    -0.206 F 
ATOM      2  F   UNL     1      -4.322  -3.268  23.524  0.00  0.00    -0.206 F 
ATOM      9  C   UNL     1      -1.684  -0.525  25.219  0.00  0.00    +0.054 C 
ATOM     12  C   UNL     1      -1.152  -1.923  24.875  0.00  0.00    +0.024 C 
ATOM     13  C   UNL     1      -3.110  -0.596  25.778  0.00  0.00    +0.024 C 
ATOM     15  C   UNL     1      -2.089  -2.651  23.914  0.00  0.00    +0.077 C 
ATOM     16  C   UNL     1      -4.048  -1.325  24.816  0.00  0.00    +0.077 C 
ATOM     17  C   UNL     1      -3.510  -2.698  24.449  0.00  0.00    +0.249 C 
ENDBRANCH   6   9
ENDBRANCH   8   6
BRANCH  11  19
ATOM     19  C   UNL     1      -1.210   4.766  24.824  0.00  0.00    +0.138 C 
BRANCH  19   7
ATOM      5  O   UNL     1      -3.172   4.199  26.888  0.00  0.00    -0.276 OA
ATOM      7  N   UNL     1      -2.593   4.428  24.644  0.00  0.00    -0.313 N 
ATOM     24  C   UNL     1      -3.464   4.171  25.695  0.00  0.00    +0.216 C 
ATOM     26  H   UNL     1      -2.942   4.380  23.691  0.00  0.00    +0.149 HD
BRANCH  24  18
ATOM     18  C   UNL     1      -4.855   3.868  25.231  0.00  0.00    +0.075 C 
ATOM     20  C   UNL     1      -5.567   2.959  26.240  0.00  0.00    +0.013 C 
ATOM     21  C   UNL     1      -4.828   3.099  23.908  0.00  0.00    +0.013 C 
ATOM     22  C   UNL     1      -6.022   1.736  25.451  0.00  0.00    +0.001 C 
ATOM     23  C   UNL     1      -5.029   1.644  24.306  0.00  0.00    +0.001 C 
ENDBRANCH  24  18
ENDBRANCH  19   7
ENDBRANCH  11  19
TORSDOF 6
ENDMDL
MODEL 4
REMARK VINA RESULT:      -5.7      3.191      4.930
REMARK  Name = 75536557
REMARK  6 active torsions:
REMARK  status: ('A' for Active; 'I' for Inactive)
REMARK    1  A    between atoms: O_4  and  C_10
REMARK    2  A    between atoms: N_6  and  C_8
REMARK    3  A    between atoms: N_6  and  C_9
REMARK    4  A    between atoms: N_7  and  C_19
REMARK    5  A    between atoms: C_11  and  C_19
REMARK    6  A    between atoms: C_18  and  C_24
REMARK                            x       y       z     vdW  Elec       q    Type
REMARK                         _______ _______ _______ _____ _____    ______ ____
ROOT
ATOM      3  O   UNL     1      -5.170   3.235  26.491  0.00  0.00    -0.371 OA
ATOM      8  C   UNL     1      -3.472   4.240  25.168  0.00  0.00    +0.111 C 
ATOM     10  C   UNL     1      -4.133   3.132  24.368  0.00  0.00    +0.164 C 
ATOM     11  C   UNL     1      -5.458   2.988  25.105  0.00  0.00    +0.165 C 
ATOM     14  C   UNL     1      -3.885   3.875  26.584  0.00  0.00    +0.181 C 
ENDROOT
BRANCH  10   4
ATOM      4  O   UNL     1      -4.321   3.476  23.009  0.00  0.00    -0.388 OA
ATOM     27  H   UNL     1      -4.263   4.443  22.928  0.00  0.00    +0.210 HD
ENDBRANCH  10   4
BRANCH   8   6
ATOM      6  N   UNL     1      -2.030   4.303  24.995  0.00  0.00    -0.306 NA
ATOM     25  H   UNL     1      -1.603   4.795  25.778  0.00  0.00    +0.123 HD
BRANCH   6   9
ATOM      1  F   UNL     1       1.625   1.967  23.498  0.00  0.00    -0.206 F 
ATOM      2  F   UNL     1       1.194  -0.113  23.960  0.00  0.00    -0.206 F 
ATOM      9  C   UNL     1      -1.464   2.959  24.883  0.00  0.00    +0.054 C 
ATOM     12  C   UNL     1      -1.251   2.606  23.405  0.00  0.00    +0.024 C 
ATOM     13  C   UNL     1      -0.148   2.882  25.667  0.00  0.00    +0.024 C 
ATOM     15  C   UNL     1      -0.593   1.237  23.251  0.00  0.00    +0.077 C 
ATOM     16  C   UNL     1       0.510   1.512  25.514  0.00  0.00    +0.077 C 
ATOM     17  C   UNL     1       0.695   1.145  24.050  0.00  0.00    +0.249 C 
ENDBRANCH   6   9
ENDBRANCH   8   6
BRANCH  11  19
ATOM     19  C   UNL     1      -6.086   1.615  24.949  0.00  0.00    +0.138 C 
BRANCH  19   7
ATOM      5  O   UNL     1      -4.063   0.022  23.607  0.00  0.00    -0.276 OA
ATOM      7  N   UNL     1      -5.256   0.594  25.523  0.00  0.00    -0.313 N 
ATOM     24  C   UNL     1      -4.309  -0.122  24.802  0.00  0.00    +0.216 C 
ATOM     26  H   UNL     1      -5.377   0.396  26.512  0.00  0.00    +0.149 HD
BRANCH  24  18
ATOM     18  C   UNL     1      -3.565  -1.108  25.648  0.00  0.00    +0.075 C 
ATOM     20  C   UNL     1      -2.123  -0.637  25.872  0.00  0.00    +0.013 C 
ATOM     21  C   UNL     1      -3.467  -2.462  24.942  0.00  0.00    +0.013 C 
ATOM     22  C   UNL     1      -1.232  -1.774  25.382  0.00  0.00    +0.001 C 
ATOM     23  C   UNL     1      -2.073  -2.477  24.332  0.00  0.00    +0.001 C 
ENDBRANCH  24  18
ENDBRANCH  19   7
ENDBRANCH  11  19
TORSDOF 6
ENDMDL
MODEL 5
REMARK VINA RESULT:      -4.9      3.360      5.889
REMARK  Name = 75536557
REMARK  6 active torsions:
REMARK  status: ('A' for Active; 'I' for Inactive)
REMARK    1  A    between atoms: O_4  and  C_10
REMARK    2  A    between atoms: N_6  and  C_8
REMARK    3  A    between atoms: N_6  and  C_9
REMARK    4  A    between atoms: N_7  and  C_19
REMARK    5  A    between atoms: C_11  and  C_19
REMARK    6  A    between atoms: C_18  and  C_24
REMARK                            x       y       z     vdW  Elec       q    Type
REMARK                         _______ _______ _______ _____ _____    ______ ____
ROOT
ATOM      3  O   UNL     1       0.157   2.869  25.547  0.00  0.00    -0.371 OA
ATOM      8  C   UNL     1      -1.745   1.454  25.398  0.00  0.00    +0.111 C 
ATOM     10  C   UNL     1      -0.891   1.267  24.158  0.00  0.00    +0.164 C 
ATOM     11  C   UNL     1       0.454   1.788  24.646  0.00  0.00    +0.165 C 
ATOM     14  C   UNL     1      -1.229   2.784  25.920  0.00  0.00    +0.181 C 
ENDROOT
BRANCH  10   4
ATOM      4  O   UNL     1      -0.814  -0.084  23.746  0.00  0.00    -0.388 OA
ATOM     27  H   UNL     1      -0.144  -0.152  23.045  0.00  0.00    +0.210 HD
ENDBRANCH  10   4
BRANCH   8   6
ATOM      6  N   UNL     1      -3.173   1.466  25.126  0.00  0.00    -0.306 NA
ATOM     25  H   UNL     1      -3.356   1.899  24.222  0.00  0.00    +0.123 HD
BRANCH   6   9
ATOM      1  F   UNL     1      -2.276  -2.870  23.925  0.00  0.00    -0.206 F 
ATOM      2  F   UNL     1      -4.018  -4.005  24.562  0.00  0.00    -0.206 F 
ATOM      9  C   UNL     1      -3.715   0.108  25.147  0.00  0.00    +0.054 C 
ATOM     12  C   UNL     1      -3.881  -0.408  23.712  0.00  0.00    +0.024 C 
ATOM     13  C   UNL     1      -2.796  -0.807  25.963  0.00  0.00    +0.024 C 
ATOM     15  C   UNL     1      -4.378  -1.851  23.695  0.00  0.00    +0.077 C 
ATOM     16  C   UNL     1      -3.293  -2.252  25.948  0.00  0.00    +0.077 C 
ATOM     17  C   UNL     1      -3.488  -2.757  24.528  0.00  0.00    +0.249 C 
ENDBRANCH   6   9
ENDBRANCH   8   6
BRANCH  11  19
ATOM     19  C   UNL     1       1.347   2.287  23.524  0.00  0.00    +0.138 C 
BRANCH  19   7
ATOM      5  O   UNL     1       1.406  -0.236  22.089  0.00  0.00    -0.276 OA
ATOM      7  N   UNL     1       2.474   1.419  23.331  0.00  0.00    -0.313 N 
ATOM     24  C   UNL     1       2.411   0.224  22.626  0.00  0.00    +0.216 C 
ATOM     26  H   UNL     1       3.361   1.708  23.734  0.00  0.00    +0.149 HD
BRANCH  24  18
ATOM     18  C   UNL     1       3.734  -0.474  22.553  0.00  0.00    +0.075 C 
ATOM     20  C   UNL     1       3.952  -1.333  23.804  0.00  0.00    +0.013 C 
ATOM     21  C   UNL     1       4.879   0.541  22.527  0.00  0.00    +0.013 C 
ATOM     22  C   UNL     1       5.269  -0.861  24.411  0.00  0.00    +0.001 C 
ATOM     23  C   UNL     1       5.385   0.585  23.961  0.00  0.00    +0.001 C 
ENDBRANCH  24  18
ENDBRANCH  19   7
ENDBRANCH  11  19
TORSDOF 6
ENDMDL
MODEL 6
REMARK VINA RESULT:      -3.5      4.390      6.754
REMARK  Name = 75536557
REMARK  6 active torsions:
REMARK  status: ('A' for Active; 'I' for Inactive)
REMARK    1  A    between atoms: O_4  and  C_10
REMARK    2  A    between atoms: N_6  and  C_8
REMARK    3  A    between atoms: N_6  and  C_9
REMARK    4  A    between atoms: N_7  and  C_19
REMARK    5  A    between atoms: C_11  and  C_19
REMARK    6  A    between atoms: C_18  and  C_24
REMARK                            x       y       z     vdW  Elec       q    Type
REMARK                         _______ _______ _______ _____ _____    ______ ____
ROOT
ATOM      3  O   UNL     1      -1.122   0.746  25.601  0.00  0.00    -0.371 OA
ATOM      8  C   UNL     1       0.657   0.208  24.122  0.00  0.00    +0.111 C 
ATOM     10  C   UNL     1       0.542   1.717  24.230  0.00  0.00    +0.164 C 
ATOM     11  C   UNL     1      -0.217   1.861  25.542  0.00  0.00    +0.165 C 
ATOM     14  C   UNL     1      -0.702  -0.235  24.635  0.00  0.00    +0.181 C 
ENDROOT
BRANCH  10   4
ATOM      4  O   UNL     1       1.801   2.359  24.276  0.00  0.00    -0.388 OA
ATOM     27  H   UNL     1       1.654   3.320  24.293  0.00  0.00    +0.210 HD
ENDBRANCH  10   4
BRANCH   8   6
ATOM      6  N   UNL     1       0.935  -0.261  22.774  0.00  0.00    -0.306 NA
ATOM     25  H   UNL     1       0.598   0.414  22.090  0.00  0.00    +0.123 HD
BRANCH   6   9
ATOM      1  F   UNL     1       5.061   0.661  24.557  0.00  0.00    -0.206 F 
ATOM      2  F   UNL     1       6.479  -0.327  23.238  0.00  0.00    -0.206 F 
ATOM      9  C   UNL     1       2.368  -0.485  22.589  0.00  0.00    +0.054 C 
ATOM     12  C   UNL     1       3.082   0.857  22.382  0.00  0.00    +0.024 C 
ATOM     13  C   UNL     1       2.938  -1.236  23.798  0.00  0.00    +0.024 C 
ATOM     15  C   UNL     1       4.592   0.669  22.257  0.00  0.00    +0.077 C 
ATOM     16  C   UNL     1       4.448  -1.426  23.672  0.00  0.00    +0.077 C 
ATOM     17  C   UNL     1       5.157  -0.102  23.437  0.00  0.00    +0.249 C 
ENDBRANCH   6   9
ENDBRANCH   8   6
BRANCH  11  19
ATOM     19  C   UNL     1      -0.996   3.160  25.645  0.00  0.00    +0.138 C 
BRANCH  19   7
ATOM      5  O   UNL     1      -3.410   4.438  26.630  0.00  0.00    -0.276 OA
ATOM      7  N   UNL     1      -2.331   3.008  25.141  0.00  0.00    -0.313 N 
ATOM     24  C   UNL     1      -3.433   3.663  25.677  0.00  0.00    +0.216 C 
ATOM     26  H   UNL     1      -2.463   2.389  24.346  0.00  0.00    +0.149 HD
BRANCH  24  18
ATOM     18  C   UNL     1      -4.702   3.347  24.946  0.00  0.00    +0.075 C 
ATOM     20  C   UNL     1      -5.775   2.862  25.929  0.00  0.00    +0.013 C 
ATOM     21  C   UNL     1      -4.485   2.204  23.953  0.00  0.00    +0.013 C 
ATOM     22  C   UNL     1      -6.221   1.496  25.419  0.00  0.00    +0.001 C 
ATOM     23  C   UNL     1      -5.011   0.969  24.669  0.00  0.00    +0.001 C 
ENDBRANCH  24  18
ENDBRANCH  19   7
ENDBRANCH  11  19
TORSDOF 6
ENDMDL
MODEL 7
REMARK VINA RESULT:      -3.2      2.687      4.992
REMARK  Name = 75536557
REMARK  6 active torsions:
REMARK  status: ('A' for Active; 'I' for Inactive)
REMARK    1  A    between atoms: O_4  and  C_10
REMARK    2  A    between atoms: N_6  and  C_8
REMARK    3  A    between atoms: N_6  and  C_9
REMARK    4  A    between atoms: N_7  and  C_19
REMARK    5  A    between atoms: C_11  and  C_19
REMARK    6  A    between atoms: C_18  and  C_24
REMARK                            x       y       z     vdW  Elec       q    Type
REMARK                         _______ _______ _______ _____ _____    ______ ____
ROOT
ATOM      3  O   UNL     1      -0.619   2.126  25.317  0.00  0.00    -0.371 OA
ATOM      8  C   UNL     1      -1.929   0.188  24.902  0.00  0.00    +0.111 C 
ATOM     10  C   UNL     1      -0.777   0.227  23.915  0.00  0.00    +0.164 C 
ATOM     11  C   UNL     1       0.193   1.156  24.633  0.00  0.00    +0.165 C 
ATOM     14  C   UNL     1      -1.969   1.631  25.375  0.00  0.00    +0.181 C 
ENDROOT
BRANCH  10   4
ATOM      4  O   UNL     1      -0.212  -1.048  23.684  0.00  0.00    -0.388 OA
ATOM     27  H   UNL     1      -0.155  -1.516  24.534  0.00  0.00    +0.210 HD
ENDBRANCH  10   4
BRANCH   8   6
ATOM      6  N   UNL     1      -3.185  -0.251  24.315  0.00  0.00    -0.306 NA
ATOM     25  H   UNL     1      -3.541  -1.065  24.813  0.00  0.00    +0.123 HD
BRANCH   6   9
ATOM      1  F   UNL     1      -4.193   3.760  26.302  0.00  0.00    -0.206 F 
ATOM      2  F   UNL     1      -6.076   4.376  25.406  0.00  0.00    -0.206 F 
ATOM      9  C   UNL     1      -4.175   0.824  24.347  0.00  0.00    +0.054 C 
ATOM     12  C   UNL     1      -4.787   0.927  25.750  0.00  0.00    +0.024 C 
ATOM     13  C   UNL     1      -3.520   2.147  23.929  0.00  0.00    +0.024 C 
ATOM     15  C   UNL     1      -5.775   2.087  25.841  0.00  0.00    +0.077 C 
ATOM     16  C   UNL     1      -4.509   3.309  24.019  0.00  0.00    +0.077 C 
ATOM     17  C   UNL     1      -5.140   3.395  25.399  0.00  0.00    +0.249 C 
ENDBRANCH   6   9
ENDBRANCH   8   6
BRANCH  11  19
ATOM     19  C   UNL     1       1.153   1.864  23.693  0.00  0.00    +0.138 C 
BRANCH  19   7
ATOM      5  O   UNL     1       1.655  -0.152  21.664  0.00  0.00    -0.276 OA
ATOM      7  N   UNL     1       2.352   1.099  23.501  0.00  0.00    -0.313 N 
ATOM     24  C   UNL     1       2.506   0.150  22.498  0.00  0.00    +0.216 C 
ATOM     26  H   UNL     1       3.124   1.274  24.138  0.00  0.00    +0.149 HD
BRANCH  24  18
ATOM     18  C   UNL     1       3.863  -0.483  22.506  0.00  0.00    +0.075 C 
ATOM     20  C   UNL     1       4.051  -1.324  23.774  0.00  0.00    +0.013 C 
ATOM     21  C   UNL     1       4.958   0.586  22.536  0.00  0.00    +0.013 C 
ATOM     22  C   UNL     1       5.307  -0.784  24.450  0.00  0.00    +0.001 C 
ATOM     23  C   UNL     1       5.379   0.663  23.996  0.00  0.00    +0.001 C 
ENDBRANCH  24  18
ENDBRANCH  19   7
ENDBRANCH  11  19
TORSDOF 6
ENDMDL
MODEL 8
REMARK VINA RESULT:      -3.1      2.390      4.625
REMARK  Name = 75536557
REMARK  6 active torsions:
REMARK  status: ('A' for Active; 'I' for Inactive)
REMARK    1  A    between atoms: O_4  and  C_10
REMARK    2  A    between atoms: N_6  and  C_8
REMARK    3  A    between atoms: N_6  and  C_9
REMARK    4  A    between atoms: N_7  and  C_19
REMARK    5  A    between atoms: C_11  and  C_19
REMARK    6  A    between atoms: C_18  and  C_24
REMARK                            x       y       z     vdW  Elec       q    Type
REMARK                         _______ _______ _______ _____ _____    ______ ____
ROOT
ATOM      3  O   UNL     1      -0.861   2.589  26.269  0.00  0.00    -0.371 OA
ATOM      8  C   UNL     1       0.439   1.717  24.481  0.00  0.00    +0.111 C 
ATOM     10  C   UNL     1      -0.193   3.025  24.042  0.00  0.00    +0.164 C 
ATOM     11  C   UNL     1      -0.505   3.667  25.387  0.00  0.00    +0.165 C 
ATOM     14  C   UNL     1      -0.426   1.352  25.676  0.00  0.00    +0.181 C 
ENDROOT
BRANCH  10   4
ATOM      4  O   UNL     1       0.682   3.822  23.268  0.00  0.00    -0.388 OA
ATOM     27  H   UNL     1       1.117   3.250  22.613  0.00  0.00    +0.210 HD
ENDBRANCH  10   4
BRANCH   8   6
ATOM      6  N   UNL     1       0.440   0.694  23.449  0.00  0.00    -0.306 NA
ATOM     25  H   UNL     1       1.315   0.173  23.469  0.00  0.00    +0.123 HD
BRANCH   6   9
ATOM      1  F   UNL     1      -2.677  -0.757  26.488  0.00  0.00    -0.206 F 
ATOM      2  F   UNL     1      -3.855  -2.242  25.423  0.00  0.00    -0.206 F 
ATOM      9  C   UNL     1      -0.687  -0.220  23.625  0.00  0.00    +0.054 C 
ATOM     12  C   UNL     1      -0.364  -1.239  24.726  0.00  0.00    +0.024 C 
ATOM     13  C   UNL     1      -1.955   0.575  23.960  0.00  0.00    +0.024 C 
ATOM     15  C   UNL     1      -1.548  -2.167  24.988  0.00  0.00    +0.077 C 
ATOM     16  C   UNL     1      -3.140  -0.353  24.222  0.00  0.00    +0.077 C 
ATOM     17  C   UNL     1      -2.813  -1.384  25.290  0.00  0.00    +0.249 C 
ENDBRANCH   6   9
ENDBRANCH   8   6
BRANCH  11  19
ATOM     19  C   UNL     1      -1.640   4.673  25.323  0.00  0.00    +0.138 C 
BRANCH  19   7
ATOM      5  O   UNL     1      -3.881   3.515  23.886  0.00  0.00    -0.276 OA
ATOM      7  N   UNL     1      -2.847   4.133  25.879  0.00  0.00    -0.313 N 
ATOM     24  C   UNL     1      -3.873   3.595  25.112  0.00  0.00    +0.216 C 
ATOM     26  H   UNL     1      -2.943   4.147  26.891  0.00  0.00    +0.149 HD
BRANCH  24  18
ATOM     18  C   UNL     1      -5.007   3.079  25.944  0.00  0.00    +0.075 C 
ATOM     20  C   UNL     1      -4.933   1.552  26.055  0.00  0.00    +0.013 C 
ATOM     21  C   UNL     1      -6.350   3.395  25.283  0.00  0.00    +0.013 C 
ATOM     22  C   UNL     1      -6.274   1.031  25.551  0.00  0.00    +0.001 C 
ATOM     23  C   UNL     1      -6.747   2.103  24.585  0.00  0.00    +0.001 C 
ENDBRANCH  24  18
ENDBRANCH  19   7
ENDBRANCH  11  19
TORSDOF 6
ENDMDL
