MODEL 1
REMARK VINA RESULT:      -1.0      0.000      0.000
REMARK  Name = 25338526
REMARK  9 active torsions:
REMARK  status: ('A' for Active; 'I' for Inactive)
REMARK    1  A    between atoms: N_3  and  C_12
REMARK    2  A    between atoms: N_4  and  C_7
REMARK    3  A    between atoms: C_8  and  C_11
REMARK    4  A    between atoms: C_13  and  C_14
REMARK    5  A    between atoms: C_13  and  C_16
REMARK    6  A    between atoms: C_13  and  C_17
REMARK    7  A    between atoms: C_13  and  C_18
REMARK    8  A    between atoms: C_14  and  C_15
REMARK    9  A    between atoms: C_19  and  C_20
REMARK                            x       y       z     vdW  Elec       q    Type
REMARK                         _______ _______ _______ _____ _____    ______ ____
ROOT
ATOM      3  N   UNL     1      -5.312  -8.453   9.999  0.00  0.00    -0.293 NA
ATOM      7  C   UNL     1      -4.225 -10.351   9.196  0.00  0.00    +0.089 C 
ATOM      8  C   UNL     1      -6.407  -9.414   9.769  0.00  0.00    +0.147 C 
ATOM      9  C   UNL     1      -5.695 -10.725   9.382  0.00  0.00    +0.052 C 
ATOM     10  C   UNL     1      -4.240  -8.835   9.075  0.00  0.00    +0.107 C 
ATOM     12  C   UNL     1      -5.718  -7.064   9.816  0.00  0.00    +0.105 C 
ENDROOT
BRANCH   8  11
ATOM      1  O   UNL     1      -8.658  -9.613  10.699  0.00  0.00    -0.336 OA
ATOM      5  N   UNL     1      -7.025  -9.697  12.229  0.00  0.00    -0.190 NA
ATOM      6  N   UNL     1      -9.293  -9.770  11.937  0.00  0.00    -0.056 NA
ATOM     11  C   UNL     1      -7.325  -9.580  10.960  0.00  0.00    +0.245 A 
ATOM     19  C   UNL     1      -8.265  -9.811  12.789  0.00  0.00    +0.202 A 
BRANCH  19  20
ATOM     20  C   UNL     1      -8.441  -9.967  14.204  0.00  0.00    +0.023 A 
ATOM     21  C   UNL     1      -7.335 -10.195  15.023  0.00  0.00    +0.020 A 
ATOM     22  C   UNL     1      -9.715  -9.891  14.759  0.00  0.00    +0.012 A 
ATOM     23  C   UNL     1      -7.490 -10.350  16.411  0.00  0.00    -0.017 A 
ATOM     24  C   UNL     1      -8.786 -10.271  16.975  0.00  0.00    -0.018 A 
ATOM     25  C   UNL     1      -9.888 -10.041  16.134  0.00  0.00    +0.009 A 
ATOM     26  C   UNL     1      -6.389 -10.580  17.250  0.00  0.00    +0.008 A 
ATOM     27  C   UNL     1      -8.942 -10.426  18.362  0.00  0.00    +0.008 A 
ATOM     28  C   UNL     1      -6.562 -10.731  18.627  0.00  0.00    +0.001 A 
ATOM     29  C   UNL     1      -7.836 -10.654  19.181  0.00  0.00    +0.001 A 
ENDBRANCH  19  20
ENDBRANCH   8  11
BRANCH   7   4
ATOM      2  O   UNL     1      -2.060  -8.904  10.461  0.00  0.00    -0.276 OA
ATOM      4  N   UNL     1      -3.421 -10.781  10.315  0.00  0.00    -0.311 N 
ATOM     15  C   UNL     1      -2.401 -10.016  10.855  0.00  0.00    +0.214 C 
ATOM     30  H   UNL     1      -3.603 -11.704  10.699  0.00  0.00    +0.149 HD
BRANCH  15  14
ATOM     14  C   UNL     1      -1.701 -10.696  12.020  0.00  0.00    +0.102 C 
BRANCH  14  13
ATOM     13  C   UNL     1      -1.816  -9.947  13.369  0.00  0.00    -0.029 C 
ATOM     16  C   UNL     1      -1.090  -8.593  13.314  0.00  0.00    +0.011 C 
ATOM     17  C   UNL     1      -3.311  -9.689  13.646  0.00  0.00    +0.011 C 
ATOM     18  C   UNL     1      -1.245 -10.781  14.527  0.00  0.00    +0.011 C 
ENDBRANCH  14  13
ENDBRANCH  15  14
ENDBRANCH   7   4
TORSDOF 5
ENDMDL
MODEL 2
REMARK VINA RESULT:       1.5      2.854      6.749
REMARK  Name = 25338526
REMARK  9 active torsions:
REMARK  status: ('A' for Active; 'I' for Inactive)
REMARK    1  A    between atoms: N_3  and  C_12
REMARK    2  A    between atoms: N_4  and  C_7
REMARK    3  A    between atoms: C_8  and  C_11
REMARK    4  A    between atoms: C_13  and  C_14
REMARK    5  A    between atoms: C_13  and  C_16
REMARK    6  A    between atoms: C_13  and  C_17
REMARK    7  A    between atoms: C_13  and  C_18
REMARK    8  A    between atoms: C_14  and  C_15
REMARK    9  A    between atoms: C_19  and  C_20
REMARK                            x       y       z     vdW  Elec       q    Type
REMARK                         _______ _______ _______ _____ _____    ______ ____
ROOT
ATOM      3  N   UNL     1      -9.361  -8.548  14.548  0.00  0.00    -0.293 NA
ATOM      7  C   UNL     1     -10.719 -10.231  13.679  0.00  0.00    +0.089 C 
ATOM      8  C   UNL     1      -9.412  -9.551  15.628  0.00  0.00    +0.147 C 
ATOM      9  C   UNL     1     -10.180 -10.739  15.016  0.00  0.00    +0.052 C 
ATOM     10  C   UNL     1     -10.600  -8.718  13.783  0.00  0.00    +0.107 C 
ATOM     12  C   UNL     1      -9.209  -7.182  15.039  0.00  0.00    +0.105 C 
ENDROOT
BRANCH   8  11
ATOM      1  O   UNL     1      -8.010 -10.506  17.387  0.00  0.00    -0.336 OA
ATOM      5  N   UNL     1      -6.875  -9.828  15.579  0.00  0.00    -0.190 NA
ATOM      6  N   UNL     1      -6.662 -10.781  17.648  0.00  0.00    -0.056 NA
ATOM     11  C   UNL     1      -8.047  -9.947  16.150  0.00  0.00    +0.245 A 
ATOM     19  C   UNL     1      -6.056 -10.354  16.537  0.00  0.00    +0.202 A 
BRANCH  19  20
ATOM     20  C   UNL     1      -4.637 -10.439  16.350  0.00  0.00    +0.023 A 
ATOM     21  C   UNL     1      -4.099 -10.385  15.064  0.00  0.00    +0.020 A 
ATOM     22  C   UNL     1      -3.797 -10.575  17.452  0.00  0.00    +0.012 A 
ATOM     23  C   UNL     1      -2.710 -10.466  14.864  0.00  0.00    -0.017 A 
ATOM     24  C   UNL     1      -1.856 -10.604  15.985  0.00  0.00    -0.018 A 
ATOM     25  C   UNL     1      -2.417 -10.656  17.272  0.00  0.00    +0.009 A 
ATOM     26  C   UNL     1      -2.151 -10.414  13.577  0.00  0.00    +0.008 A 
ATOM     27  C   UNL     1      -0.469 -10.685  15.785  0.00  0.00    +0.008 A 
ATOM     28  C   UNL     1      -0.769 -10.496  13.397  0.00  0.00    +0.001 A 
ATOM     29  C   UNL     1       0.070 -10.632  14.500  0.00  0.00    +0.001 A 
ENDBRANCH  19  20
ENDBRANCH   8  11
BRANCH   7   4
ATOM      2  O   UNL     1     -10.095  -8.868  11.201  0.00  0.00    -0.276 OA
ATOM      4  N   UNL     1      -9.955 -10.743  12.568  0.00  0.00    -0.311 N 
ATOM     15  C   UNL     1      -9.706 -10.014  11.416  0.00  0.00    +0.214 C 
ATOM     30  H   UNL     1      -9.611 -11.697  12.632  0.00  0.00    +0.149 HD
BRANCH  15  14
ATOM     14  C   UNL     1      -8.886 -10.781  10.393  0.00  0.00    +0.102 C 
BRANCH  14  13
ATOM     13  C   UNL     1      -7.628 -10.037   9.884  0.00  0.00    -0.029 C 
ATOM     16  C   UNL     1      -6.517 -10.036  10.948  0.00  0.00    +0.011 C 
ATOM     17  C   UNL     1      -7.107 -10.778   8.636  0.00  0.00    +0.011 C 
ATOM     18  C   UNL     1      -7.952  -8.588   9.488  0.00  0.00    +0.011 C 
ENDBRANCH  14  13
ENDBRANCH  15  14
ENDBRANCH   7   4
TORSDOF 5
ENDMDL
MODEL 3
REMARK VINA RESULT:       1.8     14.888     17.571
REMARK  Name = 25338526
REMARK  9 active torsions:
REMARK  status: ('A' for Active; 'I' for Inactive)
REMARK    1  A    between atoms: N_3  and  C_12
REMARK    2  A    between atoms: N_4  and  C_7
REMARK    3  A    between atoms: C_8  and  C_11
REMARK    4  A    between atoms: C_13  and  C_14
REMARK    5  A    between atoms: C_13  and  C_16
REMARK    6  A    between atoms: C_13  and  C_17
REMARK    7  A    between atoms: C_13  and  C_18
REMARK    8  A    between atoms: C_14  and  C_15
REMARK    9  A    between atoms: C_19  and  C_20
REMARK                            x       y       z     vdW  Elec       q    Type
REMARK                         _______ _______ _______ _____ _____    ______ ____
ROOT
ATOM      3  N   UNL     1      -3.997  -0.250  25.873  0.00  0.00    -0.293 NA
ATOM      7  C   UNL     1      -5.163   1.127  24.399  0.00  0.00    +0.089 C 
ATOM      8  C   UNL     1      -3.743  -0.854  24.552  0.00  0.00    +0.147 C 
ATOM      9  C   UNL     1      -4.380   0.128  23.548  0.00  0.00    +0.052 C 
ATOM     10  C   UNL     1      -5.280   0.449  25.755  0.00  0.00    +0.107 C 
ATOM     12  C   UNL     1      -4.007  -1.225  26.958  0.00  0.00    +0.105 C 
ENDROOT
BRANCH   8  11
ATOM      1  O   UNL     1      -1.885  -2.400  24.188  0.00  0.00    -0.336 OA
ATOM      5  N   UNL     1      -1.307  -0.238  24.100  0.00  0.00    -0.190 NA
ATOM      6  N   UNL     1      -0.509  -2.375  23.929  0.00  0.00    -0.056 NA
ATOM     11  C   UNL     1      -2.276  -1.101  24.273  0.00  0.00    +0.245 A 
ATOM     19  C   UNL     1      -0.242  -1.067  23.892  0.00  0.00    +0.202 A 
BRANCH  19  20
ATOM     20  C   UNL     1       1.074  -0.554  23.648  0.00  0.00    +0.023 A 
ATOM     21  C   UNL     1       2.191  -1.349  23.907  0.00  0.00    +0.020 A 
ATOM     22  C   UNL     1       1.238   0.737  23.154  0.00  0.00    +0.012 A 
ATOM     23  C   UNL     1       3.488  -0.861  23.674  0.00  0.00    -0.017 A 
ATOM     24  C   UNL     1       3.654   0.451  23.170  0.00  0.00    -0.018 A 
ATOM     25  C   UNL     1       2.517   1.237  22.915  0.00  0.00    +0.009 A 
ATOM     26  C   UNL     1       4.623  -1.647  23.929  0.00  0.00    +0.008 A 
ATOM     27  C   UNL     1       4.950   0.939  22.937  0.00  0.00    +0.008 A 
ATOM     28  C   UNL     1       5.904  -1.146  23.691  0.00  0.00    +0.001 A 
ATOM     29  C   UNL     1       6.067   0.145  23.196  0.00  0.00    +0.001 A 
ENDBRANCH  19  20
ENDBRANCH   8  11
BRANCH   7   4
ATOM      2  O   UNL     1      -3.136   2.174  22.615  0.00  0.00    -0.276 OA
ATOM      4  N   UNL     1      -4.476   2.392  24.501  0.00  0.00    -0.311 N 
ATOM     15  C   UNL     1      -3.515   2.810  23.595  0.00  0.00    +0.214 C 
ATOM     30  H   UNL     1      -4.696   2.985  25.297  0.00  0.00    +0.149 HD
BRANCH  15  14
ATOM     14  C   UNL     1      -2.937   4.175  23.930  0.00  0.00    +0.102 C 
BRANCH  14  13
ATOM     13  C   UNL     1      -2.002   4.196  25.163  0.00  0.00    -0.029 C 
ATOM     16  C   UNL     1      -1.105   2.947  25.199  0.00  0.00    +0.011 C 
ATOM     17  C   UNL     1      -1.099   5.442  25.055  0.00  0.00    +0.011 C 
ATOM     18  C   UNL     1      -2.800   4.286  26.474  0.00  0.00    +0.011 C 
ENDBRANCH  14  13
ENDBRANCH  15  14
ENDBRANCH   7   4
TORSDOF 5
ENDMDL
