MODEL 1
REMARK VINA RESULT:       3.7      0.000      0.000
REMARK  Name = 26761985
REMARK  3 active torsions:
REMARK  status: ('A' for Active; 'I' for Inactive)
REMARK    1  A    between atoms: N_6  and  C_11
REMARK    2  A    between atoms: C_17  and  C_23
REMARK    3  A    between atoms: C_25  and  C_26
REMARK                            x       y       z     vdW  Elec       q    Type
REMARK                         _______ _______ _______ _____ _____    ______ ____
ROOT
ATOM      3  O   UNL     1      -2.631   2.410  26.050  0.00  0.00    -0.253 OA
ATOM      5  N   UNL     1      -3.067   0.542  24.727  0.00  0.00    -0.268 N 
ATOM      6  N   UNL     1      -4.252   2.569  24.430  0.00  0.00    -0.296 N 
ATOM      7  N   UNL     1      -4.669  -2.471  23.191  0.00  0.00    -0.347 N 
ATOM      8  N   UNL     1      -3.613  -3.594  24.808  0.00  0.00    -0.240 NA
ATOM     17  C   UNL     1      -1.931  -0.231  25.341  0.00  0.00    +0.172 C 
ATOM     18  C   UNL     1      -2.388  -1.633  25.843  0.00  0.00    +0.089 C 
ATOM     19  C   UNL     1      -3.842  -0.102  23.626  0.00  0.00    +0.165 C 
ATOM     20  C   UNL     1      -3.274   1.878  25.138  0.00  0.00    +0.303 C 
ATOM     21  C   UNL     1      -3.938  -1.552  23.882  0.00  0.00    +0.056 A 
ATOM     22  C   UNL     1      -3.299  -2.265  24.865  0.00  0.00    +0.066 A 
ATOM     24  C   UNL     1      -4.440  -3.686  23.787  0.00  0.00    +0.197 A 
ATOM     32  H   UNL     1      -4.621   2.182  23.571  0.00  0.00    +0.151 HD
ATOM     33  H   UNL     1      -5.265  -2.296  22.392  0.00  0.00    +0.167 HD
ENDROOT
BRANCH   6  11
ATOM     11  C   UNL     1      -4.581   3.949  24.712  0.00  0.00    +0.074 C 
ATOM     12  C   UNL     1      -4.211   4.319  26.152  0.00  0.00    +0.022 C 
ATOM     13  C   UNL     1      -3.913   4.892  23.707  0.00  0.00    +0.022 C 
ATOM     14  C   UNL     1      -2.700   4.424  26.358  0.00  0.00    +0.002 C 
ATOM     15  C   UNL     1      -2.403   4.996  23.916  0.00  0.00    +0.002 C 
ATOM     16  C   UNL     1      -2.059   5.377  25.353  0.00  0.00    +0.000 C 
ENDBRANCH   6  11
BRANCH  17  23
ATOM      4  O   UNL     1      -0.950  -0.255  23.091  0.00  0.00    -0.336 OA
ATOM      9  N   UNL     1       0.562  -0.134  24.740  0.00  0.00    -0.190 NA
ATOM     10  N   UNL     1       0.305  -0.217  22.468  0.00  0.00    -0.056 NA
ATOM     23  C   UNL     1      -0.708  -0.203  24.426  0.00  0.00    +0.249 A 
ATOM     25  C   UNL     1       1.144  -0.146  23.506  0.00  0.00    +0.202 A 
BRANCH  25  26
ATOM      1 CL   UNL     1       5.728  -2.408  24.124  0.00  0.00    -0.081 Cl
ATOM      2  F   UNL     1       6.666   0.109  22.870  0.00  0.00    -0.204 F 
ATOM     26  C   UNL     1       2.567  -0.084  23.345  0.00  0.00    +0.024 A 
ATOM     27  C   UNL     1       3.364  -1.150  23.763  0.00  0.00    +0.034 A 
ATOM     28  C   UNL     1       3.156   1.041  22.767  0.00  0.00    +0.014 A 
ATOM     29  C   UNL     1       4.749  -1.089  23.605  0.00  0.00    +0.077 A 
ATOM     30  C   UNL     1       4.539   1.102  22.609  0.00  0.00    +0.040 A 
ATOM     31  C   UNL     1       5.337   0.036  23.028  0.00  0.00    +0.142 A 
ENDBRANCH  25  26
ENDBRANCH  17  23
TORSDOF 3
ENDMDL
