MODEL 1
REMARK VINA RESULT:      -2.2      0.000      0.000
REMARK  Name = 7155545
REMARK  4 active torsions:
REMARK  status: ('A' for Active; 'I' for Inactive)
REMARK    1  A    between atoms: N_8  and  C_19
REMARK    2  A    between atoms: C_18  and  C_21
REMARK    3  A    between atoms: C_21  and  C_22
REMARK    4  A    between atoms: C_23  and  C_27
REMARK                            x       y       z     vdW  Elec       q    Type
REMARK                         _______ _______ _______ _____ _____    ______ ____
ROOT
ATOM      3  O   UNL     1       0.096   2.333  26.086  0.00  0.00    -0.266 OA
ATOM      4  O   UNL     1      -4.653  -0.086  26.603  0.00  0.00    -0.275 OA
ATOM      6  N   UNL     1      -4.806   1.733  25.166  0.00  0.00    -0.300 N 
ATOM      7  N   UNL     1      -1.840   2.895  24.904  0.00  0.00    -0.310 N 
ATOM      9  C   UNL     1      -3.908   3.898  26.031  0.00  0.00    +0.027 C 
ATOM     10  C   UNL     1      -3.926   3.464  23.610  0.00  0.00    +0.054 C 
ATOM     11  C   UNL     1      -4.168   4.535  24.671  0.00  0.00    +0.018 C 
ATOM     12  C   UNL     1      -4.857   2.707  26.258  0.00  0.00    +0.113 C 
ATOM     13  C   UNL     1      -2.434   3.484  26.112  0.00  0.00    +0.130 C 
ATOM     14  C   UNL     1      -4.917   2.301  23.814  0.00  0.00    +0.117 C 
ATOM     15  C   UNL     1      -2.502   2.944  23.673  0.00  0.00    +0.027 A 
ATOM     16  C   UNL     1      -1.891   2.505  22.560  0.00  0.00    +0.024 A 
ATOM     17  C   UNL     1      -0.533   2.380  25.029  0.00  0.00    +0.273 A 
ATOM     18  C   UNL     1      -4.746   0.370  25.460  0.00  0.00    +0.220 C 
ATOM     19  C   UNL     1       0.102   1.879  23.769  0.00  0.00    +0.099 A 
ATOM     20  C   UNL     1      -0.564   1.961  22.611  0.00  0.00    +0.030 A 
ENDROOT
BRANCH  19   8
ATOM      5  O   UNL     1       1.134  -0.283  22.218  0.00  0.00    -0.269 OA
ATOM      8  N   UNL     1       1.360   1.359  23.850  0.00  0.00    -0.277 N 
ATOM     23  C   UNL     1       1.804   0.303  23.065  0.00  0.00    +0.255 C 
ATOM     31  H   UNL     1       1.926   1.640  24.646  0.00  0.00    +0.155 HD
BRANCH  23  27
ATOM      2  S   UNL     1       4.417   0.986  22.843  0.00  0.00    -0.092 S 
ATOM     27  C   UNL     1       3.215  -0.110  23.279  0.00  0.00    +0.074 A 
ATOM     28  C   UNL     1       3.644  -1.275  23.788  0.00  0.00    +0.021 A 
ATOM     29  C   UNL     1       5.069  -1.292  23.834  0.00  0.00    +0.008 A 
ATOM     30  C   UNL     1       5.617  -0.125  23.349  0.00  0.00    +0.046 A 
ENDBRANCH  23  27
ENDBRANCH  19   8
BRANCH  18  21
ATOM     21  C   UNL     1      -4.792  -0.577  24.289  0.00  0.00    +0.138 C 
BRANCH  21  22
ATOM      1  S   UNL     1      -2.064  -0.788  24.647  0.00  0.00    -0.101 S 
ATOM     22  C   UNL     1      -3.600  -1.475  24.373  0.00  0.00    -0.001 A 
ATOM     24  C   UNL     1      -3.563  -2.838  24.255  0.00  0.00    +0.011 A 
ATOM     25  C   UNL     1      -2.236  -3.339  24.394  0.00  0.00    +0.008 A 
ATOM     26  C   UNL     1      -1.323  -2.331  24.611  0.00  0.00    +0.045 A 
ENDBRANCH  21  22
ENDBRANCH  18  21
TORSDOF 4
ENDMDL
