MODEL 1
REMARK VINA RESULT:       1.3      0.000      0.000
REMARK  Name = 45784243
REMARK  3 active torsions:
REMARK  status: ('A' for Active; 'I' for Inactive)
REMARK    1  A    between atoms: N_3  and  C_7
REMARK    2  A    between atoms: C_8  and  C_16
REMARK    3  A    between atoms: C_17  and  C_20
REMARK                            x       y       z     vdW  Elec       q    Type
REMARK                         _______ _______ _______ _____ _____    ______ ____
ROOT
ATOM      3  N   UNL     1      -2.529  -0.856  24.271  0.00  0.00    -0.299 NA
ATOM      8  C   UNL     1      -0.290  -1.516  24.047  0.00  0.00    +0.070 C 
ATOM      9  C   UNL     1      -1.397  -0.710  23.355  0.00  0.00    +0.096 C 
ATOM     10  C   UNL     1      -1.958  -0.689  25.608  0.00  0.00    +0.085 C 
ATOM     11  C   UNL     1      -0.679  -1.514  25.536  0.00  0.00    +0.028 C 
ENDROOT
BRANCH   8  16
ATOM      1  F   UNL     1       6.856  -0.375  23.419  0.00  0.00    -0.205 F 
ATOM      5  N   UNL     1       2.212  -1.675  24.144  0.00  0.00    -0.341 N 
ATOM      6  N   UNL     1       1.397   0.122  23.122  0.00  0.00    -0.232 NA
ATOM     16  C   UNL     1       1.096  -0.990  23.753  0.00  0.00    +0.113 A 
ATOM     18  C   UNL     1       3.308  -0.956  23.739  0.00  0.00    +0.069 A 
ATOM     19  C   UNL     1       2.773   0.162  23.104  0.00  0.00    +0.089 A 
ATOM     21  C   UNL     1       4.678  -1.179  23.869  0.00  0.00    +0.066 A 
ATOM     22  C   UNL     1       3.641   1.123  22.560  0.00  0.00    +0.032 A 
ATOM     23  C   UNL     1       5.529  -0.213  23.323  0.00  0.00    +0.125 A 
ATOM     24  C   UNL     1       5.022   0.918  22.680  0.00  0.00    +0.040 A 
ATOM     25  H   UNL     1       2.232  -2.555  24.643  0.00  0.00    +0.167 HD
ENDBRANCH   8  16
BRANCH   3   7
ATOM      2  O   UNL     1      -4.479   4.974  24.421  0.00  0.00    -0.276 OA
ATOM      4  N   UNL     1      -4.839   2.679  24.454  0.00  0.00    -0.302 N 
ATOM      7  C   UNL     1      -3.596   0.103  23.998  0.00  0.00    +0.060 C 
ATOM     12  C   UNL     1      -3.008   1.395  23.416  0.00  0.00    +0.038 C 
ATOM     13  C   UNL     1      -4.377   0.402  25.286  0.00  0.00    +0.038 C 
ATOM     14  C   UNL     1      -4.096   2.446  23.213  0.00  0.00    +0.109 C 
ATOM     15  C   UNL     1      -5.438   1.475  25.045  0.00  0.00    +0.109 C 
ATOM     17  C   UNL     1      -4.963   3.973  24.957  0.00  0.00    +0.212 C 
ATOM     20  C   UNL     1      -5.740   4.127  26.240  0.00  0.00    +0.109 C 
ENDBRANCH   3   7
TORSDOF 2
ENDMDL
MODEL 2
REMARK VINA RESULT:       3.0      1.161      1.512
REMARK  Name = 45784243
REMARK  3 active torsions:
REMARK  status: ('A' for Active; 'I' for Inactive)
REMARK    1  A    between atoms: N_3  and  C_7
REMARK    2  A    between atoms: C_8  and  C_16
REMARK    3  A    between atoms: C_17  and  C_20
REMARK                            x       y       z     vdW  Elec       q    Type
REMARK                         _______ _______ _______ _____ _____    ______ ____
ROOT
ATOM      3  N   UNL     1      -2.294  -0.189  24.315  0.00  0.00    -0.299 NA
ATOM      8  C   UNL     1      -0.307  -0.656  23.160  0.00  0.00    +0.070 C 
ATOM      9  C   UNL     1      -1.115   0.493  23.779  0.00  0.00    +0.096 C 
ATOM     10  C   UNL     1      -1.775  -1.402  24.947  0.00  0.00    +0.085 C 
ATOM     11  C   UNL     1      -0.764  -1.910  23.927  0.00  0.00    +0.028 C 
ENDROOT
BRANCH   8  16
ATOM      1  F   UNL     1       6.901  -0.953  24.009  0.00  0.00    -0.205 F 
ATOM      5  N   UNL     1       2.047  -1.320  23.722  0.00  0.00    -0.341 N 
ATOM      6  N   UNL     1       1.811   0.647  22.714  0.00  0.00    -0.232 NA
ATOM     16  C   UNL     1       1.183  -0.408  23.182  0.00  0.00    +0.113 A 
ATOM     18  C   UNL     1       3.318  -0.820  23.594  0.00  0.00    +0.069 A 
ATOM     19  C   UNL     1       3.144   0.409  22.963  0.00  0.00    +0.089 A 
ATOM     21  C   UNL     1       4.565  -1.320  23.966  0.00  0.00    +0.066 A 
ATOM     22  C   UNL     1       4.271   1.198  22.677  0.00  0.00    +0.032 A 
ATOM     23  C   UNL     1       5.676  -0.523  23.674  0.00  0.00    +0.125 A 
ATOM     24  C   UNL     1       5.534   0.714  23.042  0.00  0.00    +0.040 A 
ATOM     25  H   UNL     1       1.797  -2.206  24.141  0.00  0.00    +0.167 HD
ENDBRANCH   8  16
BRANCH   3   7
ATOM      2  O   UNL     1      -6.904   3.777  25.233  0.00  0.00    -0.276 OA
ATOM      4  N   UNL     1      -4.829   2.870  25.757  0.00  0.00    -0.302 N 
ATOM      7  C   UNL     1      -3.046   0.647  25.248  0.00  0.00    +0.060 C 
ATOM     12  C   UNL     1      -4.546   0.561  24.942  0.00  0.00    +0.038 C 
ATOM     13  C   UNL     1      -2.563   2.101  25.159  0.00  0.00    +0.038 C 
ATOM     14  C   UNL     1      -5.341   1.501  25.845  0.00  0.00    +0.109 C 
ATOM     15  C   UNL     1      -3.399   3.011  26.058  0.00  0.00    +0.109 C 
ATOM     17  C   UNL     1      -5.696   3.917  25.447  0.00  0.00    +0.212 C 
ATOM     20  C   UNL     1      -5.091   5.296  25.373  0.00  0.00    +0.109 C 
ENDBRANCH   3   7
TORSDOF 2
ENDMDL
MODEL 3
REMARK VINA RESULT:       3.5      3.922      8.192
REMARK  Name = 45784243
REMARK  3 active torsions:
REMARK  status: ('A' for Active; 'I' for Inactive)
REMARK    1  A    between atoms: N_3  and  C_7
REMARK    2  A    between atoms: C_8  and  C_16
REMARK    3  A    between atoms: C_17  and  C_20
REMARK                            x       y       z     vdW  Elec       q    Type
REMARK                         _______ _______ _______ _____ _____    ______ ____
ROOT
ATOM      3  N   UNL     1      -0.231  -1.750  24.556  0.00  0.00    -0.299 NA
ATOM      8  C   UNL     1      -2.137  -0.894  25.621  0.00  0.00    +0.070 C 
ATOM      9  C   UNL     1      -0.782  -0.480  25.031  0.00  0.00    +0.096 C 
ATOM     10  C   UNL     1      -1.353  -2.431  23.910  0.00  0.00    +0.085 C 
ATOM     11  C   UNL     1      -2.500  -2.197  24.886  0.00  0.00    +0.028 C 
ENDROOT
BRANCH   8  16
ATOM      1  F   UNL     1      -5.827   5.357  25.356  0.00  0.00    -0.205 F 
ATOM      5  N   UNL     1      -2.832   1.517  25.604  0.00  0.00    -0.341 N 
ATOM      6  N   UNL     1      -4.473   0.037  25.372  0.00  0.00    -0.232 NA
ATOM     16  C   UNL     1      -3.178   0.197  25.528  0.00  0.00    +0.113 A 
ATOM     18  C   UNL     1      -3.980   2.259  25.489  0.00  0.00    +0.069 A 
ATOM     19  C   UNL     1      -4.990   1.312  25.346  0.00  0.00    +0.089 A 
ATOM     21  C   UNL     1      -4.214   3.634  25.499  0.00  0.00    +0.066 A 
ATOM     22  C   UNL     1      -6.319   1.745  25.201  0.00  0.00    +0.032 A 
ATOM     23  C   UNL     1      -5.542   4.048  25.353  0.00  0.00    +0.125 A 
ATOM     24  C   UNL     1      -6.577   3.122  25.207  0.00  0.00    +0.040 A 
ATOM     25  H   UNL     1      -1.897   1.886  25.724  0.00  0.00    +0.167 HD
ENDBRANCH   8  16
BRANCH   3   7
ATOM      2  O   UNL     1       5.455   0.422  23.679  0.00  0.00    -0.276 OA
ATOM      4  N   UNL     1       3.340  -0.182  22.928  0.00  0.00    -0.302 N 
ATOM      7  C   UNL     1       0.901  -1.564  23.652  0.00  0.00    +0.060 C 
ATOM     12  C   UNL     1       2.218  -1.812  24.398  0.00  0.00    +0.038 C 
ATOM     13  C   UNL     1       0.877  -0.147  23.063  0.00  0.00    +0.038 C 
ATOM     14  C   UNL     1       3.417  -1.530  23.496  0.00  0.00    +0.109 C 
ATOM     15  C   UNL     1       2.105   0.103  22.188  0.00  0.00    +0.109 C 
ATOM     17  C   UNL     1       4.410   0.698  23.082  0.00  0.00    +0.212 C 
ATOM     20  C   UNL     1       4.252   2.068  22.471  0.00  0.00    +0.109 C 
ENDBRANCH   3   7
TORSDOF 2
ENDMDL
