MODEL 1
REMARK VINA RESULT:       2.7      0.000      0.000
REMARK  Name = 25389540
REMARK  13 active torsions:
REMARK  status: ('A' for Active; 'I' for Inactive)
REMARK    1  A    between atoms: O_1  and  C_17
REMARK    2  A    between atoms: O_1  and  C_22
REMARK    3  A    between atoms: O_3  and  C_26
REMARK    4  A    between atoms: O_3  and  C_31
REMARK    5  A    between atoms: O_4  and  C_28
REMARK    6  A    between atoms: O_4  and  C_32
REMARK    7  A    between atoms: N_6  and  C_20
REMARK    8  A    between atoms: N_8  and  C_25
REMARK    9  A    between atoms: C_10  and  C_16
REMARK   10  A    between atoms: C_11  and  C_17
REMARK   11  A    between atoms: C_19  and  C_21
REMARK   12  A    between atoms: C_25  and  C_29
REMARK   13  A    between atoms: C_25  and  C_30
REMARK                            x       y       z     vdW  Elec       q    Type
REMARK                         _______ _______ _______ _____ _____    ______ ____
ROOT
ATOM      5  N   UNL     1      -5.892   3.031  24.661  0.00  0.00    -0.296 NA
ATOM      9  C   UNL     1      -4.070   4.226  26.089  0.00  0.00    +0.002 C 
ATOM     10  C   UNL     1      -3.566   4.008  24.636  0.00  0.00    +0.055 C 
ATOM     11  C   UNL     1      -5.681   2.296  25.937  0.00  0.00    +0.095 C 
ATOM     12  C   UNL     1      -4.467   2.865  26.700  0.00  0.00    +0.026 C 
ATOM     13  C   UNL     1      -5.356   5.073  25.992  0.00  0.00    +0.019 C 
ATOM     14  C   UNL     1      -4.615   3.120  23.909  0.00  0.00    +0.094 C 
ATOM     15  C   UNL     1      -6.326   4.409  24.998  0.00  0.00    +0.085 C 
ENDROOT
BRANCH  10  16
ATOM      6  N   UNL     1      -1.044   4.296  24.588  0.00  0.00    -0.270 N 
ATOM      7  N   UNL     1       0.119   3.660  24.366  0.00  0.00    -0.171 NA
ATOM     16  C   UNL     1      -2.144   3.503  24.436  0.00  0.00    +0.044 A 
ATOM     18  C   UNL     1      -1.667   2.262  24.089  0.00  0.00    +0.053 A 
ATOM     19  C   UNL     1      -0.268   2.418  24.062  0.00  0.00    +0.093 A 
ATOM     20  C   UNL     1      -1.026   5.694  24.948  0.00  0.00    +0.172 C 
BRANCH  19  21
ATOM     21  C   UNL     1       0.706   1.404  23.749  0.00  0.00    +0.006 A 
ATOM     23  C   UNL     1       2.000   1.770  23.378  0.00  0.00    +0.059 A 
ATOM     24  C   UNL     1       0.355   0.056  23.819  0.00  0.00    +0.014 A 
ATOM     26  C   UNL     1       2.942   0.788  23.075  0.00  0.00    +0.162 A 
ATOM     27  C   UNL     1       1.297  -0.926  23.515  0.00  0.00    +0.050 A 
ATOM     28  C   UNL     1       2.590  -0.561  23.143  0.00  0.00    +0.162 A 
BRANCH  26   3
ATOM      3  O   UNL     1       4.203   1.157  22.713  0.00  0.00    -0.491 OA
ATOM     31  C   UNL     1       5.257   0.829  23.614  0.00  0.00    +0.277 C 
ENDBRANCH  26   3
BRANCH  28   4
ATOM      4  O   UNL     1       3.503  -1.530  22.850  0.00  0.00    -0.491 OA
ATOM     32  C   UNL     1       4.384  -1.928  23.899  0.00  0.00    +0.277 C 
ENDBRANCH  28   4
ENDBRANCH  19  21
ENDBRANCH  10  16
BRANCH  11  17
ATOM     17  C   UNL     1      -5.566   0.785  25.725  0.00  0.00    +0.252 C 
BRANCH  17   1
ATOM      1  O   UNL     1      -4.194   0.447  25.662  0.00  0.00    -0.449 OA
BRANCH   1  22
ATOM      2  O   UNL     1      -3.792  -0.394  23.564  0.00  0.00    -0.226 OA
ATOM      8  N   UNL     1      -3.575  -1.717  25.457  0.00  0.00    -0.279 N 
ATOM     22  C   UNL     1      -3.847  -0.548  24.779  0.00  0.00    +0.401 C 
ATOM     33  H   UNL     1      -3.613  -1.694  26.473  0.00  0.00    +0.152 HD
BRANCH   8  25
ATOM     25  C   UNL     1      -3.182  -2.947  24.809  0.00  0.00    +0.070 C 
ATOM     29  C   UNL     1      -1.753  -2.841  24.294  0.00  0.00    +0.027 C 
ATOM     30  C   UNL     1      -4.150  -3.291  23.684  0.00  0.00    +0.027 C 
ENDBRANCH   8  25
ENDBRANCH   1  22
ENDBRANCH  17   1
ENDBRANCH  11  17
TORSDOF 8
ENDMDL
MODEL 2
REMARK VINA RESULT:       3.1      1.978      4.112
REMARK  Name = 25389540
REMARK  13 active torsions:
REMARK  status: ('A' for Active; 'I' for Inactive)
REMARK    1  A    between atoms: O_1  and  C_17
REMARK    2  A    between atoms: O_1  and  C_22
REMARK    3  A    between atoms: O_3  and  C_26
REMARK    4  A    between atoms: O_3  and  C_31
REMARK    5  A    between atoms: O_4  and  C_28
REMARK    6  A    between atoms: O_4  and  C_32
REMARK    7  A    between atoms: N_6  and  C_20
REMARK    8  A    between atoms: N_8  and  C_25
REMARK    9  A    between atoms: C_10  and  C_16
REMARK   10  A    between atoms: C_11  and  C_17
REMARK   11  A    between atoms: C_19  and  C_21
REMARK   12  A    between atoms: C_25  and  C_29
REMARK   13  A    between atoms: C_25  and  C_30
REMARK                            x       y       z     vdW  Elec       q    Type
REMARK                         _______ _______ _______ _____ _____    ______ ____
ROOT
ATOM      5  N   UNL     1      -5.217   2.339  26.146  0.00  0.00    -0.296 NA
ATOM      9  C   UNL     1      -4.658   1.888  23.642  0.00  0.00    +0.002 C 
ATOM     10  C   UNL     1      -4.086   0.756  24.540  0.00  0.00    +0.055 C 
ATOM     11  C   UNL     1      -4.622   3.554  25.531  0.00  0.00    +0.095 C 
ATOM     12  C   UNL     1      -4.095   3.246  24.114  0.00  0.00    +0.026 C 
ATOM     13  C   UNL     1      -6.182   1.920  23.884  0.00  0.00    +0.019 C 
ATOM     14  C   UNL     1      -4.281   1.194  26.019  0.00  0.00    +0.094 C 
ATOM     15  C   UNL     1      -6.454   2.010  25.396  0.00  0.00    +0.085 C 
ENDROOT
BRANCH  10  16
ATOM      6  N   UNL     1      -2.327  -1.054  24.272  0.00  0.00    -0.270 N 
ATOM      7  N   UNL     1      -1.029  -1.278  24.007  0.00  0.00    -0.171 NA
ATOM     16  C   UNL     1      -2.672   0.266  24.264  0.00  0.00    +0.044 A 
ATOM     18  C   UNL     1      -1.519   0.953  23.973  0.00  0.00    +0.053 A 
ATOM     19  C   UNL     1      -0.540  -0.049  23.824  0.00  0.00    +0.093 A 
ATOM     20  C   UNL     1      -3.198  -2.177  24.533  0.00  0.00    +0.172 C 
BRANCH  19  21
ATOM     21  C   UNL     1       0.852   0.147  23.513  0.00  0.00    +0.006 A 
ATOM     23  C   UNL     1       1.704  -0.953  23.401  0.00  0.00    +0.059 A 
ATOM     24  C   UNL     1       1.349   1.436  23.324  0.00  0.00    +0.014 A 
ATOM     26  C   UNL     1       3.051  -0.763  23.100  0.00  0.00    +0.162 A 
ATOM     27  C   UNL     1       2.698   1.626  23.024  0.00  0.00    +0.050 A 
ATOM     28  C   UNL     1       3.549   0.527  22.912  0.00  0.00    +0.162 A 
BRANCH  26   3
ATOM      3  O   UNL     1       3.874  -1.844  22.993  0.00  0.00    -0.491 OA
ATOM     31  C   UNL     1       4.728  -2.120  24.100  0.00  0.00    +0.277 C 
ENDBRANCH  26   3
BRANCH  28   4
ATOM      4  O   UNL     1       4.865   0.725  22.617  0.00  0.00    -0.491 OA
ATOM     32  C   UNL     1       5.768   0.819  23.718  0.00  0.00    +0.277 C 
ENDBRANCH  28   4
ENDBRANCH  19  21
ENDBRANCH  10  16
BRANCH  11  17
ATOM     17  C   UNL     1      -3.544   4.186  26.415  0.00  0.00    +0.252 C 
BRANCH  17   1
ATOM      1  O   UNL     1      -2.596   4.821  25.579  0.00  0.00    -0.449 OA
BRANCH   1  22
ATOM      2  O   UNL     1      -0.542   4.504  24.604  0.00  0.00    -0.226 OA
ATOM      8  N   UNL     1      -1.254   3.187  26.375  0.00  0.00    -0.279 N 
ATOM     22  C   UNL     1      -1.381   4.194  25.443  0.00  0.00    +0.401 C 
ATOM     33  H   UNL     1      -2.008   3.065  27.046  0.00  0.00    +0.152 HD
BRANCH   8  25
ATOM     25  C   UNL     1      -0.088   2.341  26.489  0.00  0.00    +0.070 C 
ATOM     29  C   UNL     1      -0.498   0.922  26.860  0.00  0.00    +0.027 C 
ATOM     30  C   UNL     1       0.892   2.916  27.504  0.00  0.00    +0.027 C 
ENDBRANCH   8  25
ENDBRANCH   1  22
ENDBRANCH  17   1
ENDBRANCH  11  17
TORSDOF 8
ENDMDL
MODEL 3
REMARK VINA RESULT:       3.5      1.950      4.277
REMARK  Name = 25389540
REMARK  13 active torsions:
REMARK  status: ('A' for Active; 'I' for Inactive)
REMARK    1  A    between atoms: O_1  and  C_17
REMARK    2  A    between atoms: O_1  and  C_22
REMARK    3  A    between atoms: O_3  and  C_26
REMARK    4  A    between atoms: O_3  and  C_31
REMARK    5  A    between atoms: O_4  and  C_28
REMARK    6  A    between atoms: O_4  and  C_32
REMARK    7  A    between atoms: N_6  and  C_20
REMARK    8  A    between atoms: N_8  and  C_25
REMARK    9  A    between atoms: C_10  and  C_16
REMARK   10  A    between atoms: C_11  and  C_17
REMARK   11  A    between atoms: C_19  and  C_21
REMARK   12  A    between atoms: C_25  and  C_29
REMARK   13  A    between atoms: C_25  and  C_30
REMARK                            x       y       z     vdW  Elec       q    Type
REMARK                         _______ _______ _______ _____ _____    ______ ____
ROOT
ATOM      5  N   UNL     1      -4.865   2.964  25.775  0.00  0.00    -0.296 NA
ATOM      9  C   UNL     1      -5.312   0.872  24.288  0.00  0.00    +0.002 C 
ATOM     10  C   UNL     1      -4.206   0.568  25.336  0.00  0.00    +0.055 C 
ATOM     11  C   UNL     1      -4.834   3.345  24.338  0.00  0.00    +0.095 C 
ATOM     12  C   UNL     1      -4.889   2.091  23.440  0.00  0.00    +0.026 C 
ATOM     13  C   UNL     1      -6.572   1.284  25.078  0.00  0.00    +0.019 C 
ATOM     14  C   UNL     1      -3.855   1.908  26.043  0.00  0.00    +0.094 C 
ATOM     15  C   UNL     1      -6.207   2.405  26.067  0.00  0.00    +0.085 C 
ENDROOT
BRANCH  10  16
ATOM      6  N   UNL     1      -3.005  -1.455  24.383  0.00  0.00    -0.270 N 
ATOM      7  N   UNL     1      -1.802  -1.939  24.032  0.00  0.00    -0.171 NA
ATOM     16  C   UNL     1      -2.965  -0.182  24.874  0.00  0.00    +0.044 A 
ATOM     18  C   UNL     1      -1.644   0.191  24.842  0.00  0.00    +0.053 A 
ATOM     19  C   UNL     1      -0.974  -0.930  24.313  0.00  0.00    +0.093 A 
ATOM     20  C   UNL     1      -4.175  -2.286  24.220  0.00  0.00    +0.172 C 
BRANCH  19  21
ATOM     21  C   UNL     1       0.441  -1.054  24.075  0.00  0.00    +0.006 A 
ATOM     23  C   UNL     1       1.061  -0.246  23.121  0.00  0.00    +0.059 A 
ATOM     24  C   UNL     1       1.190  -1.981  24.798  0.00  0.00    +0.014 A 
ATOM     26  C   UNL     1       2.431  -0.367  22.891  0.00  0.00    +0.162 A 
ATOM     27  C   UNL     1       2.560  -2.102  24.566  0.00  0.00    +0.050 A 
ATOM     28  C   UNL     1       3.181  -1.295  23.613  0.00  0.00    +0.162 A 
BRANCH  26   3
ATOM      3  O   UNL     1       3.026   0.427  21.956  0.00  0.00    -0.491 OA
ATOM     31  C   UNL     1       3.912   1.437  22.435  0.00  0.00    +0.277 C 
ENDBRANCH  26   3
BRANCH  28   4
ATOM      4  O   UNL     1       4.520  -1.422  23.397  0.00  0.00    -0.491 OA
ATOM     32  C   UNL     1       5.390  -0.753  24.311  0.00  0.00    +0.277 C 
ENDBRANCH  28   4
ENDBRANCH  19  21
ENDBRANCH  10  16
BRANCH  11  17
ATOM     17  C   UNL     1      -3.638   4.238  23.998  0.00  0.00    +0.252 C 
BRANCH  17   1
ATOM      1  O   UNL     1      -3.077   4.710  25.208  0.00  0.00    -0.449 OA
BRANCH   1  22
ATOM      2  O   UNL     1      -1.025   5.732  25.067  0.00  0.00    -0.226 OA
ATOM      8  N   UNL     1      -1.222   3.488  25.621  0.00  0.00    -0.279 N 
ATOM     22  C   UNL     1      -1.704   4.733  25.280  0.00  0.00    +0.401 C 
ATOM     33  H   UNL     1      -1.899   2.755  25.816  0.00  0.00    +0.152 HD
BRANCH   8  25
ATOM     25  C   UNL     1       0.183   3.187  25.775  0.00  0.00    +0.070 C 
ATOM     29  C   UNL     1       0.726   2.533  24.512  0.00  0.00    +0.027 C 
ATOM     30  C   UNL     1       0.408   2.301  26.995  0.00  0.00    +0.027 C 
ENDBRANCH   8  25
ENDBRANCH   1  22
ENDBRANCH  17   1
ENDBRANCH  11  17
TORSDOF 8
ENDMDL
MODEL 4
REMARK VINA RESULT:       5.1      1.336      1.808
REMARK  Name = 25389540
REMARK  13 active torsions:
REMARK  status: ('A' for Active; 'I' for Inactive)
REMARK    1  A    between atoms: O_1  and  C_17
REMARK    2  A    between atoms: O_1  and  C_22
REMARK    3  A    between atoms: O_3  and  C_26
REMARK    4  A    between atoms: O_3  and  C_31
REMARK    5  A    between atoms: O_4  and  C_28
REMARK    6  A    between atoms: O_4  and  C_32
REMARK    7  A    between atoms: N_6  and  C_20
REMARK    8  A    between atoms: N_8  and  C_25
REMARK    9  A    between atoms: C_10  and  C_16
REMARK   10  A    between atoms: C_11  and  C_17
REMARK   11  A    between atoms: C_19  and  C_21
REMARK   12  A    between atoms: C_25  and  C_29
REMARK   13  A    between atoms: C_25  and  C_30
REMARK                            x       y       z     vdW  Elec       q    Type
REMARK                         _______ _______ _______ _____ _____    ______ ____
ROOT
ATOM      5  N   UNL     1      -5.141   3.979  24.874  0.00  0.00    -0.296 NA
ATOM      9  C   UNL     1      -2.836   3.799  26.072  0.00  0.00    +0.002 C 
ATOM     10  C   UNL     1      -2.653   3.741  24.530  0.00  0.00    +0.055 C 
ATOM     11  C   UNL     1      -5.199   2.940  25.936  0.00  0.00    +0.095 C 
ATOM     12  C   UNL     1      -3.794   2.673  26.515  0.00  0.00    +0.026 C 
ATOM     13  C   UNL     1      -3.533   5.140  26.387  0.00  0.00    +0.019 C 
ATOM     14  C   UNL     1      -4.072   3.650  23.898  0.00  0.00    +0.094 C 
ATOM     15  C   UNL     1      -4.797   5.269  25.519  0.00  0.00    +0.085 C 
ENDROOT
BRANCH  10  16
ATOM      6  N   UNL     1      -1.940   2.033  22.793  0.00  0.00    -0.270 N 
ATOM      7  N   UNL     1      -0.976   1.157  22.462  0.00  0.00    -0.171 NA
ATOM     16  C   UNL     1      -1.699   2.702  23.957  0.00  0.00    +0.044 A 
ATOM     18  C   UNL     1      -0.495   2.231  24.419  0.00  0.00    +0.053 A 
ATOM     19  C   UNL     1      -0.096   1.283  23.458  0.00  0.00    +0.093 A 
ATOM     20  C   UNL     1      -3.089   2.177  21.930  0.00  0.00    +0.172 C 
BRANCH  19  21
ATOM     21  C   UNL     1       1.109   0.494  23.475  0.00  0.00    +0.006 A 
ATOM     23  C   UNL     1       2.317   1.056  23.063  0.00  0.00    +0.059 A 
ATOM     24  C   UNL     1       1.067  -0.832  23.904  0.00  0.00    +0.014 A 
ATOM     26  C   UNL     1       3.483   0.292  23.079  0.00  0.00    +0.162 A 
ATOM     27  C   UNL     1       2.234  -1.597  23.920  0.00  0.00    +0.050 A 
ATOM     28  C   UNL     1       3.441  -1.035  23.508  0.00  0.00    +0.162 A 
BRANCH  26   3
ATOM      3  O   UNL     1       4.658   0.852  22.675  0.00  0.00    -0.491 OA
ATOM     31  C   UNL     1       5.616   1.149  23.687  0.00  0.00    +0.277 C 
ENDBRANCH  26   3
BRANCH  28   4
ATOM      4  O   UNL     1       4.575  -1.792  23.529  0.00  0.00    -0.491 OA
ATOM     32  C   UNL     1       5.624  -1.361  24.394  0.00  0.00    +0.277 C 
ENDBRANCH  28   4
ENDBRANCH  19  21
ENDBRANCH  10  16
BRANCH  11  17
ATOM     17  C   UNL     1      -5.872   1.653  25.454  0.00  0.00    +0.252 C 
BRANCH  17   1
ATOM      1  O   UNL     1      -5.004   1.011  24.541  0.00  0.00    -0.449 OA
BRANCH   1  22
ATOM      2  O   UNL     1      -4.382  -0.482  26.171  0.00  0.00    -0.226 OA
ATOM      8  N   UNL     1      -3.516  -0.609  24.023  0.00  0.00    -0.279 N 
ATOM     22  C   UNL     1      -4.303  -0.071  25.018  0.00  0.00    +0.401 C 
ATOM     33  H   UNL     1      -3.580  -0.198  23.096  0.00  0.00    +0.152 HD
BRANCH   8  25
ATOM     25  C   UNL     1      -2.658  -1.756  24.211  0.00  0.00    +0.070 C 
ATOM     29  C   UNL     1      -3.492  -3.011  24.434  0.00  0.00    +0.027 C 
ATOM     30  C   UNL     1      -1.695  -1.520  25.369  0.00  0.00    +0.027 C 
ENDBRANCH   8  25
ENDBRANCH   1  22
ENDBRANCH  17   1
ENDBRANCH  11  17
TORSDOF 8
ENDMDL
