MODEL 1
REMARK VINA RESULT:      -1.9      0.000      0.000
REMARK  Name = 45361422
REMARK  16 active torsions:
REMARK  status: ('A' for Active; 'I' for Inactive)
REMARK    1  A    between atoms: O_1  and  C_10
REMARK    2  A    between atoms: O_4  and  C_30
REMARK    3  A    between atoms: O_4  and  C_35
REMARK    4  A    between atoms: N_5  and  C_14
REMARK    5  A    between atoms: N_6  and  C_25
REMARK    6  A    between atoms: C_7  and  C_17
REMARK    7  A    between atoms: C_9  and  C_19
REMARK    8  A    between atoms: C_13  and  C_18
REMARK    9  A    between atoms: C_18  and  C_20
REMARK   10  A    between atoms: C_18  and  C_21
REMARK   11  A    between atoms: C_22  and  C_23
REMARK   12  A    between atoms: C_23  and  C_24
REMARK   13  A    between atoms: C_24  and  C_26
REMARK   14  A    between atoms: C_24  and  C_27
REMARK   15  A    between atoms: C_24  and  C_28
REMARK   16  A    between atoms: C_25  and  C_29
REMARK                            x       y       z     vdW  Elec       q    Type
REMARK                         _______ _______ _______ _____ _____    ______ ____
ROOT
ATOM      7  C   UNL     1      -2.047  -1.009  25.003  0.00  0.00    -0.027 C 
ATOM      8  C   UNL     1      -2.064   0.269  24.101  0.00  0.00    +0.028 C 
ATOM      9  C   UNL     1      -0.623   0.881  23.971  0.00  0.00    +0.012 C 
ATOM     10  C   UNL     1      -3.173   1.263  24.551  0.00  0.00    +0.122 C 
ATOM     11  C   UNL     1      -3.456  -1.648  25.017  0.00  0.00    +0.007 C 
ATOM     12  C   UNL     1      -1.069  -2.041  24.397  0.00  0.00    +0.009 C 
ATOM     13  C   UNL     1      -4.562   0.593  24.664  0.00  0.00    +0.029 C 
ATOM     14  C   UNL     1       0.369  -0.189  23.430  0.00  0.00    +0.076 C 
ATOM     15  C   UNL     1      -4.538  -0.690  25.496  0.00  0.00    +0.007 C 
ATOM     16  C   UNL     1       0.342  -1.497  24.221  0.00  0.00    +0.023 C 
ATOM     17  C   UNL     1      -1.625  -0.701  26.462  0.00  0.00    +0.011 C 
ATOM     19  C   UNL     1      -0.562   2.127  23.071  0.00  0.00    +0.010 C 
ENDROOT
BRANCH  14   5
ATOM      3  O   UNL     1       2.256  -0.339  21.238  0.00  0.00    -0.276 OA
ATOM      5  N   UNL     1       1.730   0.305  23.408  0.00  0.00    -0.312 N 
ATOM     22  C   UNL     1       2.559   0.187  22.307  0.00  0.00    +0.214 C 
ATOM     36  H   UNL     1       2.091   0.726  24.258  0.00  0.00    +0.149 HD
BRANCH  22  23
ATOM     23  C   UNL     1       3.940   0.777  22.540  0.00  0.00    +0.102 C 
BRANCH  23  24
ATOM     24  C   UNL     1       4.900  -0.124  23.352  0.00  0.00    -0.029 C 
ATOM     26  C   UNL     1       6.174  -0.441  22.551  0.00  0.00    +0.011 C 
ATOM     27  C   UNL     1       5.305   0.639  24.629  0.00  0.00    +0.011 C 
ATOM     28  C   UNL     1       4.221  -1.440  23.767  0.00  0.00    +0.011 C 
ENDBRANCH  23  24
ENDBRANCH  22  23
ENDBRANCH  14   5
BRANCH  10   1
ATOM      1  O   UNL     1      -3.301   2.306  23.584  0.00  0.00    -0.391 OA
ATOM     37  H   UNL     1      -2.877   2.009  22.761  0.00  0.00    +0.210 HD
ENDBRANCH  10   1
BRANCH  13  18
ATOM     18  C   UNL     1      -5.613   1.553  25.235  0.00  0.00    +0.077 C 
ATOM     20  C   UNL     1      -6.812   1.637  24.296  0.00  0.00    +0.017 C 
BRANCH  18  21
ATOM      2  O   UNL     1      -5.219   3.891  24.739  0.00  0.00    -0.276 OA
ATOM      6  N   UNL     1      -4.155   2.951  26.574  0.00  0.00    -0.311 N 
ATOM     21  C   UNL     1      -4.991   2.927  25.467  0.00  0.00    +0.216 C 
ATOM     38  H   UNL     1      -4.061   2.126  27.156  0.00  0.00    +0.149 HD
BRANCH   6  25
ATOM     25  C   UNL     1      -3.451   4.140  26.994  0.00  0.00    +0.143 C 
BRANCH  25  29
ATOM     29  C   UNL     1      -2.341   4.500  26.047  0.00  0.00    +0.011 A 
ATOM     30  C   UNL     1      -1.167   3.748  26.007  0.00  0.00    +0.125 A 
ATOM     31  C   UNL     1      -2.496   5.599  25.203  0.00  0.00    +0.009 A 
ATOM     32  C   UNL     1      -0.146   4.098  25.123  0.00  0.00    +0.046 A 
ATOM     33  C   UNL     1      -1.475   5.947  24.318  0.00  0.00    +0.001 A 
ATOM     34  C   UNL     1      -0.301   5.197  24.278  0.00  0.00    +0.004 A 
BRANCH  30   4
ATOM      4  O   UNL     1      -0.999   2.673  26.826  0.00  0.00    -0.495 OA
ATOM     35  C   UNL     1       0.342   2.297  27.135  0.00  0.00    +0.277 C 
ENDBRANCH  30   4
ENDBRANCH  25  29
ENDBRANCH   6  25
ENDBRANCH  18  21
ENDBRANCH  13  18
TORSDOF 9
ENDMDL
MODEL 2
REMARK VINA RESULT:      -0.2      0.844      1.733
REMARK  Name = 45361422
REMARK  16 active torsions:
REMARK  status: ('A' for Active; 'I' for Inactive)
REMARK    1  A    between atoms: O_1  and  C_10
REMARK    2  A    between atoms: O_4  and  C_30
REMARK    3  A    between atoms: O_4  and  C_35
REMARK    4  A    between atoms: N_5  and  C_14
REMARK    5  A    between atoms: N_6  and  C_25
REMARK    6  A    between atoms: C_7  and  C_17
REMARK    7  A    between atoms: C_9  and  C_19
REMARK    8  A    between atoms: C_13  and  C_18
REMARK    9  A    between atoms: C_18  and  C_20
REMARK   10  A    between atoms: C_18  and  C_21
REMARK   11  A    between atoms: C_22  and  C_23
REMARK   12  A    between atoms: C_23  and  C_24
REMARK   13  A    between atoms: C_24  and  C_26
REMARK   14  A    between atoms: C_24  and  C_27
REMARK   15  A    between atoms: C_24  and  C_28
REMARK   16  A    between atoms: C_25  and  C_29
REMARK                            x       y       z     vdW  Elec       q    Type
REMARK                         _______ _______ _______ _____ _____    ______ ____
ROOT
ATOM      7  C   UNL     1      -2.225  -0.979  25.064  0.00  0.00    -0.027 C 
ATOM      8  C   UNL     1      -2.275   0.250  24.096  0.00  0.00    +0.028 C 
ATOM      9  C   UNL     1      -0.850   0.892  23.934  0.00  0.00    +0.012 C 
ATOM     10  C   UNL     1      -3.410   1.237  24.495  0.00  0.00    +0.122 C 
ATOM     11  C   UNL     1      -3.617  -1.653  25.112  0.00  0.00    +0.007 C 
ATOM     12  C   UNL     1      -1.220  -2.015  24.512  0.00  0.00    +0.009 C 
ATOM     13  C   UNL     1      -4.781   0.537  24.643  0.00  0.00    +0.029 C 
ATOM     14  C   UNL     1       0.170  -0.178  23.450  0.00  0.00    +0.076 C 
ATOM     15  C   UNL     1      -4.725  -0.700  25.540  0.00  0.00    +0.007 C 
ATOM     16  C   UNL     1       0.176  -1.443  24.308  0.00  0.00    +0.023 C 
ATOM     17  C   UNL     1      -1.813  -0.584  26.504  0.00  0.00    +0.011 C 
ATOM     19  C   UNL     1      -0.821   2.091  22.971  0.00  0.00    +0.010 C 
ENDROOT
BRANCH  14   5
ATOM      3  O   UNL     1       2.083  -0.444  21.292  0.00  0.00    -0.276 OA
ATOM      5  N   UNL     1       1.517   0.350  23.401  0.00  0.00    -0.312 N 
ATOM     22  C   UNL     1       2.361   0.170  22.320  0.00  0.00    +0.214 C 
ATOM     36  H   UNL     1       1.859   0.844  24.220  0.00  0.00    +0.149 HD
BRANCH  22  23
ATOM     23  C   UNL     1       3.723   0.813  22.518  0.00  0.00    +0.102 C 
BRANCH  23  24
ATOM     24  C   UNL     1       4.740  -0.053  23.298  0.00  0.00    -0.029 C 
ATOM     26  C   UNL     1       4.113  -1.387  23.736  0.00  0.00    +0.011 C 
ATOM     27  C   UNL     1       5.926  -0.357  22.361  0.00  0.00    +0.011 C 
ATOM     28  C   UNL     1       5.277   0.686  24.535  0.00  0.00    +0.011 C 
ENDBRANCH  23  24
ENDBRANCH  22  23
ENDBRANCH  14   5
BRANCH  10   1
ATOM      1  O   UNL     1      -3.565   2.224  23.475  0.00  0.00    -0.391 OA
ATOM     37  H   UNL     1      -4.502   2.249  23.217  0.00  0.00    +0.210 HD
ENDBRANCH  10   1
BRANCH  13  18
ATOM     18  C   UNL     1      -5.858   1.498  25.163  0.00  0.00    +0.077 C 
ATOM     20  C   UNL     1      -6.985   1.624  24.144  0.00  0.00    +0.017 C 
BRANCH  18  21
ATOM      2  O   UNL     1      -5.646   3.903  24.982  0.00  0.00    -0.276 OA
ATOM      6  N   UNL     1      -4.174   2.761  26.365  0.00  0.00    -0.311 N 
ATOM     21  C   UNL     1      -5.235   2.855  25.476  0.00  0.00    +0.216 C 
ATOM     38  H   UNL     1      -3.931   1.864  26.770  0.00  0.00    +0.149 HD
BRANCH   6  25
ATOM     25  C   UNL     1      -3.425   3.912  26.811  0.00  0.00    +0.143 C 
BRANCH  25  29
ATOM     29  C   UNL     1      -2.047   3.951  26.216  0.00  0.00    +0.011 A 
ATOM     30  C   UNL     1      -1.708   4.915  25.267  0.00  0.00    +0.125 A 
ATOM     31  C   UNL     1      -1.101   3.010  26.623  0.00  0.00    +0.009 A 
ATOM     32  C   UNL     1      -0.423   4.937  24.723  0.00  0.00    +0.046 A 
ATOM     33  C   UNL     1       0.183   3.032  26.080  0.00  0.00    +0.001 A 
ATOM     34  C   UNL     1       0.522   3.995  25.130  0.00  0.00    +0.004 A 
BRANCH  30   4
ATOM      4  O   UNL     1      -2.619   5.841  24.857  0.00  0.00    -0.495 OA
ATOM     35  C   UNL     1      -3.251   5.615  23.598  0.00  0.00    +0.277 C 
ENDBRANCH  30   4
ENDBRANCH  25  29
ENDBRANCH   6  25
ENDBRANCH  18  21
ENDBRANCH  13  18
TORSDOF 9
ENDMDL
