MODEL 1
REMARK VINA RESULT:       5.8      0.000      0.000
REMARK  Name = 51136878
REMARK  7 active torsions:
REMARK  status: ('A' for Active; 'I' for Inactive)
REMARK    1  A    between atoms: O_2  and  C_25
REMARK    2  A    between atoms: O_2  and  C_28
REMARK    3  A    between atoms: N_4  and  C_14
REMARK    4  A    between atoms: N_8  and  C_20
REMARK    5  A    between atoms: C_9  and  C_13
REMARK    6  A    between atoms: C_15  and  C_16
REMARK    7  A    between atoms: C_21  and  C_22
REMARK                            x       y       z     vdW  Elec       q    Type
REMARK                         _______ _______ _______ _____ _____    ______ ____
ROOT
ATOM      7  N   UNL     1      -1.506  -8.465  10.440  0.00  0.00    -0.239 NA
ATOM     16  C   UNL     1      -3.416  -9.661  11.316  0.00  0.00    +0.041 A 
ATOM     17  C   UNL     1      -2.685 -10.018  12.443  0.00  0.00    +0.016 A 
ATOM     18  C   UNL     1      -2.786  -8.890  10.351  0.00  0.00    +0.124 A 
ATOM     19  C   UNL     1      -1.365  -9.599  12.571  0.00  0.00    +0.044 A 
ATOM     20  C   UNL     1      -0.827  -8.831  11.550  0.00  0.00    +0.125 A 
ENDROOT
BRANCH  16  15
ATOM      1  O   UNL     1      -6.607 -10.781  10.299  0.00  0.00    -0.336 OA
ATOM      5  N   UNL     1      -5.655 -10.081  12.203  0.00  0.00    -0.190 NA
ATOM      6  N   UNL     1      -5.275 -10.484   9.982  0.00  0.00    -0.056 NA
ATOM     13  C   UNL     1      -6.746 -10.516  11.625  0.00  0.00    +0.245 A 
ATOM     15  C   UNL     1      -4.780 -10.077  11.156  0.00  0.00    +0.204 A 
BRANCH  13   9
ATOM      4  N   UNL     1      -8.433  -9.829  13.321  0.00  0.00    -0.294 NA
ATOM      9  C   UNL     1      -8.116 -10.762  12.222  0.00  0.00    +0.146 C 
ATOM     10  C   UNL     1      -9.252 -10.563  11.201  0.00  0.00    +0.030 C 
ATOM     11  C   UNL     1     -10.187  -9.548  11.841  0.00  0.00    +0.017 C 
ATOM     12  C   UNL     1      -9.887  -9.667  13.321  0.00  0.00    +0.085 C 
ATOM     14  C   UNL     1      -7.930 -10.274  14.615  0.00  0.00    +0.105 C 
ENDBRANCH  13   9
ENDBRANCH  16  15
BRANCH  20   8
ATOM      3  O   UNL     1       0.298  -6.225  12.515  0.00  0.00    -0.270 OA
ATOM      8  N   UNL     1       0.502  -8.416  11.688  0.00  0.00    -0.266 N 
ATOM     22  C   UNL     1       0.972  -7.181  12.146  0.00  0.00    +0.249 C 
ATOM     29  H   UNL     1       1.169  -9.145  11.453  0.00  0.00    +0.157 HD
BRANCH  22  21
ATOM     21  C   UNL     1       2.452  -7.049  12.207  0.00  0.00    +0.037 A 
ATOM     23  C   UNL     1       3.030  -5.815  12.506  0.00  0.00    +0.016 A 
ATOM     24  C   UNL     1       3.261  -8.158  11.962  0.00  0.00    +0.016 A 
ATOM     25  C   UNL     1       5.228  -6.801  12.317  0.00  0.00    +0.120 A 
ATOM     26  C   UNL     1       4.419  -5.691  12.561  0.00  0.00    +0.046 A 
ATOM     27  C   UNL     1       4.650  -8.034  12.017  0.00  0.00    +0.046 A 
BRANCH  25   2
ATOM      2  O   UNL     1       6.583  -6.679  12.371  0.00  0.00    -0.495 OA
ATOM     28  C   UNL     1       7.148  -6.267  13.615  0.00  0.00    +0.277 C 
ENDBRANCH  25   2
ENDBRANCH  22  21
ENDBRANCH  20   8
TORSDOF 5
ENDMDL
