MODEL 1
REMARK VINA RESULT:      -2.3      0.000      0.000
REMARK  Name = 40533534
REMARK  5 active torsions:
REMARK  status: ('A' for Active; 'I' for Inactive)
REMARK    1  A    between atoms: S_1  and  N_6
REMARK    2  A    between atoms: S_1  and  C_20
REMARK    3  A    between atoms: O_5  and  C_28
REMARK    4  A    between atoms: O_5  and  C_31
REMARK    5  A    between atoms: C_18  and  C_21
REMARK                            x       y       z     vdW  Elec       q    Type
REMARK                         _______ _______ _______ _____ _____    ______ ____
ROOT
ATOM      4  O   UNL     1      15.341  -6.932  26.021  0.00  0.00    -0.267 OA
ATOM      6  N   UNL     1      14.213  -6.936  30.875  0.00  0.00    -0.176 NA
ATOM      7  N   UNL     1      15.981  -7.058  28.260  0.00  0.00    -0.311 N 
ATOM      9  C   UNL     1      15.223  -8.954  29.807  0.00  0.00    +0.025 C 
ATOM     10  C   UNL     1      16.680  -7.177  30.678  0.00  0.00    +0.052 C 
ATOM     11  C   UNL     1      16.533  -8.690  30.539  0.00  0.00    +0.017 C 
ATOM     12  C   UNL     1      14.036  -8.392  30.606  0.00  0.00    +0.114 C 
ATOM     13  C   UNL     1      15.520  -6.624  31.527  0.00  0.00    +0.119 C 
ATOM     14  C   UNL     1      15.314  -8.360  28.396  0.00  0.00    +0.130 C 
ATOM     15  C   UNL     1      16.707  -6.505  29.318  0.00  0.00    +0.026 A 
ATOM     16  C   UNL     1      17.405  -5.373  29.136  0.00  0.00    +0.022 A 
ATOM     17  C   UNL     1      15.941  -6.457  26.986  0.00  0.00    +0.259 A 
ATOM     18  C   UNL     1      16.705  -5.170  26.823  0.00  0.00    +0.048 A 
ATOM     19  C   UNL     1      17.396  -4.696  27.870  0.00  0.00    +0.015 A 
ENDROOT
BRANCH  18  21
ATOM      8  N   UNL     1      17.177  -4.398  23.179  0.00  0.00    -0.263 NA
ATOM     21  C   UNL     1      16.693  -4.433  25.547  0.00  0.00    +0.005 A 
ATOM     26  C   UNL     1      16.214  -3.130  25.476  0.00  0.00    +0.011 A 
ATOM     27  C   UNL     1      17.159  -5.017  24.380  0.00  0.00    +0.119 A 
ATOM     29  C   UNL     1      16.215  -2.460  24.258  0.00  0.00    +0.020 A 
ATOM     30  C   UNL     1      16.703  -3.132  23.149  0.00  0.00    +0.111 A 
ENDBRANCH  18  21
BRANCH   6   1
ATOM      1  S   UNL     1      12.851  -6.133  31.530  0.00  0.00    +0.061 S 
ATOM      2  O   UNL     1      12.214  -5.355  30.488  0.00  0.00    -0.153 OA
ATOM      3  O   UNL     1      13.221  -5.527  32.791  0.00  0.00    -0.153 OA
BRANCH   1  20
ATOM     20  C   UNL     1      11.812  -7.518  31.878  0.00  0.00    +0.106 A 
ATOM     22  C   UNL     1      12.318  -8.607  32.590  0.00  0.00    +0.032 A 
ATOM     23  C   UNL     1      10.487  -7.525  31.442  0.00  0.00    +0.032 A 
ATOM     24  C   UNL     1      11.498  -9.702  32.865  0.00  0.00    +0.047 A 
ATOM     25  C   UNL     1       9.668  -8.620  31.717  0.00  0.00    +0.047 A 
ATOM     28  C   UNL     1      10.174  -9.708  32.428  0.00  0.00    +0.120 A 
BRANCH  28   5
ATOM      5  O   UNL     1       9.373 -10.776  32.699  0.00  0.00    -0.495 OA
ATOM     31  C   UNL     1       7.966 -10.540  32.729  0.00  0.00    +0.277 C 
ENDBRANCH  28   5
ENDBRANCH   1  20
ENDBRANCH   6   1
TORSDOF 4
ENDMDL
