MODEL 1
REMARK VINA RESULT:      -6.6      0.000      0.000
REMARK  Name = 56775539
REMARK  8 active torsions:
REMARK  status: ('A' for Active; 'I' for Inactive)
REMARK    1  A    between atoms: O_3  and  C_20
REMARK    2  A    between atoms: O_3  and  C_21
REMARK    3  A    between atoms: N_4  and  C_6
REMARK    4  A    between atoms: N_4  and  C_8
REMARK    5  A    between atoms: C_6  and  C_13
REMARK    6  A    between atoms: C_7  and  C_8
REMARK    7  A    between atoms: C_13  and  C_17
REMARK    8  A    between atoms: C_19  and  C_20
REMARK                            x       y       z     vdW  Elec       q    Type
REMARK                         _______ _______ _______ _____ _____    ______ ____
ROOT
ATOM      1  O   UNL     1      -1.958   4.833  25.117  0.00  0.00    -0.376 OA
ATOM      6  C   UNL     1      -1.909   2.699  25.102  0.00  0.00    +0.072 C 
ATOM     11  C   UNL     1      -2.569   3.801  25.924  0.00  0.00    +0.184 C 
ATOM     12  C   UNL     1      -1.378   3.839  24.241  0.00  0.00    +0.184 C 
ENDROOT
BRANCH   6   4
ATOM      4  N   UNL     1      -2.947   1.983  24.352  0.00  0.00    -0.306 NA
ATOM     22  H   UNL     1      -3.365   2.508  23.585  0.00  0.00    +0.123 HD
BRANCH   4   8
ATOM      8  C   UNL     1      -3.985   1.533  25.268  0.00  0.00    +0.085 C 
BRANCH   8   7
ATOM      7  C   UNL     1      -4.196   0.025  25.153  0.00  0.00    +0.003 C 
ATOM      9  C   UNL     1      -4.064  -0.431  23.694  0.00  0.00    +0.005 C 
ATOM     10  C   UNL     1      -3.208  -0.730  26.053  0.00  0.00    +0.005 C 
ATOM     14  C   UNL     1      -4.218  -1.944  23.560  0.00  0.00    +0.000 C 
ATOM     15  C   UNL     1      -3.363  -2.243  25.915  0.00  0.00    +0.000 C 
ATOM     16  C   UNL     1      -3.241  -2.691  24.461  0.00  0.00    +0.000 C 
ENDBRANCH   8   7
ENDBRANCH   4   8
ENDBRANCH   6   4
BRANCH   6  13
ATOM     13  C   UNL     1      -0.933   1.780  25.770  0.00  0.00    +0.085 C 
BRANCH  13  17
ATOM      2  O   UNL     1       0.459  -0.590  23.425  0.00  0.00    -0.357 OA
ATOM      5  N   UNL     1      -0.494  -0.195  24.356  0.00  0.00    -0.083 NA
ATOM     17  C   UNL     1      -0.114   1.026  24.744  0.00  0.00    +0.086 A 
ATOM     18  C   UNL     1       1.061   1.449  24.099  0.00  0.00    +0.073 A 
ATOM     19  C   UNL     1       1.380   0.397  23.282  0.00  0.00    +0.163 A 
BRANCH  19  20
ATOM     20  C   UNL     1       2.468   0.144  22.328  0.00  0.00    +0.236 C 
BRANCH  20   3
ATOM      3  O   UNL     1       3.572   1.014  22.594  0.00  0.00    -0.375 OA
ATOM     21  C   UNL     1       4.688   0.289  23.087  0.00  0.00    +0.194 C 
ENDBRANCH  20   3
ENDBRANCH  19  20
ENDBRANCH  13  17
ENDBRANCH   6  13
TORSDOF 7
ENDMDL
MODEL 2
REMARK VINA RESULT:      -6.2      1.647      2.119
REMARK  Name = 56775539
REMARK  8 active torsions:
REMARK  status: ('A' for Active; 'I' for Inactive)
REMARK    1  A    between atoms: O_3  and  C_20
REMARK    2  A    between atoms: O_3  and  C_21
REMARK    3  A    between atoms: N_4  and  C_6
REMARK    4  A    between atoms: N_4  and  C_8
REMARK    5  A    between atoms: C_6  and  C_13
REMARK    6  A    between atoms: C_7  and  C_8
REMARK    7  A    between atoms: C_13  and  C_17
REMARK    8  A    between atoms: C_19  and  C_20
REMARK                            x       y       z     vdW  Elec       q    Type
REMARK                         _______ _______ _______ _____ _____    ______ ____
ROOT
ATOM      1  O   UNL     1      -5.122   4.253  25.607  0.00  0.00    -0.376 OA
ATOM      6  C   UNL     1      -3.827   2.756  24.807  0.00  0.00    +0.072 C 
ATOM     11  C   UNL     1      -3.702   3.993  25.692  0.00  0.00    +0.184 C 
ATOM     12  C   UNL     1      -5.324   3.042  24.843  0.00  0.00    +0.184 C 
ENDROOT
BRANCH   6   4
ATOM      4  N   UNL     1      -3.553   1.565  25.619  0.00  0.00    -0.306 NA
ATOM     22  H   UNL     1      -2.623   1.166  25.500  0.00  0.00    +0.123 HD
BRANCH   4   8
ATOM      8  C   UNL     1      -4.565   0.554  25.352  0.00  0.00    +0.085 C 
BRANCH   8   7
ATOM      7  C   UNL     1      -3.946  -0.843  25.333  0.00  0.00    +0.003 C 
ATOM      9  C   UNL     1      -4.190  -1.525  23.981  0.00  0.00    +0.005 C 
ATOM     10  C   UNL     1      -2.445  -0.774  25.647  0.00  0.00    +0.005 C 
ATOM     14  C   UNL     1      -3.534  -2.902  23.918  0.00  0.00    +0.000 C 
ATOM     15  C   UNL     1      -1.792  -2.153  25.581  0.00  0.00    +0.000 C 
ATOM     16  C   UNL     1      -2.045  -2.832  24.238  0.00  0.00    +0.000 C 
ENDBRANCH   8   7
ENDBRANCH   4   8
ENDBRANCH   6   4
BRANCH   6  13
ATOM     13  C   UNL     1      -3.125   2.736  23.485  0.00  0.00    +0.085 C 
BRANCH  13  17
ATOM      2  O   UNL     1       0.294   1.827  24.223  0.00  0.00    -0.357 OA
ATOM      5  N   UNL     1      -0.800   2.680  24.313  0.00  0.00    -0.083 NA
ATOM     17  C   UNL     1      -1.764   2.082  23.607  0.00  0.00    +0.086 A 
ATOM     18  C   UNL     1      -1.341   0.862  23.054  0.00  0.00    +0.073 A 
ATOM     19  C   UNL     1      -0.041   0.748  23.469  0.00  0.00    +0.163 A 
BRANCH  19  20
ATOM     20  C   UNL     1       1.006  -0.262  23.271  0.00  0.00    +0.236 C 
BRANCH  20   3
ATOM      3  O   UNL     1       1.859   0.116  22.187  0.00  0.00    -0.375 OA
ATOM     21  C   UNL     1       3.145   0.493  22.654  0.00  0.00    +0.194 C 
ENDBRANCH  20   3
ENDBRANCH  19  20
ENDBRANCH  13  17
ENDBRANCH   6  13
TORSDOF 7
ENDMDL
MODEL 3
REMARK VINA RESULT:      -5.8      1.801      4.061
REMARK  Name = 56775539
REMARK  8 active torsions:
REMARK  status: ('A' for Active; 'I' for Inactive)
REMARK    1  A    between atoms: O_3  and  C_20
REMARK    2  A    between atoms: O_3  and  C_21
REMARK    3  A    between atoms: N_4  and  C_6
REMARK    4  A    between atoms: N_4  and  C_8
REMARK    5  A    between atoms: C_6  and  C_13
REMARK    6  A    between atoms: C_7  and  C_8
REMARK    7  A    between atoms: C_13  and  C_17
REMARK    8  A    between atoms: C_19  and  C_20
REMARK                            x       y       z     vdW  Elec       q    Type
REMARK                         _______ _______ _______ _____ _____    ______ ____
ROOT
ATOM      1  O   UNL     1      -3.264  -3.296  25.046  0.00  0.00    -0.376 OA
ATOM      6  C   UNL     1      -2.537  -1.300  24.834  0.00  0.00    +0.072 C 
ATOM     11  C   UNL     1      -2.222  -2.677  24.258  0.00  0.00    +0.184 C 
ATOM     12  C   UNL     1      -3.676  -2.008  25.559  0.00  0.00    +0.184 C 
ENDROOT
BRANCH   6   4
ATOM      4  N   UNL     1      -3.102  -0.462  23.771  0.00  0.00    -0.306 NA
ATOM     22  H   UNL     1      -2.518   0.322  23.483  0.00  0.00    +0.123 HD
BRANCH   4   8
ATOM      8  C   UNL     1      -4.413   0.021  24.179  0.00  0.00    +0.085 C 
BRANCH   8   7
ATOM      7  C   UNL     1      -4.301   1.377  24.873  0.00  0.00    +0.003 C 
ATOM      9  C   UNL     1      -3.401   2.324  24.069  0.00  0.00    +0.005 C 
ATOM     10  C   UNL     1      -5.691   1.993  25.085  0.00  0.00    +0.005 C 
ATOM     14  C   UNL     1      -3.317   3.706  24.715  0.00  0.00    +0.000 C 
ATOM     15  C   UNL     1      -5.603   3.374  25.728  0.00  0.00    +0.000 C 
ATOM     16  C   UNL     1      -4.700   4.311  24.931  0.00  0.00    +0.000 C 
ENDBRANCH   8   7
ENDBRANCH   4   8
ENDBRANCH   6   4
BRANCH   6  13
ATOM     13  C   UNL     1      -1.492  -0.595  25.642  0.00  0.00    +0.085 C 
BRANCH  13  17
ATOM      2  O   UNL     1       0.839   1.453  23.790  0.00  0.00    -0.357 OA
ATOM      5  N   UNL     1      -0.211   1.286  24.684  0.00  0.00    -0.083 NA
ATOM     17  C   UNL     1      -0.407  -0.034  24.746  0.00  0.00    +0.086 A 
ATOM     18  C   UNL     1       0.481  -0.744  23.920  0.00  0.00    +0.073 A 
ATOM     19  C   UNL     1       1.242   0.236  23.341  0.00  0.00    +0.163 A 
BRANCH  19  20
ATOM     20  C   UNL     1       2.352   0.228  22.380  0.00  0.00    +0.236 C 
BRANCH  20   3
ATOM      3  O   UNL     1       3.398   1.097  22.823  0.00  0.00    -0.375 OA
ATOM     21  C   UNL     1       4.586   0.371  23.097  0.00  0.00    +0.194 C 
ENDBRANCH  20   3
ENDBRANCH  19  20
ENDBRANCH  13  17
ENDBRANCH   6  13
TORSDOF 7
ENDMDL
MODEL 4
REMARK VINA RESULT:      -5.7      2.284      4.880
REMARK  Name = 56775539
REMARK  8 active torsions:
REMARK  status: ('A' for Active; 'I' for Inactive)
REMARK    1  A    between atoms: O_3  and  C_20
REMARK    2  A    between atoms: O_3  and  C_21
REMARK    3  A    between atoms: N_4  and  C_6
REMARK    4  A    between atoms: N_4  and  C_8
REMARK    5  A    between atoms: C_6  and  C_13
REMARK    6  A    between atoms: C_7  and  C_8
REMARK    7  A    between atoms: C_13  and  C_17
REMARK    8  A    between atoms: C_19  and  C_20
REMARK                            x       y       z     vdW  Elec       q    Type
REMARK                         _______ _______ _______ _____ _____    ______ ____
ROOT
ATOM      1  O   UNL     1      -3.662  -3.458  25.103  0.00  0.00    -0.376 OA
ATOM      6  C   UNL     1      -2.461  -1.763  24.609  0.00  0.00    +0.072 C 
ATOM     11  C   UNL     1      -2.948  -3.033  23.919  0.00  0.00    +0.184 C 
ATOM     12  C   UNL     1      -3.313  -2.230  25.784  0.00  0.00    +0.184 C 
ENDROOT
BRANCH   6   4
ATOM      4  N   UNL     1      -3.112  -0.606  23.984  0.00  0.00    -0.306 NA
ATOM     22  H   UNL     1      -2.553   0.245  23.963  0.00  0.00    +0.123 HD
BRANCH   4   8
ATOM      8  C   UNL     1      -4.382  -0.348  24.646  0.00  0.00    +0.085 C 
BRANCH   8   7
ATOM      7  C   UNL     1      -4.801   1.110  24.469  0.00  0.00    +0.003 C 
ATOM      9  C   UNL     1      -5.393   1.666  25.770  0.00  0.00    +0.005 C 
ATOM     10  C   UNL     1      -3.613   1.962  24.001  0.00  0.00    +0.005 C 
ATOM     14  C   UNL     1      -5.771   3.139  25.634  0.00  0.00    +0.000 C 
ATOM     15  C   UNL     1      -3.993   3.435  23.868  0.00  0.00    +0.000 C 
ATOM     16  C   UNL     1      -4.590   3.981  25.162  0.00  0.00    +0.000 C 
ENDBRANCH   8   7
ENDBRANCH   4   8
ENDBRANCH   6   4
BRANCH   6  13
ATOM     13  C   UNL     1      -0.991  -1.566  24.814  0.00  0.00    +0.085 C 
BRANCH  13  17
ATOM      2  O   UNL     1       0.109   1.773  23.978  0.00  0.00    -0.357 OA
ATOM      5  N   UNL     1      -0.084   0.430  23.678  0.00  0.00    -0.083 NA
ATOM     17  C   UNL     1      -0.634  -0.094  24.777  0.00  0.00    +0.086 A 
ATOM     18  C   UNL     1      -0.809   0.860  25.794  0.00  0.00    +0.073 A 
ATOM     19  C   UNL     1      -0.326   2.017  25.242  0.00  0.00    +0.163 A 
BRANCH  19  20
ATOM     20  C   UNL     1      -0.195   3.397  25.724  0.00  0.00    +0.236 C 
BRANCH  20   3
ATOM      3  O   UNL     1      -0.436   4.320  24.658  0.00  0.00    -0.375 OA
ATOM     21  C   UNL     1      -1.329   5.346  25.061  0.00  0.00    +0.194 C 
ENDBRANCH  20   3
ENDBRANCH  19  20
ENDBRANCH  13  17
ENDBRANCH   6  13
TORSDOF 7
ENDMDL
MODEL 5
REMARK VINA RESULT:      -5.5      2.294      3.918
REMARK  Name = 56775539
REMARK  8 active torsions:
REMARK  status: ('A' for Active; 'I' for Inactive)
REMARK    1  A    between atoms: O_3  and  C_20
REMARK    2  A    between atoms: O_3  and  C_21
REMARK    3  A    between atoms: N_4  and  C_6
REMARK    4  A    between atoms: N_4  and  C_8
REMARK    5  A    between atoms: C_6  and  C_13
REMARK    6  A    between atoms: C_7  and  C_8
REMARK    7  A    between atoms: C_13  and  C_17
REMARK    8  A    between atoms: C_19  and  C_20
REMARK                            x       y       z     vdW  Elec       q    Type
REMARK                         _______ _______ _______ _____ _____    ______ ____
ROOT
ATOM      1  O   UNL     1      -0.884   5.438  25.007  0.00  0.00    -0.376 OA
ATOM      6  C   UNL     1      -1.129   3.318  24.944  0.00  0.00    +0.072 C 
ATOM     11  C   UNL     1      -1.844   4.513  25.567  0.00  0.00    +0.184 C 
ATOM     12  C   UNL     1      -0.214   4.360  24.312  0.00  0.00    +0.184 C 
ENDROOT
BRANCH   6   4
ATOM      4  N   UNL     1      -1.988   2.746  23.901  0.00  0.00    -0.306 NA
ATOM     22  H   UNL     1      -1.529   2.585  23.005  0.00  0.00    +0.123 HD
BRANCH   4   8
ATOM      8  C   UNL     1      -3.154   3.595  23.714  0.00  0.00    +0.085 C 
BRANCH   8   7
ATOM      7  C   UNL     1      -4.428   2.874  24.151  0.00  0.00    +0.003 C 
ATOM      9  C   UNL     1      -4.157   1.380  24.368  0.00  0.00    +0.005 C 
ATOM     10  C   UNL     1      -5.004   3.515  25.421  0.00  0.00    +0.005 C 
ATOM     14  C   UNL     1      -5.403   0.646  24.858  0.00  0.00    +0.000 C 
ATOM     15  C   UNL     1      -6.249   2.778  25.909  0.00  0.00    +0.000 C 
ATOM     16  C   UNL     1      -5.978   1.291  26.116  0.00  0.00    +0.000 C 
ENDBRANCH   8   7
ENDBRANCH   4   8
ENDBRANCH   6   4
BRANCH   6  13
ATOM     13  C   UNL     1      -0.532   2.279  25.843  0.00  0.00    +0.085 C 
BRANCH  13  17
ATOM      2  O   UNL     1      -0.366  -0.737  23.860  0.00  0.00    -0.357 OA
ATOM      5  N   UNL     1      -0.009   0.579  24.131  0.00  0.00    -0.083 NA
ATOM     17  C   UNL     1      -0.680   0.897  25.242  0.00  0.00    +0.086 A 
ATOM     18  C   UNL     1      -1.469  -0.167  25.712  0.00  0.00    +0.073 A 
ATOM     19  C   UNL     1      -1.236  -1.169  24.808  0.00  0.00    +0.163 A 
BRANCH  19  20
ATOM     20  C   UNL     1      -1.718  -2.549  24.673  0.00  0.00    +0.236 C 
BRANCH  20   3
ATOM      3  O   UNL     1      -3.083  -2.641  25.093  0.00  0.00    -0.375 OA
ATOM     21  C   UNL     1      -3.966  -2.542  23.987  0.00  0.00    +0.194 C 
ENDBRANCH  20   3
ENDBRANCH  19  20
ENDBRANCH  13  17
ENDBRANCH   6  13
TORSDOF 7
ENDMDL
MODEL 6
REMARK VINA RESULT:      -5.5      1.745      5.233
REMARK  Name = 56775539
REMARK  8 active torsions:
REMARK  status: ('A' for Active; 'I' for Inactive)
REMARK    1  A    between atoms: O_3  and  C_20
REMARK    2  A    between atoms: O_3  and  C_21
REMARK    3  A    between atoms: N_4  and  C_6
REMARK    4  A    between atoms: N_4  and  C_8
REMARK    5  A    between atoms: C_6  and  C_13
REMARK    6  A    between atoms: C_7  and  C_8
REMARK    7  A    between atoms: C_13  and  C_17
REMARK    8  A    between atoms: C_19  and  C_20
REMARK                            x       y       z     vdW  Elec       q    Type
REMARK                         _______ _______ _______ _____ _____    ______ ____
ROOT
ATOM      1  O   UNL     1       2.175   0.533  22.985  0.00  0.00    -0.376 OA
ATOM      6  C   UNL     1       0.156   0.820  23.616  0.00  0.00    +0.072 C 
ATOM     11  C   UNL     1       0.981  -0.281  22.959  0.00  0.00    +0.184 C 
ATOM     12  C   UNL     1       1.475   1.581  23.695  0.00  0.00    +0.184 C 
ENDROOT
BRANCH   6   4
ATOM      4  N   UNL     1      -0.221   0.386  24.966  0.00  0.00    -0.306 NA
ATOM     22  H   UNL     1       0.347   0.773  25.719  0.00  0.00    +0.123 HD
BRANCH   4   8
ATOM      8  C   UNL     1      -0.205  -1.067  25.030  0.00  0.00    +0.085 C 
BRANCH   8   7
ATOM      7  C   UNL     1      -1.623  -1.622  25.150  0.00  0.00    +0.003 C 
ATOM      9  C   UNL     1      -2.623  -0.496  25.440  0.00  0.00    +0.005 C 
ATOM     10  C   UNL     1      -2.014  -2.387  23.878  0.00  0.00    +0.005 C 
ATOM     14  C   UNL     1      -4.056  -1.018  25.510  0.00  0.00    +0.000 C 
ATOM     15  C   UNL     1      -3.449  -2.906  23.951  0.00  0.00    +0.000 C 
ATOM     16  C   UNL     1      -4.439  -1.784  24.248  0.00  0.00    +0.000 C 
ENDBRANCH   8   7
ENDBRANCH   4   8
ENDBRANCH   6   4
BRANCH   6  13
ATOM     13  C   UNL     1      -0.985   1.425  22.858  0.00  0.00    +0.085 C 
BRANCH  13  17
ATOM      2  O   UNL     1      -2.343   3.687  25.326  0.00  0.00    -0.357 OA
ATOM      5  N   UNL     1      -1.282   3.069  24.675  0.00  0.00    -0.083 NA
ATOM     17  C   UNL     1      -1.851   2.269  23.769  0.00  0.00    +0.086 A 
ATOM     18  C   UNL     1      -3.254   2.339  23.802  0.00  0.00    +0.073 A 
ATOM     19  C   UNL     1      -3.512   3.243  24.798  0.00  0.00    +0.163 A 
BRANCH  19  20
ATOM     20  C   UNL     1      -4.743   3.798  25.374  0.00  0.00    +0.236 C 
BRANCH  20   3
ATOM      3  O   UNL     1      -5.419   2.805  26.150  0.00  0.00    -0.375 OA
ATOM     21  C   UNL     1      -6.221   1.970  25.328  0.00  0.00    +0.194 C 
ENDBRANCH  20   3
ENDBRANCH  19  20
ENDBRANCH  13  17
ENDBRANCH   6  13
TORSDOF 7
ENDMDL
MODEL 7
REMARK VINA RESULT:      -5.1      2.389      3.760
REMARK  Name = 56775539
REMARK  8 active torsions:
REMARK  status: ('A' for Active; 'I' for Inactive)
REMARK    1  A    between atoms: O_3  and  C_20
REMARK    2  A    between atoms: O_3  and  C_21
REMARK    3  A    between atoms: N_4  and  C_6
REMARK    4  A    between atoms: N_4  and  C_8
REMARK    5  A    between atoms: C_6  and  C_13
REMARK    6  A    between atoms: C_7  and  C_8
REMARK    7  A    between atoms: C_13  and  C_17
REMARK    8  A    between atoms: C_19  and  C_20
REMARK                            x       y       z     vdW  Elec       q    Type
REMARK                         _______ _______ _______ _____ _____    ______ ____
ROOT
ATOM      1  O   UNL     1      -0.389  -1.796  25.751  0.00  0.00    -0.376 OA
ATOM      6  C   UNL     1      -1.302  -0.305  24.525  0.00  0.00    +0.072 C 
ATOM     11  C   UNL     1      -0.585  -1.637  24.327  0.00  0.00    +0.184 C 
ATOM     12  C   UNL     1      -1.142  -0.589  26.014  0.00  0.00    +0.184 C 
ENDROOT
BRANCH   6   4
ATOM      4  N   UNL     1      -2.714  -0.471  24.162  0.00  0.00    -0.306 NA
ATOM     22  H   UNL     1      -2.909  -1.245  23.529  0.00  0.00    +0.123 HD
BRANCH   4   8
ATOM      8  C   UNL     1      -3.217   0.771  23.593  0.00  0.00    +0.085 C 
BRANCH   8   7
ATOM      7  C   UNL     1      -3.794   1.673  24.683  0.00  0.00    +0.003 C 
ATOM      9  C   UNL     1      -3.583   3.151  24.330  0.00  0.00    +0.005 C 
ATOM     10  C   UNL     1      -5.282   1.371  24.904  0.00  0.00    +0.005 C 
ATOM     14  C   UNL     1      -4.199   4.075  25.378  0.00  0.00    +0.000 C 
ATOM     15  C   UNL     1      -5.896   2.297  25.951  0.00  0.00    +0.000 C 
ATOM     16  C   UNL     1      -5.676   3.766  25.601  0.00  0.00    +0.000 C 
ENDBRANCH   8   7
ENDBRANCH   4   8
ENDBRANCH   6   4
BRANCH   6  13
ATOM     13  C   UNL     1      -0.694   0.939  23.955  0.00  0.00    +0.085 C 
BRANCH  13  17
ATOM      2  O   UNL     1       2.032  -0.258  21.908  0.00  0.00    -0.357 OA
ATOM      5  N   UNL     1       0.689  -0.210  22.264  0.00  0.00    -0.083 NA
ATOM     17  C   UNL     1       0.636   0.636  23.297  0.00  0.00    +0.086 A 
ATOM     18  C   UNL     1       1.900   1.148  23.634  0.00  0.00    +0.073 A 
ATOM     19  C   UNL     1       2.743   0.554  22.732  0.00  0.00    +0.163 A 
BRANCH  19  20
ATOM     20  C   UNL     1       4.190   0.624  22.493  0.00  0.00    +0.236 C 
BRANCH  20   3
ATOM      3  O   UNL     1       4.892   0.725  23.735  0.00  0.00    -0.375 OA
ATOM     21  C   UNL     1       5.386  -0.539  24.150  0.00  0.00    +0.194 C 
ENDBRANCH  20   3
ENDBRANCH  19  20
ENDBRANCH  13  17
ENDBRANCH   6  13
TORSDOF 7
ENDMDL
MODEL 8
REMARK VINA RESULT:      -5.0      1.810      5.185
REMARK  Name = 56775539
REMARK  8 active torsions:
REMARK  status: ('A' for Active; 'I' for Inactive)
REMARK    1  A    between atoms: O_3  and  C_20
REMARK    2  A    between atoms: O_3  and  C_21
REMARK    3  A    between atoms: N_4  and  C_6
REMARK    4  A    between atoms: N_4  and  C_8
REMARK    5  A    between atoms: C_6  and  C_13
REMARK    6  A    between atoms: C_7  and  C_8
REMARK    7  A    between atoms: C_13  and  C_17
REMARK    8  A    between atoms: C_19  and  C_20
REMARK                            x       y       z     vdW  Elec       q    Type
REMARK                         _______ _______ _______ _____ _____    ______ ____
ROOT
ATOM      1  O   UNL     1       0.633   0.285  22.662  0.00  0.00    -0.376 OA
ATOM      6  C   UNL     1      -0.034   1.570  24.230  0.00  0.00    +0.072 C 
ATOM     11  C   UNL     1      -0.663   0.670  23.171  0.00  0.00    +0.184 C 
ATOM     12  C   UNL     1       1.295   1.044  23.699  0.00  0.00    +0.184 C 
ENDROOT
BRANCH   6   4
ATOM      4  N   UNL     1      -0.280   0.986  25.553  0.00  0.00    -0.306 NA
ATOM     22  H   UNL     1       0.239   0.132  25.752  0.00  0.00    +0.123 HD
BRANCH   4   8
ATOM      8  C   UNL     1      -1.706   0.750  25.721  0.00  0.00    +0.085 C 
BRANCH   8   7
ATOM      7  C   UNL     1      -2.177  -0.395  24.825  0.00  0.00    +0.003 C 
ATOM      9  C   UNL     1      -1.573  -1.727  25.287  0.00  0.00    +0.005 C 
ATOM     10  C   UNL     1      -3.710  -0.468  24.802  0.00  0.00    +0.005 C 
ATOM     14  C   UNL     1      -2.072  -2.895  24.440  0.00  0.00    +0.000 C 
ATOM     15  C   UNL     1      -4.205  -1.638  23.955  0.00  0.00    +0.000 C 
ATOM     16  C   UNL     1      -3.596  -2.961  24.412  0.00  0.00    +0.000 C 
ENDBRANCH   8   7
ENDBRANCH   4   8
ENDBRANCH   6   4
BRANCH   6  13
ATOM     13  C   UNL     1      -0.302   3.043  24.183  0.00  0.00    +0.085 C 
BRANCH  13  17
ATOM      2  O   UNL     1      -3.002   4.038  26.368  0.00  0.00    -0.357 OA
ATOM      5  N   UNL     1      -1.654   3.846  26.085  0.00  0.00    -0.083 NA
ATOM     17  C   UNL     1      -1.628   3.371  24.836  0.00  0.00    +0.086 A 
ATOM     18  C   UNL     1      -2.915   3.243  24.287  0.00  0.00    +0.073 A 
ATOM     19  C   UNL     1      -3.742   3.673  25.289  0.00  0.00    +0.163 A 
BRANCH  19  20
ATOM     20  C   UNL     1      -5.198   3.812  25.417  0.00  0.00    +0.236 C 
BRANCH  20   3
ATOM      3  O   UNL     1      -5.760   2.631  25.995  0.00  0.00    -0.375 OA
ATOM     21  C   UNL     1      -6.341   1.801  25.001  0.00  0.00    +0.194 C 
ENDBRANCH  20   3
ENDBRANCH  19  20
ENDBRANCH  13  17
ENDBRANCH   6  13
TORSDOF 7
ENDMDL
MODEL 9
REMARK VINA RESULT:      -4.5      2.062      5.439
REMARK  Name = 56775539
REMARK  8 active torsions:
REMARK  status: ('A' for Active; 'I' for Inactive)
REMARK    1  A    between atoms: O_3  and  C_20
REMARK    2  A    between atoms: O_3  and  C_21
REMARK    3  A    between atoms: N_4  and  C_6
REMARK    4  A    between atoms: N_4  and  C_8
REMARK    5  A    between atoms: C_6  and  C_13
REMARK    6  A    between atoms: C_7  and  C_8
REMARK    7  A    between atoms: C_13  and  C_17
REMARK    8  A    between atoms: C_19  and  C_20
REMARK                            x       y       z     vdW  Elec       q    Type
REMARK                         _______ _______ _______ _____ _____    ______ ____
ROOT
ATOM      1  O   UNL     1       2.481   0.163  21.804  0.00  0.00    -0.376 OA
ATOM      6  C   UNL     1       0.988   0.050  23.326  0.00  0.00    +0.072 C 
ATOM     11  C   UNL     1       2.288   0.810  23.083  0.00  0.00    +0.184 C 
ATOM     12  C   UNL     1       1.211  -0.517  21.929  0.00  0.00    +0.184 C 
ENDROOT
BRANCH   6   4
ATOM      4  N   UNL     1      -0.130   1.000  23.278  0.00  0.00    -0.306 NA
ATOM     22  H   UNL     1      -0.319   1.398  22.360  0.00  0.00    +0.123 HD
BRANCH   4   8
ATOM      8  C   UNL     1       0.098   2.065  24.243  0.00  0.00    +0.085 C 
BRANCH   8   7
ATOM      7  C   UNL     1      -1.141   2.949  24.380  0.00  0.00    +0.003 C 
ATOM      9  C   UNL     1      -2.358   2.280  23.729  0.00  0.00    +0.005 C 
ATOM     10  C   UNL     1      -1.416   3.268  25.856  0.00  0.00    +0.005 C 
ATOM     14  C   UNL     1      -3.622   3.119  23.901  0.00  0.00    +0.000 C 
ATOM     15  C   UNL     1      -2.682   4.106  26.024  0.00  0.00    +0.000 C 
ATOM     16  C   UNL     1      -3.888   3.441  25.368  0.00  0.00    +0.000 C 
ENDBRANCH   8   7
ENDBRANCH   4   8
ENDBRANCH   6   4
BRANCH   6  13
ATOM     13  C   UNL     1       0.904  -0.893  24.486  0.00  0.00    +0.085 C 
BRANCH  13  17
ATOM      2  O   UNL     1      -2.459  -1.250  25.759  0.00  0.00    -0.357 OA
ATOM      5  N   UNL     1      -1.189  -0.686  25.780  0.00  0.00    -0.083 NA
ATOM     17  C   UNL     1      -0.535  -1.270  24.771  0.00  0.00    +0.086 A 
ATOM     18  C   UNL     1      -1.333  -2.202  24.086  0.00  0.00    +0.073 A 
ATOM     19  C   UNL     1      -2.532  -2.152  24.746  0.00  0.00    +0.163 A 
BRANCH  19  20
ATOM     20  C   UNL     1      -3.815  -2.846  24.579  0.00  0.00    +0.236 C 
BRANCH  20   3
ATOM      3  O   UNL     1      -4.705  -2.059  23.783  0.00  0.00    -0.375 OA
ATOM     21  C   UNL     1      -4.502  -0.673  24.007  0.00  0.00    +0.194 C 
ENDBRANCH  20   3
ENDBRANCH  19  20
ENDBRANCH  13  17
ENDBRANCH   6  13
TORSDOF 7
ENDMDL
MODEL 10
REMARK VINA RESULT:      -4.1      2.400      6.481
REMARK  Name = 56775539
REMARK  8 active torsions:
REMARK  status: ('A' for Active; 'I' for Inactive)
REMARK    1  A    between atoms: O_3  and  C_20
REMARK    2  A    between atoms: O_3  and  C_21
REMARK    3  A    between atoms: N_4  and  C_6
REMARK    4  A    between atoms: N_4  and  C_8
REMARK    5  A    between atoms: C_6  and  C_13
REMARK    6  A    between atoms: C_7  and  C_8
REMARK    7  A    between atoms: C_13  and  C_17
REMARK    8  A    between atoms: C_19  and  C_20
REMARK                            x       y       z     vdW  Elec       q    Type
REMARK                         _______ _______ _______ _____ _____    ______ ____
ROOT
ATOM      1  O   UNL     1      -0.728   3.215  25.274  0.00  0.00    -0.376 OA
ATOM      6  C   UNL     1      -0.079   1.500  24.181  0.00  0.00    +0.072 C 
ATOM     11  C   UNL     1      -0.574   2.908  23.870  0.00  0.00    +0.184 C 
ATOM     12  C   UNL     1      -0.177   1.929  25.641  0.00  0.00    +0.184 C 
ENDROOT
BRANCH   6   4
ATOM      4  N   UNL     1       1.338   1.404  23.811  0.00  0.00    -0.306 NA
ATOM     22  H   UNL     1       1.748   2.263  23.448  0.00  0.00    +0.123 HD
BRANCH   4   8
ATOM      8  C   UNL     1       1.516   0.326  22.850  0.00  0.00    +0.085 C 
BRANCH   8   7
ATOM      7  C   UNL     1       2.973  -0.131  22.809  0.00  0.00    +0.003 C 
ATOM      9  C   UNL     1       3.915   1.035  23.136  0.00  0.00    +0.005 C 
ATOM     10  C   UNL     1       3.200  -1.304  23.772  0.00  0.00    +0.005 C 
ATOM     14  C   UNL     1       5.376   0.591  23.153  0.00  0.00    +0.000 C 
ATOM     15  C   UNL     1       4.662  -1.744  23.789  0.00  0.00    +0.000 C 
ATOM     16  C   UNL     1       5.597  -0.580  24.105  0.00  0.00    +0.000 C 
ENDBRANCH   8   7
ENDBRANCH   4   8
ENDBRANCH   6   4
BRANCH   6  13
ATOM     13  C   UNL     1      -0.885   0.327  23.715  0.00  0.00    +0.085 C 
BRANCH  13  17
ATOM      2  O   UNL     1      -3.886  -0.277  25.634  0.00  0.00    -0.357 OA
ATOM      5  N   UNL     1      -2.574  -0.566  25.278  0.00  0.00    -0.083 NA
ATOM     17  C   UNL     1      -2.263   0.336  24.343  0.00  0.00    +0.086 A 
ATOM     18  C   UNL     1      -3.329   1.210  24.069  0.00  0.00    +0.073 A 
ATOM     19  C   UNL     1      -4.325   0.782  24.906  0.00  0.00    +0.163 A 
BRANCH  19  20
ATOM     20  C   UNL     1      -5.702   1.223  25.157  0.00  0.00    +0.236 C 
BRANCH  20   3
ATOM      3  O   UNL     1      -5.823   2.628  24.919  0.00  0.00    -0.375 OA
ATOM     21  C   UNL     1      -5.051   3.373  25.848  0.00  0.00    +0.194 C 
ENDBRANCH  20   3
ENDBRANCH  19  20
ENDBRANCH  13  17
ENDBRANCH   6  13
TORSDOF 7
ENDMDL
