MODEL 1
REMARK VINA RESULT:       1.1      0.000      0.000
REMARK  Name = 51136667
REMARK  8 active torsions:
REMARK  status: ('A' for Active; 'I' for Inactive)
REMARK    1  A    between atoms: O_2  and  C_21
REMARK    2  A    between atoms: O_4  and  C_29
REMARK    3  A    between atoms: O_4  and  C_30
REMARK    4  A    between atoms: C_7  and  C_13
REMARK    5  A    between atoms: C_8  and  C_15
REMARK    6  A    between atoms: C_12  and  C_14
REMARK    7  A    between atoms: C_13  and  C_20
REMARK    8  A    between atoms: C_15  and  C_21
REMARK                            x       y       z     vdW  Elec       q    Type
REMARK                         _______ _______ _______ _____ _____    ______ ____
ROOT
ATOM      1  O   UNL     1      -1.479  -3.176  23.547  0.00  0.00    -0.275 OA
ATOM      5  N   UNL     1      -0.274  -1.430  24.493  0.00  0.00    -0.301 N 
ATOM      7  C   UNL     1       0.448   0.947  24.549  0.00  0.00    +0.016 C 
ATOM      8  C   UNL     1       1.816   0.507  23.966  0.00  0.00    +0.006 C 
ATOM      9  C   UNL     1      -0.190  -0.221  25.322  0.00  0.00    +0.112 C 
ATOM     10  C   UNL     1       1.690  -0.790  23.148  0.00  0.00    +0.023 C 
ATOM     11  C   UNL     1       1.004  -1.890  23.954  0.00  0.00    +0.108 C 
ATOM     14  C   UNL     1      -1.440  -2.147  24.227  0.00  0.00    +0.219 C 
ENDROOT
BRANCH  14  12
ATOM     12  C   UNL     1      -2.709  -1.609  24.812  0.00  0.00    +0.075 C 
ATOM     16  C   UNL     1      -3.685  -2.753  25.106  0.00  0.00    +0.013 C 
ATOM     17  C   UNL     1      -3.416  -0.688  23.818  0.00  0.00    +0.013 C 
ATOM     18  C   UNL     1      -4.967  -2.411  24.353  0.00  0.00    +0.001 C 
ATOM     19  C   UNL     1      -4.496  -1.557  23.189  0.00  0.00    +0.001 C 
ENDBRANCH  14  12
BRANCH   7  13
ATOM     13  C   UNL     1      -0.531   1.491  23.501  0.00  0.00    +0.061 C 
BRANCH  13  20
ATOM      6  N   UNL     1      -0.330   3.855  23.872  0.00  0.00    -0.287 NA
ATOM     20  C   UNL     1      -1.092   2.814  23.960  0.00  0.00    +0.044 C 
ATOM     22  C   UNL     1      -2.477   2.858  24.495  0.00  0.00    -0.001 A 
ATOM     23  C   UNL     1      -2.825   3.980  25.256  0.00  0.00    -0.033 A 
ATOM     24  C   UNL     1      -0.896   5.151  24.263  0.00  0.00    +0.146 C 
ATOM     25  C   UNL     1      -1.791   5.041  25.490  0.00  0.00    +0.059 C 
ATOM     26  C   UNL     1      -3.402   1.835  24.278  0.00  0.00    +0.013 A 
ATOM     27  C   UNL     1      -4.101   4.063  25.821  0.00  0.00    +0.050 A 
ATOM     28  C   UNL     1      -4.679   1.933  24.832  0.00  0.00    +0.046 A 
ATOM     29  C   UNL     1      -5.027   3.042  25.604  0.00  0.00    +0.120 A 
BRANCH  29   4
ATOM      4  O   UNL     1      -6.272   3.127  26.150  0.00  0.00    -0.495 OA
ATOM     30  C   UNL     1      -6.791   1.950  26.766  0.00  0.00    +0.277 C 
ENDBRANCH  29   4
ENDBRANCH  13  20
ENDBRANCH   7  13
BRANCH   8  15
ATOM     15  C   UNL     1       2.497   1.599  23.142  0.00  0.00    +0.124 C 
BRANCH  15  21
ATOM      3  O   UNL     1       4.858   1.032  23.362  0.00  0.00    -0.251 OA
ATOM     21  C   UNL     1       3.859   1.169  22.672  0.00  0.00    +0.305 C 
BRANCH  21   2
ATOM      2  O   UNL     1       3.832   0.947  21.332  0.00  0.00    -0.481 OA
ATOM     31  H   UNL     1       4.181   0.060  21.102  0.00  0.00    +0.295 HD
ENDBRANCH  21   2
ENDBRANCH  15  21
ENDBRANCH   8  15
TORSDOF 7
ENDMDL
MODEL 2
REMARK VINA RESULT:       2.1      1.768      4.689
REMARK  Name = 51136667
REMARK  8 active torsions:
REMARK  status: ('A' for Active; 'I' for Inactive)
REMARK    1  A    between atoms: O_2  and  C_21
REMARK    2  A    between atoms: O_4  and  C_29
REMARK    3  A    between atoms: O_4  and  C_30
REMARK    4  A    between atoms: C_7  and  C_13
REMARK    5  A    between atoms: C_8  and  C_15
REMARK    6  A    between atoms: C_12  and  C_14
REMARK    7  A    between atoms: C_13  and  C_20
REMARK    8  A    between atoms: C_15  and  C_21
REMARK                            x       y       z     vdW  Elec       q    Type
REMARK                         _______ _______ _______ _____ _____    ______ ____
ROOT
ATOM      1  O   UNL     1      -0.025   4.206  25.369  0.00  0.00    -0.275 OA
ATOM      5  N   UNL     1       0.008   2.485  23.809  0.00  0.00    -0.301 N 
ATOM      7  C   UNL     1       0.028   0.071  23.220  0.00  0.00    +0.016 C 
ATOM      8  C   UNL     1       1.540   0.199  22.900  0.00  0.00    +0.006 C 
ATOM      9  C   UNL     1      -0.663   1.434  23.033  0.00  0.00    +0.112 C 
ATOM     10  C   UNL     1       2.190   1.344  23.695  0.00  0.00    +0.023 C 
ATOM     11  C   UNL     1       1.429   2.654  23.507  0.00  0.00    +0.108 C 
ATOM     14  C   UNL     1      -0.606   3.311  24.749  0.00  0.00    +0.219 C 
ENDROOT
BRANCH  14  12
ATOM     12  C   UNL     1      -2.063   3.073  25.004  0.00  0.00    +0.075 C 
ATOM     16  C   UNL     1      -2.904   3.657  23.864  0.00  0.00    +0.013 C 
ATOM     17  C   UNL     1      -2.513   3.789  26.278  0.00  0.00    +0.013 C 
ATOM     18  C   UNL     1      -3.887   4.621  24.523  0.00  0.00    +0.001 C 
ATOM     19  C   UNL     1      -3.175   5.068  25.787  0.00  0.00    +0.001 C 
ENDBRANCH  14  12
BRANCH   7  13
ATOM     13  C   UNL     1      -0.268  -0.491  24.616  0.00  0.00    +0.061 C 
BRANCH  13  20
ATOM      6  N   UNL     1      -1.447  -2.570  24.384  0.00  0.00    -0.287 NA
ATOM     20  C   UNL     1      -1.543  -1.296  24.585  0.00  0.00    +0.044 C 
ATOM     22  C   UNL     1      -2.839  -0.595  24.776  0.00  0.00    -0.001 A 
ATOM     23  C   UNL     1      -3.992  -1.274  24.364  0.00  0.00    -0.033 A 
ATOM     24  C   UNL     1      -2.682  -3.361  24.414  0.00  0.00    +0.146 C 
ATOM     25  C   UNL     1      -3.846  -2.636  23.753  0.00  0.00    +0.059 C 
ATOM     26  C   UNL     1      -2.929   0.687  25.324  0.00  0.00    +0.013 A 
ATOM     27  C   UNL     1      -5.238  -0.652  24.480  0.00  0.00    +0.050 A 
ATOM     28  C   UNL     1      -4.179   1.294  25.451  0.00  0.00    +0.046 A 
ATOM     29  C   UNL     1      -5.330   0.629  25.028  0.00  0.00    +0.120 A 
BRANCH  29   4
ATOM      4  O   UNL     1      -6.545   1.231  25.147  0.00  0.00    -0.495 OA
ATOM     30  C   UNL     1      -6.588   2.472  25.848  0.00  0.00    +0.277 C 
ENDBRANCH  29   4
ENDBRANCH  13  20
ENDBRANCH   7  13
BRANCH   8  15
ATOM     15  C   UNL     1       2.311  -1.104  23.105  0.00  0.00    +0.124 C 
BRANCH  15  21
ATOM      3  O   UNL     1       4.441   0.043  22.807  0.00  0.00    -0.251 OA
ATOM     21  C   UNL     1       3.779  -0.854  23.308  0.00  0.00    +0.305 C 
BRANCH  21   2
ATOM      2  O   UNL     1       4.291  -1.790  24.149  0.00  0.00    -0.481 OA
ATOM     31  H   UNL     1       5.236  -1.624  24.348  0.00  0.00    +0.295 HD
ENDBRANCH  21   2
ENDBRANCH  15  21
ENDBRANCH   8  15
TORSDOF 7
ENDMDL
MODEL 3
REMARK VINA RESULT:       2.3      1.716      7.461
REMARK  Name = 51136667
REMARK  8 active torsions:
REMARK  status: ('A' for Active; 'I' for Inactive)
REMARK    1  A    between atoms: O_2  and  C_21
REMARK    2  A    between atoms: O_4  and  C_29
REMARK    3  A    between atoms: O_4  and  C_30
REMARK    4  A    between atoms: C_7  and  C_13
REMARK    5  A    between atoms: C_8  and  C_15
REMARK    6  A    between atoms: C_12  and  C_14
REMARK    7  A    between atoms: C_13  and  C_20
REMARK    8  A    between atoms: C_15  and  C_21
REMARK                            x       y       z     vdW  Elec       q    Type
REMARK                         _______ _______ _______ _____ _____    ______ ____
ROOT
ATOM      1  O   UNL     1      -3.917   4.704  24.346  0.00  0.00    -0.275 OA
ATOM      5  N   UNL     1      -3.853   2.550  25.215  0.00  0.00    -0.301 N 
ATOM      7  C   UNL     1      -3.030   0.206  25.182  0.00  0.00    +0.016 C 
ATOM      8  C   UNL     1      -4.395  -0.226  24.588  0.00  0.00    +0.006 C 
ATOM      9  C   UNL     1      -3.203   1.497  26.004  0.00  0.00    +0.112 C 
ATOM     10  C   UNL     1      -5.063   0.923  23.814  0.00  0.00    +0.023 C 
ATOM     11  C   UNL     1      -5.158   2.186  24.666  0.00  0.00    +0.108 C 
ATOM     14  C   UNL     1      -3.338   3.827  24.992  0.00  0.00    +0.219 C 
ENDROOT
BRANCH  14  12
ATOM     12  C   UNL     1      -1.994   4.122  25.585  0.00  0.00    +0.075 C 
ATOM     16  C   UNL     1      -1.503   5.500  25.127  0.00  0.00    +0.013 C 
ATOM     17  C   UNL     1      -0.954   3.113  25.097  0.00  0.00    +0.013 C 
ATOM     18  C   UNL     1      -0.144   5.263  24.475  0.00  0.00    +0.001 C 
ATOM     19  C   UNL     1      -0.218   3.832  23.974  0.00  0.00    +0.001 C 
ENDBRANCH  14  12
BRANCH   7  13
ATOM     13  C   UNL     1      -1.922   0.385  24.136  0.00  0.00    +0.061 C 
BRANCH  13  20
ATOM      6  N   UNL     1      -1.249  -1.799  24.875  0.00  0.00    -0.287 NA
ATOM     20  C   UNL     1      -0.888  -0.703  24.293  0.00  0.00    +0.044 C 
ATOM     22  C   UNL     1       0.487  -0.463  23.783  0.00  0.00    -0.001 A 
ATOM     23  C   UNL     1       1.497  -1.299  24.275  0.00  0.00    -0.033 A 
ATOM     24  C   UNL     1      -0.261  -2.879  24.974  0.00  0.00    +0.146 C 
ATOM     25  C   UNL     1       1.135  -2.353  25.278  0.00  0.00    +0.059 C 
ATOM     26  C   UNL     1       0.786   0.549  22.870  0.00  0.00    +0.013 A 
ATOM     27  C   UNL     1       2.819  -1.099  23.865  0.00  0.00    +0.050 A 
ATOM     28  C   UNL     1       2.106   0.731  22.454  0.00  0.00    +0.046 A 
ATOM     29  C   UNL     1       3.120  -0.088  22.952  0.00  0.00    +0.120 A 
BRANCH  29   4
ATOM      4  O   UNL     1       4.406   0.102  22.548  0.00  0.00    -0.495 OA
ATOM     30  C   UNL     1       5.420   0.003  23.546  0.00  0.00    +0.277 C 
ENDBRANCH  29   4
ENDBRANCH  13  20
ENDBRANCH   7  13
BRANCH   8  15
ATOM     15  C   UNL     1      -4.302  -1.479  23.718  0.00  0.00    +0.124 C 
BRANCH  15  21
ATOM      3  O   UNL     1      -3.773  -3.826  24.108  0.00  0.00    -0.251 OA
ATOM     21  C   UNL     1      -3.923  -2.688  24.527  0.00  0.00    +0.305 C 
BRANCH  21   2
ATOM      2  O   UNL     1      -3.764  -2.337  25.829  0.00  0.00    -0.481 OA
ATOM     31  H   UNL     1      -4.403  -2.799  26.413  0.00  0.00    +0.295 HD
ENDBRANCH  21   2
ENDBRANCH  15  21
ENDBRANCH   8  15
TORSDOF 7
ENDMDL
MODEL 4
REMARK VINA RESULT:       3.5      1.683      5.318
REMARK  Name = 51136667
REMARK  8 active torsions:
REMARK  status: ('A' for Active; 'I' for Inactive)
REMARK    1  A    between atoms: O_2  and  C_21
REMARK    2  A    between atoms: O_4  and  C_29
REMARK    3  A    between atoms: O_4  and  C_30
REMARK    4  A    between atoms: C_7  and  C_13
REMARK    5  A    between atoms: C_8  and  C_15
REMARK    6  A    between atoms: C_12  and  C_14
REMARK    7  A    between atoms: C_13  and  C_20
REMARK    8  A    between atoms: C_15  and  C_21
REMARK                            x       y       z     vdW  Elec       q    Type
REMARK                         _______ _______ _______ _____ _____    ______ ____
ROOT
ATOM      1  O   UNL     1      -2.934   4.903  26.155  0.00  0.00    -0.275 OA
ATOM      5  N   UNL     1      -2.016   3.445  24.597  0.00  0.00    -0.301 N 
ATOM      7  C   UNL     1      -0.755   1.386  24.010  0.00  0.00    +0.016 C 
ATOM      8  C   UNL     1       0.476   2.274  23.695  0.00  0.00    +0.006 C 
ATOM      9  C   UNL     1      -2.048   2.199  23.820  0.00  0.00    +0.112 C 
ATOM     10  C   UNL     1       0.442   3.590  24.491  0.00  0.00    +0.023 C 
ATOM     11  C   UNL     1      -0.884   4.321  24.299  0.00  0.00    +0.108 C 
ATOM     14  C   UNL     1      -2.971   3.837  25.534  0.00  0.00    +0.219 C 
ENDROOT
BRANCH  14  12
ATOM     12  C   UNL     1      -4.099   2.884  25.785  0.00  0.00    +0.075 C 
ATOM     16  C   UNL     1      -4.701   2.412  24.458  0.00  0.00    +0.013 C 
ATOM     17  C   UNL     1      -5.230   3.574  26.547  0.00  0.00    +0.013 C 
ATOM     18  C   UNL     1      -6.186   2.751  24.529  0.00  0.00    +0.001 C 
ATOM     19  C   UNL     1      -6.250   3.936  25.476  0.00  0.00    +0.001 C 
ENDBRANCH  14  12
BRANCH   7  13
ATOM     13  C   UNL     1      -0.725   0.751  25.407  0.00  0.00    +0.061 C 
BRANCH  13  20
ATOM      6  N   UNL     1       0.109  -1.493  25.600  0.00  0.00    -0.287 NA
ATOM     20  C   UNL     1      -0.899  -0.744  25.295  0.00  0.00    +0.044 C 
ATOM     22  C   UNL     1      -2.206  -1.280  24.836  0.00  0.00    -0.001 A 
ATOM     23  C   UNL     1      -2.220  -2.603  24.376  0.00  0.00    -0.033 A 
ATOM     24  C   UNL     1      -0.079  -2.946  25.548  0.00  0.00    +0.146 C 
ATOM     25  C   UNL     1      -0.934  -3.374  24.363  0.00  0.00    +0.059 C 
ATOM     26  C   UNL     1      -3.376  -0.518  24.838  0.00  0.00    +0.013 A 
ATOM     27  C   UNL     1      -3.410  -3.153  23.893  0.00  0.00    +0.050 A 
ATOM     28  C   UNL     1      -4.564  -1.082  24.369  0.00  0.00    +0.046 A 
ATOM     29  C   UNL     1      -4.581  -2.394  23.895  0.00  0.00    +0.120 A 
BRANCH  29   4
ATOM      4  O   UNL     1      -5.742  -2.934  23.431  0.00  0.00    -0.495 OA
ATOM     30  C   UNL     1      -5.631  -4.059  22.561  0.00  0.00    +0.277 C 
ENDBRANCH  29   4
ENDBRANCH  13  20
ENDBRANCH   7  13
BRANCH   8  15
ATOM     15  C   UNL     1       1.807   1.552  23.904  0.00  0.00    +0.124 C 
BRANCH  15  21
ATOM      3  O   UNL     1       1.329  -0.326  22.425  0.00  0.00    -0.251 OA
ATOM     21  C   UNL     1       2.078   0.561  22.806  0.00  0.00    +0.305 C 
BRANCH  21   2
ATOM      2  O   UNL     1       3.308   0.790  22.276  0.00  0.00    -0.481 OA
ATOM     31  H   UNL     1       3.310   1.570  21.683  0.00  0.00    +0.295 HD
ENDBRANCH  21   2
ENDBRANCH  15  21
ENDBRANCH   8  15
TORSDOF 7
ENDMDL
MODEL 5
REMARK VINA RESULT:       4.0      2.116      6.176
REMARK  Name = 51136667
REMARK  8 active torsions:
REMARK  status: ('A' for Active; 'I' for Inactive)
REMARK    1  A    between atoms: O_2  and  C_21
REMARK    2  A    between atoms: O_4  and  C_29
REMARK    3  A    between atoms: O_4  and  C_30
REMARK    4  A    between atoms: C_7  and  C_13
REMARK    5  A    between atoms: C_8  and  C_15
REMARK    6  A    between atoms: C_12  and  C_14
REMARK    7  A    between atoms: C_13  and  C_20
REMARK    8  A    between atoms: C_15  and  C_21
REMARK                            x       y       z     vdW  Elec       q    Type
REMARK                         _______ _______ _______ _____ _____    ______ ____
ROOT
ATOM      1  O   UNL     1      -5.216  -0.123  25.815  0.00  0.00    -0.275 OA
ATOM      5  N   UNL     1      -4.153   1.488  24.522  0.00  0.00    -0.301 N 
ATOM      7  C   UNL     1      -2.174   2.883  23.963  0.00  0.00    +0.016 C 
ATOM      8  C   UNL     1      -2.881   4.089  24.631  0.00  0.00    +0.006 C 
ATOM      9  C   UNL     1      -3.223   1.878  23.454  0.00  0.00    +0.112 C 
ATOM     10  C   UNL     1      -3.882   3.632  25.707  0.00  0.00    +0.023 C 
ATOM     11  C   UNL     1      -4.861   2.601  25.152  0.00  0.00    +0.108 C 
ATOM     14  C   UNL     1      -4.410   0.180  24.931  0.00  0.00    +0.219 C 
ENDROOT
BRANCH  14  12
ATOM     12  C   UNL     1      -3.642  -0.904  24.239  0.00  0.00    +0.075 C 
ATOM     16  C   UNL     1      -4.603  -1.898  23.579  0.00  0.00    +0.013 C 
ATOM     17  C   UNL     1      -2.817  -1.709  25.244  0.00  0.00    +0.013 C 
ATOM     18  C   UNL     1      -4.241  -3.267  24.147  0.00  0.00    +0.001 C 
ATOM     19  C   UNL     1      -3.646  -2.958  25.508  0.00  0.00    +0.001 C 
ENDBRANCH  14  12
BRANCH   7  13
ATOM     13  C   UNL     1      -1.155   2.178  24.867  0.00  0.00    +0.061 C 
BRANCH  13  20
ATOM      6  N   UNL     1      -1.420  -0.058  24.032  0.00  0.00    -0.287 NA
ATOM     20  C   UNL     1      -0.621   0.947  24.176  0.00  0.00    +0.044 C 
ATOM     22  C   UNL     1       0.788   0.945  23.705  0.00  0.00    -0.001 A 
ATOM     23  C   UNL     1       1.361  -0.304  23.432  0.00  0.00    -0.033 A 
ATOM     24  C   UNL     1      -0.920  -1.231  23.307  0.00  0.00    +0.146 C 
ATOM     25  C   UNL     1       0.534  -1.537  23.643  0.00  0.00    +0.059 C 
ATOM     26  C   UNL     1       1.533   2.115  23.550  0.00  0.00    +0.013 A 
ATOM     27  C   UNL     1       2.696  -0.377  23.025  0.00  0.00    +0.050 A 
ATOM     28  C   UNL     1       2.861   2.034  23.126  0.00  0.00    +0.046 A 
ATOM     29  C   UNL     1       3.442   0.792  22.868  0.00  0.00    +0.120 A 
BRANCH  29   4
ATOM      4  O   UNL     1       4.740   0.720  22.464  0.00  0.00    -0.495 OA
ATOM     30  C   UNL     1       5.647   0.027  23.318  0.00  0.00    +0.277 C 
ENDBRANCH  29   4
ENDBRANCH  13  20
ENDBRANCH   7  13
BRANCH   8  15
ATOM     15  C   UNL     1      -1.905   5.116  25.205  0.00  0.00    +0.124 C 
BRANCH  15  21
ATOM      3  O   UNL     1      -0.104   5.225  23.567  0.00  0.00    -0.251 OA
ATOM     21  C   UNL     1      -0.513   4.913  24.675  0.00  0.00    +0.305 C 
BRANCH  21   2
ATOM      2  O   UNL     1       0.256   4.318  25.623  0.00  0.00    -0.481 OA
ATOM     31  H   UNL     1       1.208   4.346  25.392  0.00  0.00    +0.295 HD
ENDBRANCH  21   2
ENDBRANCH  15  21
ENDBRANCH   8  15
TORSDOF 7
ENDMDL
MODEL 6
REMARK VINA RESULT:       4.1      2.139      2.563
REMARK  Name = 51136667
REMARK  8 active torsions:
REMARK  status: ('A' for Active; 'I' for Inactive)
REMARK    1  A    between atoms: O_2  and  C_21
REMARK    2  A    between atoms: O_4  and  C_29
REMARK    3  A    between atoms: O_4  and  C_30
REMARK    4  A    between atoms: C_7  and  C_13
REMARK    5  A    between atoms: C_8  and  C_15
REMARK    6  A    between atoms: C_12  and  C_14
REMARK    7  A    between atoms: C_13  and  C_20
REMARK    8  A    between atoms: C_15  and  C_21
REMARK                            x       y       z     vdW  Elec       q    Type
REMARK                         _______ _______ _______ _____ _____    ______ ____
ROOT
ATOM      1  O   UNL     1      -1.072  -3.080  23.691  0.00  0.00    -0.275 OA
ATOM      5  N   UNL     1      -0.800  -1.007  24.705  0.00  0.00    -0.301 N 
ATOM      7  C   UNL     1      -1.154   1.451  24.781  0.00  0.00    +0.016 C 
ATOM      8  C   UNL     1       0.315   1.640  24.323  0.00  0.00    +0.006 C 
ATOM      9  C   UNL     1      -1.304   0.107  25.518  0.00  0.00    +0.112 C 
ATOM     10  C   UNL     1       0.816   0.427  23.520  0.00  0.00    +0.023 C 
ATOM     11  C   UNL     1       0.594  -0.875  24.284  0.00  0.00    +0.108 C 
ATOM     14  C   UNL     1      -1.528  -2.143  24.353  0.00  0.00    +0.219 C 
ENDROOT
BRANCH  14  12
ATOM     12  C   UNL     1      -2.950  -2.203  24.820  0.00  0.00    +0.075 C 
ATOM     16  C   UNL     1      -3.469  -3.643  24.761  0.00  0.00    +0.013 C 
ATOM     17  C   UNL     1      -3.856  -1.382  23.901  0.00  0.00    +0.013 C 
ATOM     18  C   UNL     1      -4.721  -3.599  23.889  0.00  0.00    +0.001 C 
ATOM     19  C   UNL     1      -4.494  -2.409  22.975  0.00  0.00    +0.001 C 
ENDBRANCH  14  12
BRANCH   7  13
ATOM     13  C   UNL     1      -2.179   1.552  23.644  0.00  0.00    +0.061 C 
BRANCH  13  20
ATOM      6  N   UNL     1      -3.014   3.794  23.434  0.00  0.00    -0.287 NA
ATOM     20  C   UNL     1      -3.191   2.627  23.960  0.00  0.00    +0.044 C 
ATOM     22  C   UNL     1      -4.328   2.299  24.858  0.00  0.00    -0.001 A 
ATOM     23  C   UNL     1      -5.009   3.378  25.434  0.00  0.00    -0.033 A 
ATOM     24  C   UNL     1      -4.029   4.821  23.692  0.00  0.00    +0.146 C 
ATOM     25  C   UNL     1      -4.546   4.771  25.124  0.00  0.00    +0.059 C 
ATOM     26  C   UNL     1      -4.709   0.987  25.144  0.00  0.00    +0.013 A 
ATOM     27  C   UNL     1      -6.063   3.136  26.320  0.00  0.00    +0.050 A 
ATOM     28  C   UNL     1      -5.773   0.755  26.017  0.00  0.00    +0.046 A 
ATOM     29  C   UNL     1      -6.446   1.825  26.606  0.00  0.00    +0.120 A 
BRANCH  29   4
ATOM      4  O   UNL     1      -7.477   1.591  27.464  0.00  0.00    -0.495 OA
ATOM     30  C   UNL     1      -7.292   0.562  28.433  0.00  0.00    +0.277 C 
ENDBRANCH  29   4
ENDBRANCH  13  20
ENDBRANCH   7  13
BRANCH   8  15
ATOM     15  C   UNL     1       0.539   2.933  23.542  0.00  0.00    +0.124 C 
BRANCH  15  21
ATOM      3  O   UNL     1      -0.354   4.175  25.440  0.00  0.00    -0.251 OA
ATOM     21  C   UNL     1      -0.033   4.123  24.262  0.00  0.00    +0.305 C 
BRANCH  21   2
ATOM      2  O   UNL     1      -0.150   5.167  23.401  0.00  0.00    -0.481 OA
ATOM     31  H   UNL     1       0.228   4.959  22.521  0.00  0.00    +0.295 HD
ENDBRANCH  21   2
ENDBRANCH  15  21
ENDBRANCH   8  15
TORSDOF 7
ENDMDL
MODEL 7
REMARK VINA RESULT:       4.2      2.540      5.075
REMARK  Name = 51136667
REMARK  8 active torsions:
REMARK  status: ('A' for Active; 'I' for Inactive)
REMARK    1  A    between atoms: O_2  and  C_21
REMARK    2  A    between atoms: O_4  and  C_29
REMARK    3  A    between atoms: O_4  and  C_30
REMARK    4  A    between atoms: C_7  and  C_13
REMARK    5  A    between atoms: C_8  and  C_15
REMARK    6  A    between atoms: C_12  and  C_14
REMARK    7  A    between atoms: C_13  and  C_20
REMARK    8  A    between atoms: C_15  and  C_21
REMARK                            x       y       z     vdW  Elec       q    Type
REMARK                         _______ _______ _______ _____ _____    ______ ____
ROOT
ATOM      1  O   UNL     1      -0.432   2.271  26.802  0.00  0.00    -0.275 OA
ATOM      5  N   UNL     1      -0.406   0.710  25.081  0.00  0.00    -0.301 N 
ATOM      7  C   UNL     1      -1.554  -0.889  23.565  0.00  0.00    +0.016 C 
ATOM      8  C   UNL     1      -1.008  -2.049  24.436  0.00  0.00    +0.006 C 
ATOM      9  C   UNL     1      -0.624   0.332  23.679  0.00  0.00    +0.112 C 
ATOM     10  C   UNL     1      -0.747  -1.595  25.883  0.00  0.00    +0.023 C 
ATOM     11  C   UNL     1       0.140  -0.353  25.923  0.00  0.00    +0.108 C 
ATOM     14  C   UNL     1      -0.648   1.971  25.624  0.00  0.00    +0.219 C 
ENDROOT
BRANCH  14  12
ATOM     12  C   UNL     1      -1.210   3.006  24.698  0.00  0.00    +0.075 C 
ATOM     16  C   UNL     1      -0.120   3.523  23.754  0.00  0.00    +0.013 C 
ATOM     17  C   UNL     1      -1.708   4.221  25.482  0.00  0.00    +0.013 C 
ATOM     18  C   UNL     1      -0.085   5.036  23.945  0.00  0.00    +0.001 C 
ATOM     19  C   UNL     1      -0.585   5.242  25.363  0.00  0.00    +0.001 C 
ENDBRANCH  14  12
BRANCH   7  13
ATOM     13  C   UNL     1      -2.999  -0.490  23.892  0.00  0.00    +0.061 C 
BRANCH  13  20
ATOM      6  N   UNL     1      -2.836   1.096  22.097  0.00  0.00    -0.287 NA
ATOM     20  C   UNL     1      -3.315   0.848  23.271  0.00  0.00    +0.044 C 
ATOM     22  C   UNL     1      -4.148   1.813  24.034  0.00  0.00    -0.001 A 
ATOM     23  C   UNL     1      -4.100   3.151  23.624  0.00  0.00    -0.033 A 
ATOM     24  C   UNL     1      -3.192   2.373  21.468  0.00  0.00    +0.146 C 
ATOM     25  C   UNL     1      -3.216   3.520  22.470  0.00  0.00    +0.059 C 
ATOM     26  C   UNL     1      -4.936   1.434  25.122  0.00  0.00    +0.013 A 
ATOM     27  C   UNL     1      -4.830   4.115  24.326  0.00  0.00    +0.050 A 
ATOM     28  C   UNL     1      -5.674   2.401  25.807  0.00  0.00    +0.046 A 
ATOM     29  C   UNL     1      -5.619   3.738  25.413  0.00  0.00    +0.120 A 
BRANCH  29   4
ATOM      4  O   UNL     1      -6.335   4.676  26.091  0.00  0.00    -0.495 OA
ATOM     30  C   UNL     1      -6.662   5.874  25.390  0.00  0.00    +0.277 C 
ENDBRANCH  29   4
ENDBRANCH  13  20
ENDBRANCH   7  13
BRANCH   8  15
ATOM     15  C   UNL     1      -1.902  -3.289  24.414  0.00  0.00    +0.124 C 
BRANCH  15  21
ATOM      3  O   UNL     1      -3.619  -2.513  25.960  0.00  0.00    -0.251 OA
ATOM     21  C   UNL     1      -3.298  -2.974  24.876  0.00  0.00    +0.305 C 
BRANCH  21   2
ATOM      2  O   UNL     1      -4.185  -3.282  23.894  0.00  0.00    -0.481 OA
ATOM     31  H   UNL     1      -4.068  -4.200  23.571  0.00  0.00    +0.295 HD
ENDBRANCH  21   2
ENDBRANCH  15  21
ENDBRANCH   8  15
TORSDOF 7
ENDMDL
MODEL 8
REMARK VINA RESULT:       4.2      1.624      5.160
REMARK  Name = 51136667
REMARK  8 active torsions:
REMARK  status: ('A' for Active; 'I' for Inactive)
REMARK    1  A    between atoms: O_2  and  C_21
REMARK    2  A    between atoms: O_4  and  C_29
REMARK    3  A    between atoms: O_4  and  C_30
REMARK    4  A    between atoms: C_7  and  C_13
REMARK    5  A    between atoms: C_8  and  C_15
REMARK    6  A    between atoms: C_12  and  C_14
REMARK    7  A    between atoms: C_13  and  C_20
REMARK    8  A    between atoms: C_15  and  C_21
REMARK                            x       y       z     vdW  Elec       q    Type
REMARK                         _______ _______ _______ _____ _____    ______ ____
ROOT
ATOM      1  O   UNL     1       3.271  -1.823  24.275  0.00  0.00    -0.275 OA
ATOM      5  N   UNL     1       1.174  -1.119  23.564  0.00  0.00    -0.301 N 
ATOM      7  C   UNL     1      -0.904   0.208  23.871  0.00  0.00    +0.016 C 
ATOM      8  C   UNL     1      -1.635  -1.099  24.274  0.00  0.00    +0.006 C 
ATOM      9  C   UNL     1       0.287  -0.122  22.953  0.00  0.00    +0.112 C 
ATOM     10  C   UNL     1      -0.660  -2.133  24.862  0.00  0.00    +0.023 C 
ATOM     11  C   UNL     1       0.522  -2.376  23.927  0.00  0.00    +0.108 C 
ATOM     14  C   UNL     1       2.542  -0.958  23.782  0.00  0.00    +0.219 C 
ENDROOT
BRANCH  14  12
ATOM     12  C   UNL     1       3.135   0.360  23.387  0.00  0.00    +0.075 C 
ATOM     16  C   UNL     1       3.476   0.363  21.893  0.00  0.00    +0.013 C 
ATOM     17  C   UNL     1       4.451   0.604  24.127  0.00  0.00    +0.013 C 
ATOM     18  C   UNL     1       4.960   0.708  21.805  0.00  0.00    +0.001 C 
ATOM     19  C   UNL     1       5.532   0.224  23.125  0.00  0.00    +0.001 C 
ENDBRANCH  14  12
BRANCH   7  13
ATOM     13  C   UNL     1      -0.440   1.055  25.063  0.00  0.00    +0.061 C 
BRANCH  13  20
ATOM      6  N   UNL     1       0.074   3.336  24.511  0.00  0.00    -0.287 NA
ATOM     20  C   UNL     1      -0.845   2.495  24.857  0.00  0.00    +0.044 C 
ATOM     22  C   UNL     1      -2.265   2.877  25.067  0.00  0.00    -0.001 A 
ATOM     23  C   UNL     1      -2.532   4.239  25.251  0.00  0.00    -0.033 A 
ATOM     24  C   UNL     1      -0.330   4.722  24.254  0.00  0.00    +0.146 C 
ATOM     25  C   UNL     1      -1.386   5.206  25.239  0.00  0.00    +0.059 C 
ATOM     26  C   UNL     1      -3.301   1.941  25.100  0.00  0.00    +0.013 A 
ATOM     27  C   UNL     1      -3.843   4.659  25.493  0.00  0.00    +0.050 A 
ATOM     28  C   UNL     1      -4.609   2.371  25.326  0.00  0.00    +0.046 A 
ATOM     29  C   UNL     1      -4.880   3.725  25.526  0.00  0.00    +0.120 A 
BRANCH  29   4
ATOM      4  O   UNL     1      -6.157   4.136  25.755  0.00  0.00    -0.495 OA
ATOM     30  C   UNL     1      -6.487   5.469  25.373  0.00  0.00    +0.277 C 
ENDBRANCH  29   4
ENDBRANCH  13  20
ENDBRANCH   7  13
BRANCH   8  15
ATOM     15  C   UNL     1      -2.807  -0.863  25.225  0.00  0.00    +0.124 C 
BRANCH  15  21
ATOM      3  O   UNL     1      -5.069  -0.862  24.316  0.00  0.00    -0.251 OA
ATOM     21  C   UNL     1      -4.079  -1.467  24.698  0.00  0.00    +0.305 C 
BRANCH  21   2
ATOM      2  O   UNL     1      -3.979  -2.822  24.704  0.00  0.00    -0.481 OA
ATOM     31  H   UNL     1      -4.389  -3.222  23.908  0.00  0.00    +0.295 HD
ENDBRANCH  21   2
ENDBRANCH  15  21
ENDBRANCH   8  15
TORSDOF 7
ENDMDL
MODEL 9
REMARK VINA RESULT:       4.3      1.801      6.415
REMARK  Name = 51136667
REMARK  8 active torsions:
REMARK  status: ('A' for Active; 'I' for Inactive)
REMARK    1  A    between atoms: O_2  and  C_21
REMARK    2  A    between atoms: O_4  and  C_29
REMARK    3  A    between atoms: O_4  and  C_30
REMARK    4  A    between atoms: C_7  and  C_13
REMARK    5  A    between atoms: C_8  and  C_15
REMARK    6  A    between atoms: C_12  and  C_14
REMARK    7  A    between atoms: C_13  and  C_20
REMARK    8  A    between atoms: C_15  and  C_21
REMARK                            x       y       z     vdW  Elec       q    Type
REMARK                         _______ _______ _______ _____ _____    ______ ____
ROOT
ATOM      1  O   UNL     1      -6.848   2.162  24.418  0.00  0.00    -0.275 OA
ATOM      5  N   UNL     1      -5.305   0.628  25.234  0.00  0.00    -0.301 N 
ATOM      7  C   UNL     1      -3.117  -0.543  25.114  0.00  0.00    +0.016 C 
ATOM      8  C   UNL     1      -3.856  -1.791  24.568  0.00  0.00    +0.006 C 
ATOM      9  C   UNL     1      -4.078   0.300  25.971  0.00  0.00    +0.112 C 
ATOM     10  C   UNL     1      -5.161  -1.405  23.848  0.00  0.00    +0.023 C 
ATOM     11  C   UNL     1      -6.044  -0.530  24.733  0.00  0.00    +0.108 C 
ATOM     14  C   UNL     1      -5.799   1.914  25.020  0.00  0.00    +0.219 C 
ENDROOT
BRANCH  14  12
ATOM     12  C   UNL     1      -4.982   3.047  25.562  0.00  0.00    +0.075 C 
ATOM     16  C   UNL     1      -5.789   4.350  25.522  0.00  0.00    +0.013 C 
ATOM     17  C   UNL     1      -3.744   3.284  24.697  0.00  0.00    +0.013 C 
ATOM     18  C   UNL     1      -4.947   5.336  24.718  0.00  0.00    +0.001 C 
ATOM     19  C   UNL     1      -4.119   4.456  23.800  0.00  0.00    +0.001 C 
ENDBRANCH  14  12
BRANCH   7  13
ATOM     13  C   UNL     1      -2.471   0.325  24.026  0.00  0.00    +0.061 C 
BRANCH  13  20
ATOM      6  N   UNL     1      -1.380   1.774  25.600  0.00  0.00    -0.287 NA
ATOM     20  C   UNL     1      -1.238   1.001  24.574  0.00  0.00    +0.044 C 
ATOM     22  C   UNL     1       0.068   0.756  23.910  0.00  0.00    -0.001 A 
ATOM     23  C   UNL     1       1.094   1.670  24.179  0.00  0.00    -0.033 A 
ATOM     24  C   UNL     1      -0.173   2.383  26.169  0.00  0.00    +0.146 C 
ATOM     25  C   UNL     1       0.810   2.824  25.093  0.00  0.00    +0.059 C 
ATOM     26  C   UNL     1       0.283  -0.316  23.042  0.00  0.00    +0.013 A 
ATOM     27  C   UNL     1       2.335   1.518  23.553  0.00  0.00    +0.050 A 
ATOM     28  C   UNL     1       1.531  -0.469  22.434  0.00  0.00    +0.046 A 
ATOM     29  C   UNL     1       2.553   0.446  22.686  0.00  0.00    +0.120 A 
BRANCH  29   4
ATOM      4  O   UNL     1       3.764   0.296  22.083  0.00  0.00    -0.495 OA
ATOM     30  C   UNL     1       4.917   0.625  22.854  0.00  0.00    +0.277 C 
ENDBRANCH  29   4
ENDBRANCH  13  20
ENDBRANCH   7  13
BRANCH   8  15
ATOM     15  C   UNL     1      -2.982  -2.662  23.666  0.00  0.00    +0.124 C 
BRANCH  15  21
ATOM      3  O   UNL     1      -1.254  -2.576  25.384  0.00  0.00    -0.251 OA
ATOM     21  C   UNL     1      -1.612  -2.865  24.252  0.00  0.00    +0.305 C 
BRANCH  21   2
ATOM      2  O   UNL     1      -0.797  -3.431  23.325  0.00  0.00    -0.481 OA
ATOM     31  H   UNL     1      -1.259  -3.577  22.473  0.00  0.00    +0.295 HD
ENDBRANCH  21   2
ENDBRANCH  15  21
ENDBRANCH   8  15
TORSDOF 7
ENDMDL
MODEL 10
REMARK VINA RESULT:       4.3      1.777      6.156
REMARK  Name = 51136667
REMARK  8 active torsions:
REMARK  status: ('A' for Active; 'I' for Inactive)
REMARK    1  A    between atoms: O_2  and  C_21
REMARK    2  A    between atoms: O_4  and  C_29
REMARK    3  A    between atoms: O_4  and  C_30
REMARK    4  A    between atoms: C_7  and  C_13
REMARK    5  A    between atoms: C_8  and  C_15
REMARK    6  A    between atoms: C_12  and  C_14
REMARK    7  A    between atoms: C_13  and  C_20
REMARK    8  A    between atoms: C_15  and  C_21
REMARK                            x       y       z     vdW  Elec       q    Type
REMARK                         _______ _______ _______ _____ _____    ______ ____
ROOT
ATOM      1  O   UNL     1      -3.958  -2.398  25.374  0.00  0.00    -0.275 OA
ATOM      5  N   UNL     1      -4.330  -0.284  24.484  0.00  0.00    -0.301 N 
ATOM      7  C   UNL     1      -4.091   2.188  24.553  0.00  0.00    +0.016 C 
ATOM      8  C   UNL     1      -5.565   2.281  25.022  0.00  0.00    +0.006 C 
ATOM      9  C   UNL     1      -3.881   0.899  23.738  0.00  0.00    +0.112 C 
ATOM     10  C   UNL     1      -6.008   1.001  25.752  0.00  0.00    +0.023 C 
ATOM     11  C   UNL     1      -5.727  -0.242  24.912  0.00  0.00    +0.108 C 
ATOM     14  C   UNL     1      -3.549  -1.404  24.768  0.00  0.00    +0.219 C 
ENDROOT
BRANCH  14  12
ATOM     12  C   UNL     1      -2.126  -1.368  24.298  0.00  0.00    +0.075 C 
ATOM     16  C   UNL     1      -1.643  -2.783  23.962  0.00  0.00    +0.013 C 
ATOM     17  C   UNL     1      -1.204  -0.851  25.402  0.00  0.00    +0.013 C 
ATOM     18  C   UNL     1      -0.394  -3.008  24.809  0.00  0.00    +0.001 C 
ATOM     19  C   UNL     1      -0.595  -2.105  26.013  0.00  0.00    +0.001 C 
ENDBRANCH  14  12
BRANCH   7  13
ATOM     13  C   UNL     1      -3.068   2.270  25.693  0.00  0.00    +0.061 C 
BRANCH  13  20
ATOM      6  N   UNL     1      -2.139   4.477  25.508  0.00  0.00    -0.287 NA
ATOM     20  C   UNL     1      -1.952   3.213  25.315  0.00  0.00    +0.044 C 
ATOM     22  C   UNL     1      -0.704   2.651  24.736  0.00  0.00    -0.001 A 
ATOM     23  C   UNL     1       0.130   3.541  24.050  0.00  0.00    -0.033 A 
ATOM     24  C   UNL     1      -1.033   5.388  25.196  0.00  0.00    +0.146 C 
ATOM     25  C   UNL     1      -0.288   4.977  23.933  0.00  0.00    +0.059 C 
ATOM     26  C   UNL     1      -0.365   1.301  24.843  0.00  0.00    +0.013 A 
ATOM     27  C   UNL     1       1.299   3.067  23.447  0.00  0.00    +0.050 A 
ATOM     28  C   UNL     1       0.812   0.839  24.252  0.00  0.00    +0.046 A 
ATOM     29  C   UNL     1       1.640   1.718  23.554  0.00  0.00    +0.120 A 
BRANCH  29   4
ATOM      4  O   UNL     1       2.783   1.258  22.973  0.00  0.00    -0.495 OA
ATOM     30  C   UNL     1       2.712  -0.006  22.317  0.00  0.00    +0.277 C 
ENDBRANCH  29   4
ENDBRANCH  13  20
ENDBRANCH   7  13
BRANCH   8  15
ATOM     15  C   UNL     1      -5.848   3.514  25.878  0.00  0.00    +0.124 C 
BRANCH  15  21
ATOM      3  O   UNL     1      -4.830   5.032  24.265  0.00  0.00    -0.251 OA
ATOM     21  C   UNL     1      -5.698   4.784  25.087  0.00  0.00    +0.305 C 
BRANCH  21   2
ATOM      2  O   UNL     1      -6.691   5.650  25.420  0.00  0.00    -0.481 OA
ATOM     31  H   UNL     1      -6.794   5.731  26.392  0.00  0.00    +0.295 HD
ENDBRANCH  21   2
ENDBRANCH  15  21
ENDBRANCH   8  15
TORSDOF 7
ENDMDL
