MODEL 1
REMARK VINA RESULT:      -4.9      0.000      0.000
REMARK  Name = 45783945
REMARK  11 active torsions:
REMARK  status: ('A' for Active; 'I' for Inactive)
REMARK    1  A    between atoms: N_4  and  C_15
REMARK    2  A    between atoms: N_6  and  C_24
REMARK    3  A    between atoms: C_8  and  C_12
REMARK    4  A    between atoms: C_9  and  C_15
REMARK    5  A    between atoms: C_11  and  C_16
REMARK    6  A    between atoms: C_12  and  C_17
REMARK    7  A    between atoms: C_12  and  C_18
REMARK    8  A    between atoms: C_13  and  C_19
REMARK    9  A    between atoms: C_16  and  C_20
REMARK   10  A    between atoms: C_22  and  C_23
REMARK   11  A    between atoms: C_24  and  C_25
REMARK                            x       y       z     vdW  Elec       q    Type
REMARK                         _______ _______ _______ _____ _____    ______ ____
ROOT
ATOM      8  C   UNL     1      -2.381   2.181  23.679  0.00  0.00    +0.000 C 
ATOM      9  C   UNL     1      -0.929   2.715  23.768  0.00  0.00    +0.032 C 
ATOM     10  C   UNL     1      -3.358   3.334  23.403  0.00  0.00    +0.012 C 
ATOM     11  C   UNL     1      -3.303   4.419  24.495  0.00  0.00    +0.024 C 
ATOM     13  C   UNL     1      -1.878   4.807  24.831  0.00  0.00    -0.073 C 
ATOM     14  C   UNL     1      -0.828   4.040  24.487  0.00  0.00    -0.022 C 
ATOM     19  C   UNL     1      -1.681   6.122  25.534  0.00  0.00    +0.039 C 
ENDROOT
BRANCH   8  12
ATOM     12  C   UNL     1      -2.527   1.108  22.597  0.00  0.00    -0.013 C 
ATOM     17  C   UNL     1      -2.363   1.724  21.211  0.00  0.00    +0.007 C 
ATOM     18  C   UNL     1      -1.512  -0.010  22.814  0.00  0.00    +0.007 C 
ENDBRANCH   8  12
BRANCH   9  15
ATOM     15  C   UNL     1      -0.006   1.695  24.447  0.00  0.00    +0.113 C 
BRANCH  15   4
ATOM      3  O   UNL     1       1.672  -0.253  23.137  0.00  0.00    -0.253 OA
ATOM      4  N   UNL     1       1.346   1.872  24.020  0.00  0.00    -0.299 N 
ATOM      6  N   UNL     1       3.385   1.312  23.081  0.00  0.00    -0.300 N 
ATOM     21  C   UNL     1       2.099   0.873  23.389  0.00  0.00    +0.300 C 
ATOM     31  H   UNL     1       1.770   2.789  24.119  0.00  0.00    +0.150 HD
ATOM     32  H   UNL     1       3.653   2.256  23.340  0.00  0.00    +0.150 HD
BRANCH   6  24
ATOM     24  C   UNL     1       4.361   0.474  22.426  0.00  0.00    +0.102 C 
ATOM     25  C   UNL     1       5.420  -0.006  23.396  0.00  0.00    +0.024 C 
ENDBRANCH   6  24
ENDBRANCH  15   4
ENDBRANCH   9  15
BRANCH  11  16
ATOM     16  C   UNL     1      -4.063   3.978  25.751  0.00  0.00    +0.105 C 
BRANCH  16  20
ATOM      2  O   UNL     1      -3.925   1.578  25.327  0.00  0.00    -0.420 OA
ATOM      5  N   UNL     1      -6.013   2.351  25.547  0.00  0.00    -0.112 NA
ATOM      7  N   UNL     1      -6.084   0.991  25.314  0.00  0.00    -0.107 NA
ATOM     20  C   UNL     1      -4.735   2.650  25.548  0.00  0.00    +0.218 A 
ATOM     22  C   UNL     1      -4.843   0.582  25.191  0.00  0.00    +0.251 A 
BRANCH  22  23
ATOM      1  F   UNL     1      -2.969  -0.613  26.898  0.00  0.00    -0.205 F 
ATOM     23  C   UNL     1      -4.315  -0.728  24.941  0.00  0.00    +0.074 A 
ATOM     26  C   UNL     1      -3.382  -1.286  25.814  0.00  0.00    +0.136 A 
ATOM     27  C   UNL     1      -4.735  -1.442  23.819  0.00  0.00    +0.016 A 
ATOM     28  C   UNL     1      -2.870  -2.560  25.567  0.00  0.00    +0.039 A 
ATOM     29  C   UNL     1      -4.222  -2.715  23.571  0.00  0.00    +0.001 A 
ATOM     30  C   UNL     1      -3.290  -3.274  24.445  0.00  0.00    +0.003 A 
ENDBRANCH  22  23
ENDBRANCH  16  20
ENDBRANCH  11  16
TORSDOF 7
ENDMDL
MODEL 2
REMARK VINA RESULT:      -4.0      1.665      4.938
REMARK  Name = 45783945
REMARK  11 active torsions:
REMARK  status: ('A' for Active; 'I' for Inactive)
REMARK    1  A    between atoms: N_4  and  C_15
REMARK    2  A    between atoms: N_6  and  C_24
REMARK    3  A    between atoms: C_8  and  C_12
REMARK    4  A    between atoms: C_9  and  C_15
REMARK    5  A    between atoms: C_11  and  C_16
REMARK    6  A    between atoms: C_12  and  C_17
REMARK    7  A    between atoms: C_12  and  C_18
REMARK    8  A    between atoms: C_13  and  C_19
REMARK    9  A    between atoms: C_16  and  C_20
REMARK   10  A    between atoms: C_22  and  C_23
REMARK   11  A    between atoms: C_24  and  C_25
REMARK                            x       y       z     vdW  Elec       q    Type
REMARK                         _______ _______ _______ _____ _____    ______ ____
ROOT
ATOM      8  C   UNL     1      -1.238   0.362  24.691  0.00  0.00    +0.000 C 
ATOM      9  C   UNL     1      -0.423  -0.849  24.171  0.00  0.00    +0.032 C 
ATOM     10  C   UNL     1      -2.177  -0.073  25.826  0.00  0.00    +0.012 C 
ATOM     11  C   UNL     1      -3.163  -1.169  25.380  0.00  0.00    +0.024 C 
ATOM     13  C   UNL     1      -2.465  -2.277  24.618  0.00  0.00    -0.073 C 
ATOM     14  C   UNL     1      -1.235  -2.121  24.097  0.00  0.00    -0.022 C 
ATOM     19  C   UNL     1      -3.194  -3.587  24.508  0.00  0.00    +0.039 C 
ENDROOT
BRANCH   8  12
ATOM     12  C   UNL     1      -0.328   1.494  25.176  0.00  0.00    -0.013 C 
ATOM     17  C   UNL     1      -0.456   2.709  24.263  0.00  0.00    +0.007 C 
ATOM     18  C   UNL     1      -0.660   1.864  26.618  0.00  0.00    +0.007 C 
ENDBRANCH   8  12
BRANCH   9  15
ATOM     15  C   UNL     1       0.191  -0.554  22.798  0.00  0.00    +0.113 C 
BRANCH  15   4
ATOM      3  O   UNL     1       2.303   1.366  23.221  0.00  0.00    -0.253 OA
ATOM      4  N   UNL     1       1.596  -0.809  22.805  0.00  0.00    -0.299 N 
ATOM      6  N   UNL     1       3.856  -0.342  22.972  0.00  0.00    -0.300 N 
ATOM     21  C   UNL     1       2.565   0.180  23.018  0.00  0.00    +0.300 C 
ATOM     31  H   UNL     1       1.916  -1.769  22.715  0.00  0.00    +0.150 HD
ATOM     32  H   UNL     1       3.975  -1.331  22.784  0.00  0.00    +0.150 HD
BRANCH   6  24
ATOM     24  C   UNL     1       5.035   0.470  23.162  0.00  0.00    +0.102 C 
ATOM     25  C   UNL     1       5.826   0.023  24.374  0.00  0.00    +0.024 C 
ENDBRANCH   6  24
ENDBRANCH  15   4
ENDBRANCH   9  15
BRANCH  11  16
ATOM     16  C   UNL     1      -4.312  -0.577  24.556  0.00  0.00    +0.105 C 
BRANCH  16  20
ATOM      2  O   UNL     1      -3.747   1.798  24.519  0.00  0.00    -0.420 OA
ATOM      5  N   UNL     1      -5.584   1.311  25.699  0.00  0.00    -0.112 NA
ATOM      7  N   UNL     1      -5.385   2.677  25.763  0.00  0.00    -0.107 NA
ATOM     20  C   UNL     1      -4.606   0.839  24.963  0.00  0.00    +0.218 A 
ATOM     22  C   UNL     1      -4.302   2.916  25.061  0.00  0.00    +0.251 A 
BRANCH  22  23
ATOM      1  F   UNL     1      -2.316   3.938  26.754  0.00  0.00    -0.205 F 
ATOM     23  C   UNL     1      -3.627   4.150  24.781  0.00  0.00    +0.074 A 
ATOM     26  C   UNL     1      -2.645   4.625  25.650  0.00  0.00    +0.136 A 
ATOM     27  C   UNL     1      -3.956   4.876  23.636  0.00  0.00    +0.016 A 
ATOM     28  C   UNL     1      -1.991   5.826  25.375  0.00  0.00    +0.039 A 
ATOM     29  C   UNL     1      -3.303   6.078  23.361  0.00  0.00    +0.001 A 
ATOM     30  C   UNL     1      -2.321   6.552  24.230  0.00  0.00    +0.003 A 
ENDBRANCH  22  23
ENDBRANCH  16  20
ENDBRANCH  11  16
TORSDOF 7
ENDMDL
MODEL 3
REMARK VINA RESULT:      -3.7      2.220      5.676
REMARK  Name = 45783945
REMARK  11 active torsions:
REMARK  status: ('A' for Active; 'I' for Inactive)
REMARK    1  A    between atoms: N_4  and  C_15
REMARK    2  A    between atoms: N_6  and  C_24
REMARK    3  A    between atoms: C_8  and  C_12
REMARK    4  A    between atoms: C_9  and  C_15
REMARK    5  A    between atoms: C_11  and  C_16
REMARK    6  A    between atoms: C_12  and  C_17
REMARK    7  A    between atoms: C_12  and  C_18
REMARK    8  A    between atoms: C_13  and  C_19
REMARK    9  A    between atoms: C_16  and  C_20
REMARK   10  A    between atoms: C_22  and  C_23
REMARK   11  A    between atoms: C_24  and  C_25
REMARK                            x       y       z     vdW  Elec       q    Type
REMARK                         _______ _______ _______ _____ _____    ______ ____
ROOT
ATOM      8  C   UNL     1      -3.927   2.975  25.116  0.00  0.00    +0.000 C 
ATOM      9  C   UNL     1      -3.575   3.136  23.615  0.00  0.00    +0.032 C 
ATOM     10  C   UNL     1      -3.359   4.149  25.927  0.00  0.00    +0.012 C 
ATOM     11  C   UNL     1      -1.828   4.262  25.795  0.00  0.00    +0.024 C 
ATOM     13  C   UNL     1      -1.379   4.158  24.352  0.00  0.00    -0.073 C 
ATOM     14  C   UNL     1      -2.178   3.664  23.389  0.00  0.00    -0.022 C 
ATOM     19  C   UNL     1      -0.005   4.677  24.030  0.00  0.00    +0.039 C 
ENDROOT
BRANCH   8  12
ATOM     12  C   UNL     1      -5.440   2.876  25.337  0.00  0.00    -0.013 C 
ATOM     17  C   UNL     1      -5.753   1.835  26.407  0.00  0.00    +0.007 C 
ATOM     18  C   UNL     1      -6.012   4.236  25.723  0.00  0.00    +0.007 C 
ENDBRANCH   8  12
BRANCH   9  15
ATOM     15  C   UNL     1      -3.748   1.812  22.862  0.00  0.00    +0.113 C 
BRANCH  15   4
ATOM      3  O   UNL     1      -5.023  -0.526  23.974  0.00  0.00    -0.253 OA
ATOM      4  N   UNL     1      -3.117   0.741  23.567  0.00  0.00    -0.299 N 
ATOM      6  N   UNL     1      -2.951  -1.257  24.720  0.00  0.00    -0.300 N 
ATOM     21  C   UNL     1      -3.808  -0.365  24.080  0.00  0.00    +0.300 C 
ATOM     31  H   UNL     1      -2.105   0.743  23.648  0.00  0.00    +0.150 HD
ATOM     32  H   UNL     1      -1.962  -1.034  24.770  0.00  0.00    +0.150 HD
BRANCH   6  24
ATOM     24  C   UNL     1      -3.411  -2.480  25.335  0.00  0.00    +0.102 C 
ATOM     25  C   UNL     1      -3.612  -3.575  24.308  0.00  0.00    +0.024 C 
ENDBRANCH   6  24
ENDBRANCH  15   4
ENDBRANCH   9  15
BRANCH  11  16
ATOM     16  C   UNL     1      -1.119   3.220  26.667  0.00  0.00    +0.105 C 
BRANCH  16  20
ATOM      2  O   UNL     1       0.332   2.145  25.024  0.00  0.00    -0.420 OA
ATOM      5  N   UNL     1      -1.264   0.811  25.849  0.00  0.00    -0.112 NA
ATOM      7  N   UNL     1      -0.524   0.079  24.940  0.00  0.00    -0.107 NA
ATOM     20  C   UNL     1      -0.730   2.009  25.867  0.00  0.00    +0.218 A 
ATOM     22  C   UNL     1       0.395   0.897  24.483  0.00  0.00    +0.251 A 
BRANCH  22  23
ATOM      1  F   UNL     1       0.073  -0.839  22.307  0.00  0.00    -0.205 F 
ATOM     23  C   UNL     1       1.437   0.683  23.521  0.00  0.00    +0.074 A 
ATOM     26  C   UNL     1       1.238  -0.191  22.453  0.00  0.00    +0.136 A 
ATOM     27  C   UNL     1       2.655   1.351  23.659  0.00  0.00    +0.016 A 
ATOM     28  C   UNL     1       2.254  -0.396  21.520  0.00  0.00    +0.039 A 
ATOM     29  C   UNL     1       3.672   1.145  22.726  0.00  0.00    +0.001 A 
ATOM     30  C   UNL     1       3.471   0.272  21.658  0.00  0.00    +0.003 A 
ENDBRANCH  22  23
ENDBRANCH  16  20
ENDBRANCH  11  16
TORSDOF 7
ENDMDL
MODEL 4
REMARK VINA RESULT:      -3.6     14.111     15.486
REMARK  Name = 45783945
REMARK  11 active torsions:
REMARK  status: ('A' for Active; 'I' for Inactive)
REMARK    1  A    between atoms: N_4  and  C_15
REMARK    2  A    between atoms: N_6  and  C_24
REMARK    3  A    between atoms: C_8  and  C_12
REMARK    4  A    between atoms: C_9  and  C_15
REMARK    5  A    between atoms: C_11  and  C_16
REMARK    6  A    between atoms: C_12  and  C_17
REMARK    7  A    between atoms: C_12  and  C_18
REMARK    8  A    between atoms: C_13  and  C_19
REMARK    9  A    between atoms: C_16  and  C_20
REMARK   10  A    between atoms: C_22  and  C_23
REMARK   11  A    between atoms: C_24  and  C_25
REMARK                            x       y       z     vdW  Elec       q    Type
REMARK                         _______ _______ _______ _____ _____    ______ ____
ROOT
ATOM      8  C   UNL     1      -1.944  -9.639  13.279  0.00  0.00    +0.000 C 
ATOM      9  C   UNL     1      -1.173  -9.332  11.970  0.00  0.00    +0.032 C 
ATOM     10  C   UNL     1      -2.946 -10.781  13.054  0.00  0.00    +0.012 C 
ATOM     11  C   UNL     1      -3.970 -10.450  11.951  0.00  0.00    +0.024 C 
ATOM     13  C   UNL     1      -3.301  -9.884  10.715  0.00  0.00    -0.073 C 
ATOM     14  C   UNL     1      -2.046  -9.401  10.739  0.00  0.00    -0.022 C 
ATOM     19  C   UNL     1      -4.093  -9.927   9.437  0.00  0.00    +0.039 C 
ENDROOT
BRANCH   8  12
ATOM     12  C   UNL     1      -0.995 -10.000  14.425  0.00  0.00    -0.013 C 
ATOM     17  C   UNL     1      -0.188  -8.779  14.854  0.00  0.00    +0.007 C 
ATOM     18  C   UNL     1      -1.776 -10.572  15.604  0.00  0.00    +0.007 C 
ENDBRANCH   8  12
BRANCH   9  15
ATOM     15  C   UNL     1      -0.494  -7.959  12.038  0.00  0.00    +0.113 C 
BRANCH  15   4
ATOM      3  O   UNL     1       1.515  -5.943  12.516  0.00  0.00    -0.253 OA
ATOM      4  N   UNL     1       0.913  -8.078  11.820  0.00  0.00    -0.299 N 
ATOM      6  N   UNL     1       3.134  -7.432  11.777  0.00  0.00    -0.300 N 
ATOM     21  C   UNL     1       1.829  -7.049  12.077  0.00  0.00    +0.300 C 
ATOM     31  H   UNL     1       1.285  -8.975  11.524  0.00  0.00    +0.150 HD
ATOM     32  H   UNL     1       3.296  -8.362  11.405  0.00  0.00    +0.150 HD
BRANCH   6  24
ATOM     24  C   UNL     1       4.267  -6.555  11.953  0.00  0.00    +0.102 C 
ATOM     25  C   UNL     1       5.462  -7.298  12.515  0.00  0.00    +0.024 C 
ENDBRANCH   6  24
ENDBRANCH  15   4
ENDBRANCH   9  15
BRANCH  11  16
ATOM     16  C   UNL     1      -5.055  -9.500  12.472  0.00  0.00    +0.105 C 
BRANCH  16  20
ATOM      2  O   UNL     1      -6.852  -9.581  14.122  0.00  0.00    -0.420 OA
ATOM      5  N   UNL     1      -4.988 -10.648  14.745  0.00  0.00    -0.112 NA
ATOM      7  N   UNL     1      -5.913 -10.774  15.764  0.00  0.00    -0.107 NA
ATOM     20  C   UNL     1      -5.579  -9.946  13.808  0.00  0.00    +0.218 A 
ATOM     22  C   UNL     1      -6.985 -10.136  15.358  0.00  0.00    +0.251 A 
BRANCH  22  23
ATOM      1  F   UNL     1      -7.196  -9.725  18.122  0.00  0.00    -0.205 F 
ATOM     23  C   UNL     1      -8.251  -9.937  16.001  0.00  0.00    +0.074 A 
ATOM     26  C   UNL     1      -8.314  -9.738  17.380  0.00  0.00    +0.136 A 
ATOM     27  C   UNL     1      -9.423  -9.946  15.243  0.00  0.00    +0.016 A 
ATOM     28  C   UNL     1      -9.547  -9.545  18.002  0.00  0.00    +0.039 A 
ATOM     29  C   UNL     1     -10.657  -9.755  15.865  0.00  0.00    +0.001 A 
ATOM     30  C   UNL     1     -10.719  -9.555  17.244  0.00  0.00    +0.003 A 
ENDBRANCH  22  23
ENDBRANCH  16  20
ENDBRANCH  11  16
TORSDOF 7
ENDMDL
MODEL 5
REMARK VINA RESULT:      -2.0      2.124      7.009
REMARK  Name = 45783945
REMARK  11 active torsions:
REMARK  status: ('A' for Active; 'I' for Inactive)
REMARK    1  A    between atoms: N_4  and  C_15
REMARK    2  A    between atoms: N_6  and  C_24
REMARK    3  A    between atoms: C_8  and  C_12
REMARK    4  A    between atoms: C_9  and  C_15
REMARK    5  A    between atoms: C_11  and  C_16
REMARK    6  A    between atoms: C_12  and  C_17
REMARK    7  A    between atoms: C_12  and  C_18
REMARK    8  A    between atoms: C_13  and  C_19
REMARK    9  A    between atoms: C_16  and  C_20
REMARK   10  A    between atoms: C_22  and  C_23
REMARK   11  A    between atoms: C_24  and  C_25
REMARK                            x       y       z     vdW  Elec       q    Type
REMARK                         _______ _______ _______ _____ _____    ______ ____
ROOT
ATOM      8  C   UNL     1      -2.504   3.172  25.023  0.00  0.00    +0.000 C 
ATOM      9  C   UNL     1      -3.784   3.362  24.171  0.00  0.00    +0.032 C 
ATOM     10  C   UNL     1      -1.253   3.243  24.134  0.00  0.00    +0.012 C 
ATOM     11  C   UNL     1      -1.264   2.173  23.026  0.00  0.00    +0.024 C 
ATOM     13  C   UNL     1      -2.599   2.117  22.312  0.00  0.00    -0.073 C 
ATOM     14  C   UNL     1      -3.712   2.665  22.832  0.00  0.00    -0.022 C 
ATOM     19  C   UNL     1      -2.619   1.455  20.962  0.00  0.00    +0.039 C 
ENDROOT
BRANCH   8  12
ATOM     12  C   UNL     1      -2.405   4.214  26.141  0.00  0.00    -0.013 C 
ATOM     17  C   UNL     1      -2.081   5.587  25.561  0.00  0.00    +0.007 C 
ATOM     18  C   UNL     1      -3.702   4.260  26.943  0.00  0.00    +0.007 C 
ENDBRANCH   8  12
BRANCH   9  15
ATOM     15  C   UNL     1      -5.028   2.884  24.928  0.00  0.00    +0.113 C 
BRANCH  15   4
ATOM      3  O   UNL     1      -3.214   0.780  25.708  0.00  0.00    -0.253 OA
ATOM      4  N   UNL     1      -5.218   1.478  24.759  0.00  0.00    -0.299 N 
ATOM      6  N   UNL     1      -4.721  -0.778  24.879  0.00  0.00    -0.300 N 
ATOM     21  C   UNL     1      -4.286   0.514  25.165  0.00  0.00    +0.300 C 
ATOM     31  H   UNL     1      -6.102   1.149  24.382  0.00  0.00    +0.150 HD
ATOM     32  H   UNL     1      -5.616  -0.900  24.416  0.00  0.00    +0.150 HD
BRANCH   6  24
ATOM     24  C   UNL     1      -3.946  -1.953  25.198  0.00  0.00    +0.102 C 
ATOM     25  C   UNL     1      -3.596  -2.741  23.952  0.00  0.00    +0.024 C 
ENDBRANCH   6  24
ENDBRANCH  15   4
ENDBRANCH   9  15
BRANCH  11  16
ATOM     16  C   UNL     1      -0.881   0.797  23.582  0.00  0.00    +0.105 C 
BRANCH  16  20
ATOM      2  O   UNL     1       1.511   0.313  23.635  0.00  0.00    -0.420 OA
ATOM      5  N   UNL     1       0.501  -0.262  21.723  0.00  0.00    -0.112 NA
ATOM      7  N   UNL     1       1.839  -0.590  21.614  0.00  0.00    -0.107 NA
ATOM     20  C   UNL     1       0.355   0.261  22.917  0.00  0.00    +0.218 A 
ATOM     22  C   UNL     1       2.390  -0.237  22.752  0.00  0.00    +0.251 A 
BRANCH  22  23
ATOM      1  F   UNL     1       4.162   1.931  22.626  0.00  0.00    -0.205 F 
ATOM     23  C   UNL     1       3.747  -0.339  23.202  0.00  0.00    +0.074 A 
ATOM     26  C   UNL     1       4.598   0.762  23.120  0.00  0.00    +0.136 A 
ATOM     27  C   UNL     1       4.217  -1.547  23.719  0.00  0.00    +0.016 A 
ATOM     28  C   UNL     1       5.919   0.659  23.557  0.00  0.00    +0.039 A 
ATOM     29  C   UNL     1       5.538  -1.651  24.156  0.00  0.00    +0.001 A 
ATOM     30  C   UNL     1       6.388  -0.549  24.075  0.00  0.00    +0.003 A 
ENDBRANCH  22  23
ENDBRANCH  16  20
ENDBRANCH  11  16
TORSDOF 7
ENDMDL
MODEL 6
REMARK VINA RESULT:      -1.9      1.564      2.108
REMARK  Name = 45783945
REMARK  11 active torsions:
REMARK  status: ('A' for Active; 'I' for Inactive)
REMARK    1  A    between atoms: N_4  and  C_15
REMARK    2  A    between atoms: N_6  and  C_24
REMARK    3  A    between atoms: C_8  and  C_12
REMARK    4  A    between atoms: C_9  and  C_15
REMARK    5  A    between atoms: C_11  and  C_16
REMARK    6  A    between atoms: C_12  and  C_17
REMARK    7  A    between atoms: C_12  and  C_18
REMARK    8  A    between atoms: C_13  and  C_19
REMARK    9  A    between atoms: C_16  and  C_20
REMARK   10  A    between atoms: C_22  and  C_23
REMARK   11  A    between atoms: C_24  and  C_25
REMARK                            x       y       z     vdW  Elec       q    Type
REMARK                         _______ _______ _______ _____ _____    ______ ____
ROOT
ATOM      8  C   UNL     1      -1.804   2.495  23.583  0.00  0.00    +0.000 C 
ATOM      9  C   UNL     1      -0.443   1.770  23.736  0.00  0.00    +0.032 C 
ATOM     10  C   UNL     1      -1.713   3.926  24.134  0.00  0.00    +0.012 C 
ATOM     11  C   UNL     1      -1.310   3.954  25.621  0.00  0.00    +0.024 C 
ATOM     13  C   UNL     1      -0.130   3.045  25.900  0.00  0.00    -0.073 C 
ATOM     14  C   UNL     1       0.251   2.083  25.041  0.00  0.00    -0.022 C 
ATOM     19  C   UNL     1       0.632   3.296  27.172  0.00  0.00    +0.039 C 
ENDROOT
BRANCH   8  12
ATOM     12  C   UNL     1      -2.269   2.530  22.124  0.00  0.00    -0.013 C 
ATOM     17  C   UNL     1      -2.297   1.121  21.540  0.00  0.00    +0.007 C 
ATOM     18  C   UNL     1      -3.642   3.186  22.017  0.00  0.00    +0.007 C 
ENDBRANCH   8  12
BRANCH   9  15
ATOM     15  C   UNL     1      -0.607   0.252  23.596  0.00  0.00    +0.113 C 
BRANCH  15   4
ATOM      3  O   UNL     1       1.907   0.405  22.188  0.00  0.00    -0.253 OA
ATOM      4  N   UNL     1       0.608  -0.422  23.929  0.00  0.00    -0.299 N 
ATOM      6  N   UNL     1       2.822  -1.062  23.736  0.00  0.00    -0.300 N 
ATOM     21  C   UNL     1       1.793  -0.297  23.192  0.00  0.00    +0.300 C 
ATOM     31  H   UNL     1       0.639  -0.973  24.781  0.00  0.00    +0.150 HD
ATOM     32  H   UNL     1       2.631  -1.621  24.560  0.00  0.00    +0.150 HD
BRANCH   6  24
ATOM     24  C   UNL     1       4.148  -1.108  23.166  0.00  0.00    +0.102 C 
ATOM     25  C   UNL     1       4.908   0.176  23.425  0.00  0.00    +0.024 C 
ENDBRANCH   6  24
ENDBRANCH  15   4
ENDBRANCH   9  15
BRANCH  11  16
ATOM     16  C   UNL     1      -2.499   3.603  26.522  0.00  0.00    +0.105 C 
BRANCH  16  20
ATOM      2  O   UNL     1      -2.923   1.295  25.848  0.00  0.00    -0.420 OA
ATOM      5  N   UNL     1      -4.572   2.717  25.336  0.00  0.00    -0.112 NA
ATOM      7  N   UNL     1      -4.943   1.459  24.901  0.00  0.00    -0.107 NA
ATOM     20  C   UNL     1      -3.388   2.575  25.883  0.00  0.00    +0.218 A 
ATOM     22  C   UNL     1      -3.951   0.661  25.220  0.00  0.00    +0.251 A 
BRANCH  22  23
ATOM      1  F   UNL     1      -4.503  -0.552  22.755  0.00  0.00    -0.205 F 
ATOM     23  C   UNL     1      -3.786  -0.748  25.014  0.00  0.00    +0.074 A 
ATOM     26  C   UNL     1      -4.074  -1.314  23.772  0.00  0.00    +0.136 A 
ATOM     27  C   UNL     1      -3.339  -1.554  26.061  0.00  0.00    +0.016 A 
ATOM     28  C   UNL     1      -3.912  -2.685  23.576  0.00  0.00    +0.039 A 
ATOM     29  C   UNL     1      -3.179  -2.926  25.866  0.00  0.00    +0.001 A 
ATOM     30  C   UNL     1      -3.465  -3.491  24.623  0.00  0.00    +0.003 A 
ENDBRANCH  22  23
ENDBRANCH  16  20
ENDBRANCH  11  16
TORSDOF 7
ENDMDL
MODEL 7
REMARK VINA RESULT:      -1.8      2.251      5.523
REMARK  Name = 45783945
REMARK  11 active torsions:
REMARK  status: ('A' for Active; 'I' for Inactive)
REMARK    1  A    between atoms: N_4  and  C_15
REMARK    2  A    between atoms: N_6  and  C_24
REMARK    3  A    between atoms: C_8  and  C_12
REMARK    4  A    between atoms: C_9  and  C_15
REMARK    5  A    between atoms: C_11  and  C_16
REMARK    6  A    between atoms: C_12  and  C_17
REMARK    7  A    between atoms: C_12  and  C_18
REMARK    8  A    between atoms: C_13  and  C_19
REMARK    9  A    between atoms: C_16  and  C_20
REMARK   10  A    between atoms: C_22  and  C_23
REMARK   11  A    between atoms: C_24  and  C_25
REMARK                            x       y       z     vdW  Elec       q    Type
REMARK                         _______ _______ _______ _____ _____    ______ ____
ROOT
ATOM      8  C   UNL     1      -4.635   2.847  25.534  0.00  0.00    +0.000 C 
ATOM      9  C   UNL     1      -4.791   1.591  24.640  0.00  0.00    +0.032 C 
ATOM     10  C   UNL     1      -4.398   4.094  24.668  0.00  0.00    +0.012 C 
ATOM     11  C   UNL     1      -3.141   3.962  23.787  0.00  0.00    +0.024 C 
ATOM     13  C   UNL     1      -3.090   2.625  23.076  0.00  0.00    -0.073 C 
ATOM     14  C   UNL     1      -3.844   1.581  23.462  0.00  0.00    -0.022 C 
ATOM     19  C   UNL     1      -2.185   2.528  21.879  0.00  0.00    +0.039 C 
ENDROOT
BRANCH   8  12
ATOM     12  C   UNL     1      -5.858   3.063  26.430  0.00  0.00    -0.013 C 
ATOM     17  C   UNL     1      -6.639   4.291  25.977  0.00  0.00    +0.007 C 
ATOM     18  C   UNL     1      -6.748   1.824  26.425  0.00  0.00    +0.007 C 
ENDBRANCH   8  12
BRANCH   9  15
ATOM     15  C   UNL     1      -4.606   0.306  25.455  0.00  0.00    +0.113 C 
BRANCH  15   4
ATOM      3  O   UNL     1      -3.606  -2.339  24.875  0.00  0.00    -0.253 OA
ATOM      4  N   UNL     1      -3.240  -0.113  25.438  0.00  0.00    -0.299 N 
ATOM      6  N   UNL     1      -1.446  -1.555  25.201  0.00  0.00    -0.300 N 
ATOM     21  C   UNL     1      -2.832  -1.422  25.146  0.00  0.00    +0.300 C 
ATOM     31  H   UNL     1      -2.516   0.584  25.581  0.00  0.00    +0.150 HD
ATOM     32  H   UNL     1      -0.888  -0.744  25.447  0.00  0.00    +0.150 HD
BRANCH   6  24
ATOM     24  C   UNL     1      -0.769  -2.803  24.939  0.00  0.00    +0.102 C 
ATOM     25  C   UNL     1       0.673  -2.759  25.402  0.00  0.00    +0.024 C 
ENDBRANCH   6  24
ENDBRANCH  15   4
ENDBRANCH   9  15
BRANCH  11  16
ATOM     16  C   UNL     1      -1.866   4.196  24.605  0.00  0.00    +0.105 C 
BRANCH  16  20
ATOM      2  O   UNL     1      -0.097   2.718  23.802  0.00  0.00    -0.420 OA
ATOM      5  N   UNL     1      -1.140   1.985  25.640  0.00  0.00    -0.112 NA
ATOM      7  N   UNL     1      -0.172   1.059  25.300  0.00  0.00    -0.107 NA
ATOM     20  C   UNL     1      -1.060   2.936  24.740  0.00  0.00    +0.218 A 
ATOM     22  C   UNL     1       0.411   1.527  24.222  0.00  0.00    +0.251 A 
BRANCH  22  23
ATOM      1  F   UNL     1       0.051  -0.692  22.549  0.00  0.00    -0.205 F 
ATOM     23  C   UNL     1       1.481   0.989  23.433  0.00  0.00    +0.074 A 
ATOM     26  C   UNL     1       1.261  -0.118  22.614  0.00  0.00    +0.136 A 
ATOM     27  C   UNL     1       2.746   1.576  23.489  0.00  0.00    +0.016 A 
ATOM     28  C   UNL     1       2.304  -0.638  21.849  0.00  0.00    +0.039 A 
ATOM     29  C   UNL     1       3.790   1.055  22.725  0.00  0.00    +0.001 A 
ATOM     30  C   UNL     1       3.569  -0.052  21.905  0.00  0.00    +0.003 A 
ENDBRANCH  22  23
ENDBRANCH  16  20
ENDBRANCH  11  16
TORSDOF 7
ENDMDL
MODEL 8
REMARK VINA RESULT:      -1.6      2.521      4.910
REMARK  Name = 45783945
REMARK  11 active torsions:
REMARK  status: ('A' for Active; 'I' for Inactive)
REMARK    1  A    between atoms: N_4  and  C_15
REMARK    2  A    between atoms: N_6  and  C_24
REMARK    3  A    between atoms: C_8  and  C_12
REMARK    4  A    between atoms: C_9  and  C_15
REMARK    5  A    between atoms: C_11  and  C_16
REMARK    6  A    between atoms: C_12  and  C_17
REMARK    7  A    between atoms: C_12  and  C_18
REMARK    8  A    between atoms: C_13  and  C_19
REMARK    9  A    between atoms: C_16  and  C_20
REMARK   10  A    between atoms: C_22  and  C_23
REMARK   11  A    between atoms: C_24  and  C_25
REMARK                            x       y       z     vdW  Elec       q    Type
REMARK                         _______ _______ _______ _____ _____    ______ ____
ROOT
ATOM      8  C   UNL     1      -3.405   2.143  23.926  0.00  0.00    +0.000 C 
ATOM      9  C   UNL     1      -4.212   3.334  24.503  0.00  0.00    +0.032 C 
ATOM     10  C   UNL     1      -4.318   0.924  23.727  0.00  0.00    +0.012 C 
ATOM     11  C   UNL     1      -4.983   0.473  25.042  0.00  0.00    +0.024 C 
ATOM     13  C   UNL     1      -5.572   1.642  25.805  0.00  0.00    -0.073 C 
ATOM     14  C   UNL     1      -5.226   2.914  25.541  0.00  0.00    -0.022 C 
ATOM     19  C   UNL     1      -6.604   1.318  26.849  0.00  0.00    +0.039 C 
ENDROOT
BRANCH   8  12
ATOM     12  C   UNL     1      -2.727   2.504  22.602  0.00  0.00    -0.013 C 
ATOM     17  C   UNL     1      -2.366   1.241  21.827  0.00  0.00    +0.007 C 
ATOM     18  C   UNL     1      -3.630   3.409  21.769  0.00  0.00    +0.007 C 
ENDBRANCH   8  12
BRANCH   9  15
ATOM     15  C   UNL     1      -3.281   4.396  25.098  0.00  0.00    +0.113 C 
BRANCH  15   4
ATOM      3  O   UNL     1      -0.447   3.877  24.946  0.00  0.00    -0.253 OA
ATOM      4  N   UNL     1      -2.454   3.832  26.117  0.00  0.00    -0.299 N 
ATOM      6  N   UNL     1      -0.518   3.050  27.113  0.00  0.00    -0.300 N 
ATOM     21  C   UNL     1      -1.079   3.609  25.967  0.00  0.00    +0.300 C 
ATOM     31  H   UNL     1      -2.865   3.639  27.025  0.00  0.00    +0.150 HD
ATOM     32  H   UNL     1      -1.121   2.851  27.904  0.00  0.00    +0.150 HD
BRANCH   6  24
ATOM     24  C   UNL     1       0.885   2.723  27.218  0.00  0.00    +0.102 C 
ATOM     25  C   UNL     1       1.311   2.567  28.663  0.00  0.00    +0.024 C 
ENDBRANCH   6  24
ENDBRANCH  15   4
ENDBRANCH   9  15
BRANCH  11  16
ATOM     16  C   UNL     1      -3.999  -0.313  25.917  0.00  0.00    +0.105 C 
BRANCH  16  20
ATOM      2  O   UNL     1      -1.873  -0.141  24.729  0.00  0.00    -0.420 OA
ATOM      5  N   UNL     1      -2.805  -2.174  24.651  0.00  0.00    -0.112 NA
ATOM      7  N   UNL     1      -1.618  -2.221  23.945  0.00  0.00    -0.107 NA
ATOM     20  C   UNL     1      -2.913  -0.942  25.091  0.00  0.00    +0.218 A 
ATOM     22  C   UNL     1      -1.108  -1.013  24.017  0.00  0.00    +0.251 A 
BRANCH  22  23
ATOM      1  F   UNL     1       0.264   1.103  25.239  0.00  0.00    -0.205 F 
ATOM     23  C   UNL     1       0.106  -0.480  23.471  0.00  0.00    +0.074 A 
ATOM     26  C   UNL     1       0.758   0.574  24.109  0.00  0.00    +0.136 A 
ATOM     27  C   UNL     1       0.633  -1.020  22.297  0.00  0.00    +0.016 A 
ATOM     28  C   UNL     1       1.939   1.090  23.575  0.00  0.00    +0.039 A 
ATOM     29  C   UNL     1       1.813  -0.503  21.762  0.00  0.00    +0.001 A 
ATOM     30  C   UNL     1       2.466   0.551  22.401  0.00  0.00    +0.003 A 
ENDBRANCH  22  23
ENDBRANCH  16  20
ENDBRANCH  11  16
TORSDOF 7
ENDMDL
MODEL 9
REMARK VINA RESULT:      -1.6      1.511      4.556
REMARK  Name = 45783945
REMARK  11 active torsions:
REMARK  status: ('A' for Active; 'I' for Inactive)
REMARK    1  A    between atoms: N_4  and  C_15
REMARK    2  A    between atoms: N_6  and  C_24
REMARK    3  A    between atoms: C_8  and  C_12
REMARK    4  A    between atoms: C_9  and  C_15
REMARK    5  A    between atoms: C_11  and  C_16
REMARK    6  A    between atoms: C_12  and  C_17
REMARK    7  A    between atoms: C_12  and  C_18
REMARK    8  A    between atoms: C_13  and  C_19
REMARK    9  A    between atoms: C_16  and  C_20
REMARK   10  A    between atoms: C_22  and  C_23
REMARK   11  A    between atoms: C_24  and  C_25
REMARK                            x       y       z     vdW  Elec       q    Type
REMARK                         _______ _______ _______ _____ _____    ______ ____
ROOT
ATOM      8  C   UNL     1      -3.082  -1.293  24.817  0.00  0.00    +0.000 C 
ATOM      9  C   UNL     1      -2.026  -0.466  24.040  0.00  0.00    +0.032 C 
ATOM     10  C   UNL     1      -4.446  -1.213  24.115  0.00  0.00    +0.012 C 
ATOM     11  C   UNL     1      -4.955   0.236  23.993  0.00  0.00    +0.024 C 
ATOM     13  C   UNL     1      -3.876   1.170  23.483  0.00  0.00    -0.073 C 
ATOM     14  C   UNL     1      -2.574   0.834  23.500  0.00  0.00    -0.022 C 
ATOM     19  C   UNL     1      -4.332   2.483  22.911  0.00  0.00    +0.039 C 
ENDROOT
BRANCH   8  12
ATOM     12  C   UNL     1      -2.660  -2.758  24.964  0.00  0.00    -0.013 C 
ATOM     17  C   UNL     1      -3.728  -3.680  24.384  0.00  0.00    +0.007 C 
ATOM     18  C   UNL     1      -1.315  -2.996  24.286  0.00  0.00    +0.007 C 
ENDBRANCH   8  12
BRANCH   9  15
ATOM     15  C   UNL     1      -0.799  -0.179  24.912  0.00  0.00    +0.113 C 
BRANCH  15   4
ATOM      3  O   UNL     1       1.100   1.686  23.796  0.00  0.00    -0.253 OA
ATOM      4  N   UNL     1       0.406  -0.494  24.212  0.00  0.00    -0.299 N 
ATOM      6  N   UNL     1       2.375  -0.108  23.060  0.00  0.00    -0.300 N 
ATOM     21  C   UNL     1       1.280   0.472  23.696  0.00  0.00    +0.300 C 
ATOM     31  H   UNL     1       0.683  -1.467  24.135  0.00  0.00    +0.150 HD
ATOM     32  H   UNL     1       2.433  -1.120  23.016  0.00  0.00    +0.150 HD
BRANCH   6  24
ATOM     24  C   UNL     1       3.425   0.669  22.444  0.00  0.00    +0.102 C 
ATOM     25  C   UNL     1       4.741   0.501  23.176  0.00  0.00    +0.024 C 
ENDBRANCH   6  24
ENDBRANCH  15   4
ENDBRANCH   9  15
BRANCH  11  16
ATOM     16  C   UNL     1      -5.527   0.735  25.325  0.00  0.00    +0.105 C 
BRANCH  16  20
ATOM      2  O   UNL     1      -3.721   2.375  25.254  0.00  0.00    -0.420 OA
ATOM      5  N   UNL     1      -5.536   3.058  26.371  0.00  0.00    -0.112 NA
ATOM      7  N   UNL     1      -4.602   4.076  26.410  0.00  0.00    -0.107 NA
ATOM     20  C   UNL     1      -4.980   2.086  25.686  0.00  0.00    +0.218 A 
ATOM     22  C   UNL     1      -3.559   3.634  25.747  0.00  0.00    +0.251 A 
BRANCH  22  23
ATOM      1  F   UNL     1      -1.123   2.298  26.110  0.00  0.00    -0.205 F 
ATOM     23  C   UNL     1      -2.301   4.260  25.465  0.00  0.00    +0.074 A 
ATOM     26  C   UNL     1      -1.110   3.562  25.661  0.00  0.00    +0.136 A 
ATOM     27  C   UNL     1      -2.270   5.574  24.997  0.00  0.00    +0.016 A 
ATOM     28  C   UNL     1       0.112   4.175  25.387  0.00  0.00    +0.039 A 
ATOM     29  C   UNL     1      -1.047   6.188  24.723  0.00  0.00    +0.001 A 
ATOM     30  C   UNL     1       0.143   5.489  24.918  0.00  0.00    +0.003 A 
ENDBRANCH  22  23
ENDBRANCH  16  20
ENDBRANCH  11  16
TORSDOF 7
ENDMDL
MODEL 10
REMARK VINA RESULT:      -1.3      2.262      7.160
REMARK  Name = 45783945
REMARK  11 active torsions:
REMARK  status: ('A' for Active; 'I' for Inactive)
REMARK    1  A    between atoms: N_4  and  C_15
REMARK    2  A    between atoms: N_6  and  C_24
REMARK    3  A    between atoms: C_8  and  C_12
REMARK    4  A    between atoms: C_9  and  C_15
REMARK    5  A    between atoms: C_11  and  C_16
REMARK    6  A    between atoms: C_12  and  C_17
REMARK    7  A    between atoms: C_12  and  C_18
REMARK    8  A    between atoms: C_13  and  C_19
REMARK    9  A    between atoms: C_16  and  C_20
REMARK   10  A    between atoms: C_22  and  C_23
REMARK   11  A    between atoms: C_24  and  C_25
REMARK                            x       y       z     vdW  Elec       q    Type
REMARK                         _______ _______ _______ _____ _____    ______ ____
ROOT
ATOM      8  C   UNL     1      -3.394  -1.058  24.406  0.00  0.00    +0.000 C 
ATOM      9  C   UNL     1      -3.810  -0.143  25.586  0.00  0.00    +0.032 C 
ATOM     10  C   UNL     1      -1.905  -1.419  24.509  0.00  0.00    +0.012 C 
ATOM     11  C   UNL     1      -1.001  -0.172  24.501  0.00  0.00    +0.024 C 
ATOM     13  C   UNL     1      -1.505   0.894  25.452  0.00  0.00    -0.073 C 
ATOM     14  C   UNL     1      -2.760   0.884  25.937  0.00  0.00    -0.022 C 
ATOM     19  C   UNL     1      -0.520   1.951  25.870  0.00  0.00    +0.039 C 
ENDROOT
BRANCH   8  12
ATOM     12  C   UNL     1      -4.235  -2.338  24.355  0.00  0.00    -0.013 C 
ATOM     17  C   UNL     1      -4.633  -2.656  22.918  0.00  0.00    +0.007 C 
ATOM     18  C   UNL     1      -3.470  -3.503  24.974  0.00  0.00    +0.007 C 
ENDBRANCH   8  12
BRANCH   9  15
ATOM     15  C   UNL     1      -5.139   0.564  25.294  0.00  0.00    +0.113 C 
BRANCH  15   4
ATOM      3  O   UNL     1      -3.717   2.410  23.592  0.00  0.00    -0.253 OA
ATOM      4  N   UNL     1      -5.011   1.976  25.473  0.00  0.00    -0.299 N 
ATOM      6  N   UNL     1      -4.337   4.140  25.010  0.00  0.00    -0.300 N 
ATOM     21  C   UNL     1      -4.301   2.809  24.599  0.00  0.00    +0.300 C 
ATOM     31  H   UNL     1      -5.515   2.416  26.238  0.00  0.00    +0.150 HD
ATOM     32  H   UNL     1      -4.833   4.373  25.864  0.00  0.00    +0.150 HD
BRANCH   6  24
ATOM     24  C   UNL     1      -3.683   5.201  24.282  0.00  0.00    +0.102 C 
ATOM     25  C   UNL     1      -2.232   5.343  24.694  0.00  0.00    +0.024 C 
ENDBRANCH   6  24
ENDBRANCH  15   4
ENDBRANCH   9  15
BRANCH  11  16
ATOM     16  C   UNL     1      -0.844   0.388  23.082  0.00  0.00    +0.105 C 
BRANCH  16  20
ATOM      2  O   UNL     1       1.563   0.089  23.355  0.00  0.00    -0.420 OA
ATOM      5  N   UNL     1       0.822  -0.286  21.277  0.00  0.00    -0.112 NA
ATOM      7  N   UNL     1       2.189  -0.490  21.286  0.00  0.00    -0.107 NA
ATOM     20  C   UNL     1       0.500   0.050  22.504  0.00  0.00    +0.218 A 
ATOM     22  C   UNL     1       2.579  -0.260  22.518  0.00  0.00    +0.251 A 
BRANCH  22  23
ATOM      1  F   UNL     1       4.289   1.961  22.564  0.00  0.00    -0.205 F 
ATOM     23  C   UNL     1       3.885  -0.319  23.108  0.00  0.00    +0.074 A 
ATOM     26  C   UNL     1       4.706   0.808  23.109  0.00  0.00    +0.136 A 
ATOM     27  C   UNL     1       4.333  -1.510  23.680  0.00  0.00    +0.016 A 
ATOM     28  C   UNL     1       5.975   0.746  23.683  0.00  0.00    +0.039 A 
ATOM     29  C   UNL     1       5.603  -1.572  24.254  0.00  0.00    +0.001 A 
ATOM     30  C   UNL     1       6.424  -0.445  24.255  0.00  0.00    +0.003 A 
ENDBRANCH  22  23
ENDBRANCH  16  20
ENDBRANCH  11  16
TORSDOF 7
ENDMDL
