MODEL 1
REMARK VINA RESULT:       3.3      0.000      0.000
REMARK  Name = 26762953
REMARK  5 active torsions:
REMARK  status: ('A' for Active; 'I' for Inactive)
REMARK    1  A    between atoms: N_8  and  C_13
REMARK    2  A    between atoms: N_10  and  C_27
REMARK    3  A    between atoms: C_12  and  C_17
REMARK    4  A    between atoms: C_17  and  C_19
REMARK    5  A    between atoms: C_19  and  C_20
REMARK                            x       y       z     vdW  Elec       q    Type
REMARK                         _______ _______ _______ _____ _____    ______ ____
ROOT
ATOM      3  O   UNL     1      -4.527   4.157  22.416  0.00  0.00    -0.274 OA
ATOM      6  N   UNL     1      -3.273   2.408  25.094  0.00  0.00    -0.285 NA
ATOM      7  N   UNL     1      -5.666   2.822  23.921  0.00  0.00    -0.313 N 
ATOM     11  C   UNL     1      -3.548   3.756  24.598  0.00  0.00    +0.145 C 
ATOM     12  C   UNL     1      -4.397   1.807  25.817  0.00  0.00    +0.075 C 
ATOM     13  C   UNL     1      -1.172   3.388  24.927  0.00  0.00    +0.090 C 
ATOM     14  C   UNL     1      -2.178   4.239  24.137  0.00  0.00    +0.052 C 
ATOM     15  C   UNL     1      -2.025   2.510  25.844  0.00  0.00    +0.107 C 
ATOM     16  C   UNL     1      -5.752   2.327  25.283  0.00  0.00    +0.123 C 
ATOM     18  C   UNL     1      -4.598   3.609  23.513  0.00  0.00    +0.230 C 
ATOM     33  H   UNL     1      -6.446   2.678  23.287  0.00  0.00    +0.149 HD
ENDROOT
BRANCH  13   8
ATOM      5  O   UNL     1       1.290   2.077  25.587  0.00  0.00    -0.252 OA
ATOM      8  N   UNL     1      -0.352   2.593  24.042  0.00  0.00    -0.295 N 
ATOM     10  N   UNL     1       1.416   1.283  23.383  0.00  0.00    -0.267 N 
ATOM     21  C   UNL     1       0.843   1.984  24.447  0.00  0.00    +0.304 C 
ATOM     34  H   UNL     1      -0.616   2.532  23.065  0.00  0.00    +0.151 HD
ATOM     35  H   UNL     1       0.916   1.304  22.497  0.00  0.00    +0.156 HD
BRANCH  10  27
ATOM      1  F   UNL     1       3.845   2.435  22.649  0.00  0.00    -0.203 F 
ATOM      2  F   UNL     1       6.121  -1.648  23.378  0.00  0.00    -0.205 F 
ATOM     27  C   UNL     1       2.618   0.537  23.381  0.00  0.00    +0.070 A 
ATOM     28  C   UNL     1       3.817   1.143  23.008  0.00  0.00    +0.147 A 
ATOM     29  C   UNL     1       2.602  -0.807  23.752  0.00  0.00    +0.029 A 
ATOM     30  C   UNL     1       5.001   0.405  23.006  0.00  0.00    +0.078 A 
ATOM     31  C   UNL     1       3.786  -1.545  23.752  0.00  0.00    +0.040 A 
ATOM     32  C   UNL     1       4.985  -0.939  23.378  0.00  0.00    +0.126 A 
ENDBRANCH  10  27
ENDBRANCH  13   8
BRANCH  12  17
ATOM     17  C   UNL     1      -4.318   0.285  25.665  0.00  0.00    +0.029 C 
BRANCH  17  19
ATOM     19  C   UNL     1      -4.522  -0.166  24.228  0.00  0.00    +0.097 C 
BRANCH  19  20
ATOM      4  O   UNL     1      -4.657  -2.472  23.700  0.00  0.00    -0.276 OA
ATOM      9  N   UNL     1      -2.535  -1.633  24.140  0.00  0.00    -0.301 N 
ATOM     20  C   UNL     1      -3.919  -1.529  23.997  0.00  0.00    +0.216 C 
ATOM     22  C   UNL     1      -1.876  -2.924  23.933  0.00  0.00    +0.108 C 
ATOM     23  C   UNL     1      -1.627  -0.522  24.449  0.00  0.00    +0.108 C 
ATOM     24  C   UNL     1      -1.019  -3.298  25.139  0.00  0.00    +0.019 C 
ATOM     25  C   UNL     1      -0.764  -0.850  25.665  0.00  0.00    +0.019 C 
ATOM     26  C   UNL     1      -0.036  -2.182  25.487  0.00  0.00    +0.003 C 
ENDBRANCH  19  20
ENDBRANCH  17  19
ENDBRANCH  12  17
TORSDOF 5
ENDMDL
MODEL 2
REMARK VINA RESULT:       3.7      1.527      2.001
REMARK  Name = 26762953
REMARK  5 active torsions:
REMARK  status: ('A' for Active; 'I' for Inactive)
REMARK    1  A    between atoms: N_8  and  C_13
REMARK    2  A    between atoms: N_10  and  C_27
REMARK    3  A    between atoms: C_12  and  C_17
REMARK    4  A    between atoms: C_17  and  C_19
REMARK    5  A    between atoms: C_19  and  C_20
REMARK                            x       y       z     vdW  Elec       q    Type
REMARK                         _______ _______ _______ _____ _____    ______ ____
ROOT
ATOM      3  O   UNL     1      -4.053   5.826  23.287  0.00  0.00    -0.274 OA
ATOM      6  N   UNL     1      -3.476   3.249  25.485  0.00  0.00    -0.285 NA
ATOM      7  N   UNL     1      -5.596   4.489  24.370  0.00  0.00    -0.313 N 
ATOM     11  C   UNL     1      -3.395   4.701  25.332  0.00  0.00    +0.145 C 
ATOM     12  C   UNL     1      -4.768   2.784  25.996  0.00  0.00    +0.075 C 
ATOM     13  C   UNL     1      -1.203   3.707  25.639  0.00  0.00    +0.090 C 
ATOM     14  C   UNL     1      -1.914   4.936  25.053  0.00  0.00    +0.052 C 
ATOM     15  C   UNL     1      -2.312   2.870  26.279  0.00  0.00    +0.107 C 
ATOM     16  C   UNL     1      -5.917   3.724  25.563  0.00  0.00    +0.123 C 
ATOM     18  C   UNL     1      -4.346   5.070  24.209  0.00  0.00    +0.230 C 
ATOM     33  H   UNL     1      -6.327   4.690  23.695  0.00  0.00    +0.149 HD
ENDROOT
BRANCH  13   8
ATOM      5  O   UNL     1       1.281   2.305  25.926  0.00  0.00    -0.252 OA
ATOM      8  N   UNL     1      -0.504   2.968  24.613  0.00  0.00    -0.295 N 
ATOM     10  N   UNL     1       1.147   1.681  23.668  0.00  0.00    -0.267 N 
ATOM     21  C   UNL     1       0.711   2.308  24.838  0.00  0.00    +0.304 C 
ATOM     34  H   UNL     1      -0.874   2.987  23.669  0.00  0.00    +0.151 HD
ATOM     35  H   UNL     1       0.555   1.779  22.847  0.00  0.00    +0.156 HD
BRANCH  10  27
ATOM      1  F   UNL     1       1.150  -1.090  23.971  0.00  0.00    -0.203 F 
ATOM      2  F   UNL     1       5.758  -1.305  22.923  0.00  0.00    -0.205 F 
ATOM     27  C   UNL     1       2.322   0.917  23.478  0.00  0.00    +0.070 A 
ATOM     28  C   UNL     1       2.290  -0.468  23.638  0.00  0.00    +0.147 A 
ATOM     29  C   UNL     1       3.515   1.551  23.132  0.00  0.00    +0.029 A 
ATOM     30  C   UNL     1       3.451  -1.219  23.451  0.00  0.00    +0.078 A 
ATOM     31  C   UNL     1       4.675   0.800  22.944  0.00  0.00    +0.040 A 
ATOM     32  C   UNL     1       4.644  -0.585  23.104  0.00  0.00    +0.126 A 
ENDBRANCH  10  27
ENDBRANCH  13   8
BRANCH  12  17
ATOM     17  C   UNL     1      -5.019   1.367  25.472  0.00  0.00    +0.029 C 
BRANCH  17  19
ATOM     19  C   UNL     1      -4.690   1.227  23.995  0.00  0.00    +0.097 C 
BRANCH  19  20
ATOM      4  O   UNL     1      -2.536   1.465  23.039  0.00  0.00    -0.276 OA
ATOM      9  N   UNL     1      -2.832  -0.322  24.495  0.00  0.00    -0.301 N 
ATOM     20  C   UNL     1      -3.256   0.808  23.796  0.00  0.00    +0.216 C 
ATOM     22  C   UNL     1      -1.453  -0.793  24.353  0.00  0.00    +0.108 C 
ATOM     23  C   UNL     1      -3.652  -1.096  25.435  0.00  0.00    +0.108 C 
ATOM     24  C   UNL     1      -1.418  -2.265  23.952  0.00  0.00    +0.019 C 
ATOM     25  C   UNL     1      -3.659  -2.575  25.056  0.00  0.00    +0.019 C 
ATOM     26  C   UNL     1      -2.237  -3.120  24.916  0.00  0.00    +0.003 C 
ENDBRANCH  19  20
ENDBRANCH  17  19
ENDBRANCH  12  17
TORSDOF 5
ENDMDL
MODEL 3
REMARK VINA RESULT:       3.8      1.914      4.160
REMARK  Name = 26762953
REMARK  5 active torsions:
REMARK  status: ('A' for Active; 'I' for Inactive)
REMARK    1  A    between atoms: N_8  and  C_13
REMARK    2  A    between atoms: N_10  and  C_27
REMARK    3  A    between atoms: C_12  and  C_17
REMARK    4  A    between atoms: C_17  and  C_19
REMARK    5  A    between atoms: C_19  and  C_20
REMARK                            x       y       z     vdW  Elec       q    Type
REMARK                         _______ _______ _______ _____ _____    ______ ____
ROOT
ATOM      3  O   UNL     1      -3.576  -2.048  25.730  0.00  0.00    -0.274 OA
ATOM      6  N   UNL     1      -3.631   1.097  24.346  0.00  0.00    -0.285 NA
ATOM      7  N   UNL     1      -5.055  -0.321  26.146  0.00  0.00    -0.313 N 
ATOM     11  C   UNL     1      -3.857  -0.318  24.053  0.00  0.00    +0.145 C 
ATOM     12  C   UNL     1      -4.825   1.792  24.836  0.00  0.00    +0.075 C 
ATOM     13  C   UNL     1      -2.005   0.581  22.768  0.00  0.00    +0.090 C 
ATOM     14  C   UNL     1      -2.578  -0.728  23.332  0.00  0.00    +0.052 C 
ATOM     15  C   UNL     1      -3.025   1.658  23.144  0.00  0.00    +0.107 C 
ATOM     16  C   UNL     1      -5.756   0.834  25.613  0.00  0.00    +0.123 C 
ATOM     18  C   UNL     1      -4.113  -0.998  25.385  0.00  0.00    +0.230 C 
ATOM     33  H   UNL     1      -5.331  -0.700  27.046  0.00  0.00    +0.149 HD
ENDROOT
BRANCH  13   8
ATOM      5  O   UNL     1       0.490  -0.588  21.978  0.00  0.00    -0.252 OA
ATOM      8  N   UNL     1      -0.703   0.865  23.325  0.00  0.00    -0.295 N 
ATOM     10  N   UNL     1       1.573   0.718  23.599  0.00  0.00    -0.267 N 
ATOM     21  C   UNL     1       0.472   0.247  22.879  0.00  0.00    +0.304 C 
ATOM     34  H   UNL     1      -0.646   1.489  24.123  0.00  0.00    +0.151 HD
ATOM     35  H   UNL     1       1.387   1.415  24.317  0.00  0.00    +0.156 HD
BRANCH  10  27
ATOM      1  F   UNL     1       3.473   2.490  22.590  0.00  0.00    -0.203 F 
ATOM      2  F   UNL     1       6.888  -0.754  23.036  0.00  0.00    -0.205 F 
ATOM     27  C   UNL     1       2.929   0.346  23.455  0.00  0.00    +0.070 A 
ATOM     28  C   UNL     1       3.856   1.255  22.946  0.00  0.00    +0.147 A 
ATOM     29  C   UNL     1       3.340  -0.936  23.821  0.00  0.00    +0.029 A 
ATOM     30  C   UNL     1       5.193   0.884  22.804  0.00  0.00    +0.078 A 
ATOM     31  C   UNL     1       4.678  -1.307  23.680  0.00  0.00    +0.040 A 
ATOM     32  C   UNL     1       5.604  -0.397  23.171  0.00  0.00    +0.126 A 
ENDBRANCH  10  27
ENDBRANCH  13   8
BRANCH  12  17
ATOM     17  C   UNL     1      -4.381   2.947  25.739  0.00  0.00    +0.029 C 
BRANCH  17  19
ATOM     19  C   UNL     1      -4.633   4.307  25.109  0.00  0.00    +0.097 C 
BRANCH  19  20
ATOM      4  O   UNL     1      -3.442   5.549  23.481  0.00  0.00    -0.276 OA
ATOM      9  N   UNL     1      -2.177   4.570  25.166  0.00  0.00    -0.301 N 
ATOM     20  C   UNL     1      -3.369   4.868  24.507  0.00  0.00    +0.216 C 
ATOM     22  C   UNL     1      -0.908   5.077  24.642  0.00  0.00    +0.108 C 
ATOM     23  C   UNL     1      -2.064   3.800  26.411  0.00  0.00    +0.108 C 
ATOM     24  C   UNL     1       0.092   3.942  24.440  0.00  0.00    +0.019 C 
ATOM     25  C   UNL     1      -1.086   2.640  26.244  0.00  0.00    +0.019 C 
ATOM     26  C   UNL     1       0.266   3.123  25.718  0.00  0.00    +0.003 C 
ENDBRANCH  19  20
ENDBRANCH  17  19
ENDBRANCH  12  17
TORSDOF 5
ENDMDL
MODEL 4
REMARK VINA RESULT:       4.5      3.287      5.852
REMARK  Name = 26762953
REMARK  5 active torsions:
REMARK  status: ('A' for Active; 'I' for Inactive)
REMARK    1  A    between atoms: N_8  and  C_13
REMARK    2  A    between atoms: N_10  and  C_27
REMARK    3  A    between atoms: C_12  and  C_17
REMARK    4  A    between atoms: C_17  and  C_19
REMARK    5  A    between atoms: C_19  and  C_20
REMARK                            x       y       z     vdW  Elec       q    Type
REMARK                         _______ _______ _______ _____ _____    ______ ____
ROOT
ATOM      3  O   UNL     1      -0.433  -2.713  25.095  0.00  0.00    -0.274 OA
ATOM      6  N   UNL     1      -2.039   0.178  24.166  0.00  0.00    -0.285 NA
ATOM      7  N   UNL     1      -2.705  -2.302  24.990  0.00  0.00    -0.313 N 
ATOM     11  C   UNL     1      -1.235  -0.932  23.657  0.00  0.00    +0.145 C 
ATOM     12  C   UNL     1      -3.481  -0.084  24.145  0.00  0.00    +0.075 C 
ATOM     13  C   UNL     1      -0.083   1.191  23.426  0.00  0.00    +0.090 C 
ATOM     14  C   UNL     1       0.157  -0.322  23.539  0.00  0.00    +0.052 C 
ATOM     15  C   UNL     1      -1.603   1.355  23.421  0.00  0.00    +0.107 C 
ATOM     16  C   UNL     1      -3.782  -1.590  24.325  0.00  0.00    +0.123 C 
ATOM     18  C   UNL     1      -1.379  -2.062  24.659  0.00  0.00    +0.230 C 
ATOM     33  H   UNL     1      -2.927  -3.057  25.630  0.00  0.00    +0.149 HD
ENDROOT
BRANCH  13   8
ATOM      5  O   UNL     1      -0.580   0.772  26.218  0.00  0.00    -0.252 OA
ATOM      8  N   UNL     1       0.525   1.901  24.528  0.00  0.00    -0.295 N 
ATOM     10  N   UNL     1       0.963   2.471  26.710  0.00  0.00    -0.267 N 
ATOM     21  C   UNL     1       0.225   1.632  25.870  0.00  0.00    +0.304 C 
ATOM     34  H   UNL     1       1.144   2.677  24.319  0.00  0.00    +0.151 HD
ATOM     35  H   UNL     1       1.590   3.133  26.261  0.00  0.00    +0.156 HD
BRANCH  10  27
ATOM      1  F   UNL     1       3.285   2.103  28.206  0.00  0.00    -0.203 F 
ATOM      2  F   UNL     1       0.891   2.648  32.250  0.00  0.00    -0.205 F 
ATOM     27  C   UNL     1       0.947   2.516  28.123  0.00  0.00    +0.070 A 
ATOM     28  C   UNL     1       2.127   2.327  28.843  0.00  0.00    +0.147 A 
ATOM     29  C   UNL     1      -0.251   2.748  28.797  0.00  0.00    +0.029 A 
ATOM     30  C   UNL     1       2.108   2.371  30.237  0.00  0.00    +0.078 A 
ATOM     31  C   UNL     1      -0.270   2.793  30.192  0.00  0.00    +0.040 A 
ATOM     32  C   UNL     1       0.909   2.604  30.912  0.00  0.00    +0.126 A 
ENDBRANCH  10  27
ENDBRANCH  13   8
BRANCH  12  17
ATOM     17  C   UNL     1      -4.140   0.725  25.266  0.00  0.00    +0.029 C 
BRANCH  17  19
ATOM     19  C   UNL     1      -5.165   1.717  24.740  0.00  0.00    +0.097 C 
BRANCH  19  20
ATOM      4  O   UNL     1      -4.624   2.700  22.654  0.00  0.00    -0.276 OA
ATOM      9  N   UNL     1      -3.803   3.769  24.546  0.00  0.00    -0.301 N 
ATOM     20  C   UNL     1      -4.510   2.768  23.881  0.00  0.00    +0.216 C 
ATOM     22  C   UNL     1      -3.138   4.825  23.780  0.00  0.00    +0.108 C 
ATOM     23  C   UNL     1      -3.687   3.902  26.004  0.00  0.00    +0.108 C 
ATOM     24  C   UNL     1      -1.663   4.927  24.159  0.00  0.00    +0.019 C 
ATOM     25  C   UNL     1      -2.223   3.987  26.426  0.00  0.00    +0.019 C 
ATOM     26  C   UNL     1      -1.489   5.093  25.667  0.00  0.00    +0.003 C 
ENDBRANCH  19  20
ENDBRANCH  17  19
ENDBRANCH  12  17
TORSDOF 5
ENDMDL
MODEL 5
REMARK VINA RESULT:       5.4      3.339      5.986
REMARK  Name = 26762953
REMARK  5 active torsions:
REMARK  status: ('A' for Active; 'I' for Inactive)
REMARK    1  A    between atoms: N_8  and  C_13
REMARK    2  A    between atoms: N_10  and  C_27
REMARK    3  A    between atoms: C_12  and  C_17
REMARK    4  A    between atoms: C_17  and  C_19
REMARK    5  A    between atoms: C_19  and  C_20
REMARK                            x       y       z     vdW  Elec       q    Type
REMARK                         _______ _______ _______ _____ _____    ______ ____
ROOT
ATOM      3  O   UNL     1      -0.719  -2.919  25.244  0.00  0.00    -0.274 OA
ATOM      6  N   UNL     1      -2.201  -0.080  23.999  0.00  0.00    -0.285 NA
ATOM      7  N   UNL     1      -2.972  -2.440  25.053  0.00  0.00    -0.313 N 
ATOM     11  C   UNL     1      -1.430  -1.264  23.620  0.00  0.00    +0.145 C 
ATOM     12  C   UNL     1      -3.651  -0.292  23.975  0.00  0.00    +0.075 C 
ATOM     13  C   UNL     1      -0.196   0.783  23.202  0.00  0.00    +0.090 C 
ATOM     14  C   UNL     1      -0.014  -0.719  23.470  0.00  0.00    +0.052 C 
ATOM     15  C   UNL     1      -1.709   1.000  23.150  0.00  0.00    +0.107 C 
ATOM     16  C   UNL     1      -4.011  -1.761  24.299  0.00  0.00    +0.123 C 
ATOM     18  C   UNL     1      -1.632  -2.282  24.727  0.00  0.00    +0.230 C 
ATOM     33  H   UNL     1      -3.233  -3.119  25.761  0.00  0.00    +0.149 HD
ENDROOT
BRANCH  13   8
ATOM      5  O   UNL     1      -0.609   0.531  26.027  0.00  0.00    -0.252 OA
ATOM      8  N   UNL     1       0.419   1.578  24.240  0.00  0.00    -0.295 N 
ATOM     10  N   UNL     1       0.896   2.299  26.368  0.00  0.00    -0.267 N 
ATOM     21  C   UNL     1       0.161   1.388  25.603  0.00  0.00    +0.304 C 
ATOM     34  H   UNL     1       1.010   2.356  23.965  0.00  0.00    +0.151 HD
ATOM     35  H   UNL     1       1.493   2.947  25.861  0.00  0.00    +0.156 HD
BRANCH  10  27
ATOM      1  F   UNL     1      -1.371   3.080  27.790  0.00  0.00    -0.203 F 
ATOM      2  F   UNL     1       0.983   2.826  31.886  0.00  0.00    -0.205 F 
ATOM     27  C   UNL     1       0.915   2.434  27.776  0.00  0.00    +0.070 A 
ATOM     28  C   UNL     1      -0.236   2.827  28.458  0.00  0.00    +0.147 A 
ATOM     29  C   UNL     1       2.089   2.174  28.482  0.00  0.00    +0.029 A 
ATOM     30  C   UNL     1      -0.213   2.960  29.846  0.00  0.00    +0.078 A 
ATOM     31  C   UNL     1       2.112   2.306  29.871  0.00  0.00    +0.040 A 
ATOM     32  C   UNL     1       0.961   2.699  30.553  0.00  0.00    +0.126 A 
ENDBRANCH  10  27
ENDBRANCH  13   8
BRANCH  12  17
ATOM     17  C   UNL     1      -4.299   0.647  24.996  0.00  0.00    +0.029 C 
BRANCH  17  19
ATOM     19  C   UNL     1      -4.890   1.889  24.349  0.00  0.00    +0.097 C 
BRANCH  19  20
ATOM      4  O   UNL     1      -5.848   3.498  25.800  0.00  0.00    -0.276 OA
ATOM      9  N   UNL     1      -3.549   3.625  25.486  0.00  0.00    -0.301 N 
ATOM     20  C   UNL     1      -4.814   3.074  25.277  0.00  0.00    +0.216 C 
ATOM     22  C   UNL     1      -3.394   4.779  26.374  0.00  0.00    +0.108 C 
ATOM     23  C   UNL     1      -2.296   3.116  24.915  0.00  0.00    +0.108 C 
ATOM     24  C   UNL     1      -2.668   5.918  25.665  0.00  0.00    +0.019 C 
ATOM     25  C   UNL     1      -1.548   4.224  24.178  0.00  0.00    +0.019 C 
ATOM     26  C   UNL     1      -1.341   5.446  25.073  0.00  0.00    +0.003 C 
ENDBRANCH  19  20
ENDBRANCH  17  19
ENDBRANCH  12  17
TORSDOF 5
ENDMDL
MODEL 6
REMARK VINA RESULT:       6.6      2.179      4.028
REMARK  Name = 26762953
REMARK  5 active torsions:
REMARK  status: ('A' for Active; 'I' for Inactive)
REMARK    1  A    between atoms: N_8  and  C_13
REMARK    2  A    between atoms: N_10  and  C_27
REMARK    3  A    between atoms: C_12  and  C_17
REMARK    4  A    between atoms: C_17  and  C_19
REMARK    5  A    between atoms: C_19  and  C_20
REMARK                            x       y       z     vdW  Elec       q    Type
REMARK                         _______ _______ _______ _____ _____    ______ ____
ROOT
ATOM      3  O   UNL     1      -4.725  -0.141  26.535  0.00  0.00    -0.274 OA
ATOM      6  N   UNL     1      -3.547   1.451  23.728  0.00  0.00    -0.285 NA
ATOM      7  N   UNL     1      -5.436   1.854  25.610  0.00  0.00    -0.313 N 
ATOM     11  C   UNL     1      -4.292   0.280  24.186  0.00  0.00    +0.145 C 
ATOM     12  C   UNL     1      -4.391   2.623  23.477  0.00  0.00    +0.075 C 
ATOM     13  C   UNL     1      -2.216  -0.347  23.098  0.00  0.00    +0.090 C 
ATOM     14  C   UNL     1      -3.256  -0.836  24.117  0.00  0.00    +0.052 C 
ATOM     15  C   UNL     1      -2.751   0.994  22.593  0.00  0.00    +0.107 C 
ATOM     16  C   UNL     1      -5.632   2.631  24.399  0.00  0.00    +0.123 C 
ATOM     18  C   UNL     1      -4.812   0.615  25.571  0.00  0.00    +0.230 C 
ATOM     33  H   UNL     1      -5.851   2.173  26.479  0.00  0.00    +0.149 HD
ENDROOT
BRANCH  13   8
ATOM      5  O   UNL     1       0.324  -0.553  21.785  0.00  0.00    -0.252 OA
ATOM      8  N   UNL     1      -0.913  -0.204  23.707  0.00  0.00    -0.295 N 
ATOM     10  N   UNL     1       1.379  -0.133  23.839  0.00  0.00    -0.267 N 
ATOM     21  C   UNL     1       0.284  -0.319  22.991  0.00  0.00    +0.304 C 
ATOM     34  H   UNL     1      -0.863  -0.084  24.714  0.00  0.00    +0.151 HD
ATOM     35  H   UNL     1       1.174   0.054  24.818  0.00  0.00    +0.156 HD
BRANCH  10  27
ATOM      1  F   UNL     1       2.999  -2.277  24.577  0.00  0.00    -0.203 F 
ATOM      2  F   UNL     1       6.763  -0.273  22.529  0.00  0.00    -0.205 F 
ATOM     27  C   UNL     1       2.753  -0.171  23.506  0.00  0.00    +0.070 A 
ATOM     28  C   UNL     1       3.537  -1.258  23.891  0.00  0.00    +0.147 A 
ATOM     29  C   UNL     1       3.324   0.882  22.792  0.00  0.00    +0.029 A 
ATOM     30  C   UNL     1       4.892  -1.293  23.561  0.00  0.00    +0.078 A 
ATOM     31  C   UNL     1       4.679   0.847  22.462  0.00  0.00    +0.040 A 
ATOM     32  C   UNL     1       5.463  -0.240  22.846  0.00  0.00    +0.126 A 
ENDBRANCH  10  27
ENDBRANCH  13   8
BRANCH  12  17
ATOM     17  C   UNL     1      -3.554   3.885  23.705  0.00  0.00    +0.029 C 
BRANCH  17  19
ATOM     19  C   UNL     1      -3.808   4.511  25.067  0.00  0.00    +0.097 C 
BRANCH  19  20
ATOM      4  O   UNL     1      -3.448   3.837  27.309  0.00  0.00    -0.276 OA
ATOM      9  N   UNL     1      -1.889   3.111  25.746  0.00  0.00    -0.301 N 
ATOM     20  C   UNL     1      -3.039   3.792  26.146  0.00  0.00    +0.216 C 
ATOM     22  C   UNL     1      -1.088   2.390  26.737  0.00  0.00    +0.108 C 
ATOM     23  C   UNL     1      -1.402   3.003  24.366  0.00  0.00    +0.108 C 
ATOM     24  C   UNL     1       0.372   2.832  26.684  0.00  0.00    +0.019 C 
ATOM     25  C   UNL     1       0.052   3.457  24.267  0.00  0.00    +0.019 C 
ATOM     26  C   UNL     1       0.935   2.714  25.269  0.00  0.00    +0.003 C 
ENDBRANCH  19  20
ENDBRANCH  17  19
ENDBRANCH  12  17
TORSDOF 5
ENDMDL
