MODEL 1
REMARK VINA RESULT:       9.6      0.000      0.000
REMARK  Name = 44716812
REMARK  9 active torsions:
REMARK  status: ('A' for Active; 'I' for Inactive)
REMARK    1  A    between atoms: O_3  and  C_14
REMARK    2  A    between atoms: O_3  and  C_18
REMARK    3  A    between atoms: O_5  and  C_30
REMARK    4  A    between atoms: O_5  and  C_34
REMARK    5  A    between atoms: O_6  and  C_33
REMARK    6  A    between atoms: O_6  and  C_35
REMARK    7  A    between atoms: N_7  and  C_13
REMARK    8  A    between atoms: N_10  and  C_22
REMARK    9  A    between atoms: C_19  and  C_23
REMARK                            x       y       z     vdW  Elec       q    Type
REMARK                         _______ _______ _______ _____ _____    ______ ____
ROOT
ATOM      1  O   UNL     1      -3.762   2.427  25.755  0.00  0.00    -0.368 OA
ATOM      2  O   UNL     1      -6.406   3.558  24.686  0.00  0.00    -0.368 OA
ATOM     11  C   UNL     1      -5.640   2.395  24.308  0.00  0.00    +0.173 C 
ATOM     12  C   UNL     1      -4.178   2.776  24.425  0.00  0.00    +0.192 C 
ATOM     13  C   UNL     1      -5.817   1.302  25.336  0.00  0.00    +0.130 C 
ATOM     14  C   UNL     1      -4.212   4.271  24.224  0.00  0.00    +0.235 C 
ATOM     15  C   UNL     1      -4.816   1.700  26.406  0.00  0.00    +0.185 C 
ATOM     16  C   UNL     1      -5.507   4.655  24.904  0.00  0.00    +0.207 C 
ENDROOT
BRANCH  13   7
ATOM      7  N   UNL     1      -5.464   0.019  24.769  0.00  0.00    -0.306 N 
ATOM      8  N   UNL     1      -3.311   0.119  25.636  0.00  0.00    -0.214 NA
ATOM      9  N   UNL     1      -4.045  -1.767  24.328  0.00  0.00    -0.223 NA
ATOM     17  C   UNL     1      -4.219  -0.569  24.917  0.00  0.00    +0.216 A 
ATOM     19  C   UNL     1      -2.110  -0.485  25.764  0.00  0.00    +0.076 A 
ATOM     20  C   UNL     1      -2.823  -2.313  24.496  0.00  0.00    +0.116 A 
ATOM     21  C   UNL     1      -1.806  -1.712  25.210  0.00  0.00    +0.048 A 
ATOM     41  H   UNL     1      -6.167  -0.517  24.274  0.00  0.00    +0.149 HD
BRANCH  19  23
ATOM     23  C   UNL     1      -1.134   0.248  26.534  0.00  0.00    +0.001 A 
ATOM     26  C   UNL     1      -0.821   1.563  26.193  0.00  0.00    +0.013 A 
ATOM     27  C   UNL     1      -0.505  -0.360  27.620  0.00  0.00    +0.013 A 
ATOM     31  C   UNL     1       0.122   2.271  26.939  0.00  0.00    +0.046 A 
ATOM     32  C   UNL     1       0.437   0.348  28.366  0.00  0.00    +0.046 A 
ATOM     33  C   UNL     1       0.751   1.664  28.024  0.00  0.00    +0.120 A 
BRANCH  33   6
ATOM      6  O   UNL     1       1.672   2.355  28.752  0.00  0.00    -0.495 OA
ATOM     35  C   UNL     1       1.575   2.266  30.173  0.00  0.00    +0.277 C 
ENDBRANCH  33   6
ENDBRANCH  19  23
ENDBRANCH  13   7
BRANCH  14   3
ATOM      3  O   UNL     1      -3.102   4.939  24.781  0.00  0.00    -0.442 OA
BRANCH   3  18
ATOM      4  O   UNL     1      -0.828   4.861  25.005  0.00  0.00    -0.226 OA
ATOM     10  N   UNL     1      -2.016   3.155  23.929  0.00  0.00    -0.251 N 
ATOM     18  C   UNL     1      -1.866   4.352  24.603  0.00  0.00    +0.405 C 
ATOM     42  H   UNL     1      -2.966   2.897  23.676  0.00  0.00    +0.158 HD
BRANCH  10  22
ATOM     22  C   UNL     1      -1.008   2.241  23.544  0.00  0.00    +0.037 A 
ATOM     24  C   UNL     1       0.325   2.495  23.867  0.00  0.00    +0.027 A 
ATOM     25  C   UNL     1      -1.348   1.084  22.843  0.00  0.00    +0.027 A 
ATOM     28  C   UNL     1       1.318   1.592  23.488  0.00  0.00    +0.048 A 
ATOM     29  C   UNL     1      -0.355   0.181  22.464  0.00  0.00    +0.048 A 
ATOM     30  C   UNL     1       0.979   0.436  22.787  0.00  0.00    +0.129 A 
BRANCH  30   5
ATOM      5  O   UNL     1       1.948  -0.446  22.420  0.00  0.00    -0.456 OA
BRANCH   5  34
ATOM     34  C   UNL     1       3.214  -0.269  22.953  0.00  0.00    +0.128 A 
ATOM     36  C   UNL     1       3.812  -1.295  23.684  0.00  0.00    +0.046 A 
ATOM     37  C   UNL     1       3.890   0.936  22.760  0.00  0.00    +0.046 A 
ATOM     38  C   UNL     1       5.087  -1.117  24.223  0.00  0.00    +0.004 A 
ATOM     39  C   UNL     1       5.165   1.115  23.298  0.00  0.00    +0.004 A 
ATOM     40  C   UNL     1       5.763   0.088  24.030  0.00  0.00    +0.000 A 
ENDBRANCH   5  34
ENDBRANCH  30   5
ENDBRANCH  10  22
ENDBRANCH   3  18
ENDBRANCH  14   3
TORSDOF 8
ENDMDL
MODEL 2
REMARK VINA RESULT:      10.1      1.814      3.785
REMARK  Name = 44716812
REMARK  9 active torsions:
REMARK  status: ('A' for Active; 'I' for Inactive)
REMARK    1  A    between atoms: O_3  and  C_14
REMARK    2  A    between atoms: O_3  and  C_18
REMARK    3  A    between atoms: O_5  and  C_30
REMARK    4  A    between atoms: O_5  and  C_34
REMARK    5  A    between atoms: O_6  and  C_33
REMARK    6  A    between atoms: O_6  and  C_35
REMARK    7  A    between atoms: N_7  and  C_13
REMARK    8  A    between atoms: N_10  and  C_22
REMARK    9  A    between atoms: C_19  and  C_23
REMARK                            x       y       z     vdW  Elec       q    Type
REMARK                         _______ _______ _______ _____ _____    ______ ____
ROOT
ATOM      1  O   UNL     1      -5.856   1.369  24.348  0.00  0.00    -0.368 OA
ATOM      2  O   UNL     1      -5.868   2.233  27.292  0.00  0.00    -0.368 OA
ATOM     11  C   UNL     1      -5.275   2.833  26.120  0.00  0.00    +0.173 C 
ATOM     12  C   UNL     1      -4.784   1.696  25.247  0.00  0.00    +0.192 C 
ATOM     13  C   UNL     1      -6.342   3.501  25.285  0.00  0.00    +0.130 C 
ATOM     14  C   UNL     1      -4.539   0.595  26.250  0.00  0.00    +0.235 C 
ATOM     15  C   UNL     1      -6.907   2.338  24.490  0.00  0.00    +0.185 C 
ATOM     16  C   UNL     1      -5.657   0.815  27.244  0.00  0.00    +0.207 C 
ENDROOT
BRANCH  13   7
ATOM      7  N   UNL     1      -5.746   4.475  24.397  0.00  0.00    -0.306 N 
ATOM      8  N   UNL     1      -3.619   4.102  25.254  0.00  0.00    -0.214 NA
ATOM      9  N   UNL     1      -3.994   5.707  23.496  0.00  0.00    -0.223 NA
ATOM     17  C   UNL     1      -4.394   4.775  24.383  0.00  0.00    +0.216 A 
ATOM     19  C   UNL     1      -2.307   4.416  25.210  0.00  0.00    +0.076 A 
ATOM     20  C   UNL     1      -2.671   5.971  23.506  0.00  0.00    +0.116 A 
ATOM     21  C   UNL     1      -1.771   5.352  24.349  0.00  0.00    +0.048 A 
ATOM     41  H   UNL     1      -6.325   4.940  23.707  0.00  0.00    +0.149 HD
BRANCH  19  23
ATOM     23  C   UNL     1      -1.473   3.696  26.143  0.00  0.00    +0.001 A 
ATOM     26  C   UNL     1      -0.275   3.128  25.712  0.00  0.00    +0.013 A 
ATOM     27  C   UNL     1      -1.865   3.571  27.475  0.00  0.00    +0.013 A 
ATOM     31  C   UNL     1       0.531   2.433  26.614  0.00  0.00    +0.046 A 
ATOM     32  C   UNL     1      -1.059   2.877  28.377  0.00  0.00    +0.046 A 
ATOM     33  C   UNL     1       0.139   2.307  27.946  0.00  0.00    +0.120 A 
BRANCH  33   6
ATOM      6  O   UNL     1       0.925   1.629  28.827  0.00  0.00    -0.495 OA
ATOM     35  C   UNL     1       1.581   2.397  29.836  0.00  0.00    +0.277 C 
ENDBRANCH  33   6
ENDBRANCH  19  23
ENDBRANCH  13   7
BRANCH  14   3
ATOM      3  O   UNL     1      -4.577  -0.697  25.686  0.00  0.00    -0.442 OA
BRANCH   3  18
ATOM      4  O   UNL     1      -3.719  -1.904  23.944  0.00  0.00    -0.226 OA
ATOM     10  N   UNL     1      -2.512  -0.167  24.948  0.00  0.00    -0.251 N 
ATOM     18  C   UNL     1      -3.594  -1.008  24.769  0.00  0.00    +0.405 C 
ATOM     42  H   UNL     1      -2.596   0.521  25.692  0.00  0.00    +0.158 HD
BRANCH  10  22
ATOM     22  C   UNL     1      -1.298  -0.145  24.225  0.00  0.00    +0.037 A 
ATOM     24  C   UNL     1      -0.464  -1.262  24.226  0.00  0.00    +0.027 A 
ATOM     25  C   UNL     1      -0.936   0.996  23.507  0.00  0.00    +0.027 A 
ATOM     28  C   UNL     1       0.733  -1.240  23.510  0.00  0.00    +0.048 A 
ATOM     29  C   UNL     1       0.261   1.018  22.792  0.00  0.00    +0.048 A 
ATOM     30  C   UNL     1       1.096  -0.100  22.794  0.00  0.00    +0.129 A 
BRANCH  30   5
ATOM      5  O   UNL     1       2.263  -0.079  22.094  0.00  0.00    -0.456 OA
BRANCH   5  34
ATOM     34  C   UNL     1       3.445  -0.158  22.812  0.00  0.00    +0.128 A 
ATOM     36  C   UNL     1       4.258   0.969  22.940  0.00  0.00    +0.046 A 
ATOM     37  C   UNL     1       3.823  -1.363  23.404  0.00  0.00    +0.046 A 
ATOM     38  C   UNL     1       5.450   0.890  23.661  0.00  0.00    +0.004 A 
ATOM     39  C   UNL     1       5.014  -1.441  24.126  0.00  0.00    +0.004 A 
ATOM     40  C   UNL     1       5.827  -0.315  24.254  0.00  0.00    +0.000 A 
ENDBRANCH   5  34
ENDBRANCH  30   5
ENDBRANCH  10  22
ENDBRANCH   3  18
ENDBRANCH  14   3
TORSDOF 8
ENDMDL
MODEL 3
REMARK VINA RESULT:      10.3      2.075      3.930
REMARK  Name = 44716812
REMARK  9 active torsions:
REMARK  status: ('A' for Active; 'I' for Inactive)
REMARK    1  A    between atoms: O_3  and  C_14
REMARK    2  A    between atoms: O_3  and  C_18
REMARK    3  A    between atoms: O_5  and  C_30
REMARK    4  A    between atoms: O_5  and  C_34
REMARK    5  A    between atoms: O_6  and  C_33
REMARK    6  A    between atoms: O_6  and  C_35
REMARK    7  A    between atoms: N_7  and  C_13
REMARK    8  A    between atoms: N_10  and  C_22
REMARK    9  A    between atoms: C_19  and  C_23
REMARK                            x       y       z     vdW  Elec       q    Type
REMARK                         _______ _______ _______ _____ _____    ______ ____
ROOT
ATOM      1  O   UNL     1      -2.792   0.217  25.067  0.00  0.00    -0.368 OA
ATOM      2  O   UNL     1      -4.520  -1.742  23.459  0.00  0.00    -0.368 OA
ATOM     11  C   UNL     1      -4.856  -0.533  24.171  0.00  0.00    +0.173 C 
ATOM     12  C   UNL     1      -3.988  -0.501  25.413  0.00  0.00    +0.192 C 
ATOM     13  C   UNL     1      -4.408   0.674  23.381  0.00  0.00    +0.130 C 
ATOM     14  C   UNL     1      -3.711  -1.965  25.656  0.00  0.00    +0.235 C 
ATOM     15  C   UNL     1      -2.939   0.778  23.754  0.00  0.00    +0.185 C 
ATOM     16  C   UNL     1      -3.598  -2.506  24.249  0.00  0.00    +0.207 C 
ENDROOT
BRANCH  13   7
ATOM      7  N   UNL     1      -5.122   1.854  23.819  0.00  0.00    -0.306 N 
ATOM      8  N   UNL     1      -3.358   2.543  25.164  0.00  0.00    -0.214 NA
ATOM      9  N   UNL     1      -5.392   3.826  25.017  0.00  0.00    -0.223 NA
ATOM     17  C   UNL     1      -4.601   2.781  24.706  0.00  0.00    +0.216 A 
ATOM     19  C   UNL     1      -2.880   3.468  26.023  0.00  0.00    +0.076 A 
ATOM     20  C   UNL     1      -4.852   4.712  25.879  0.00  0.00    +0.116 A 
ATOM     21  C   UNL     1      -3.589   4.584  26.420  0.00  0.00    +0.048 A 
ATOM     41  H   UNL     1      -6.036   2.055  23.431  0.00  0.00    +0.149 HD
BRANCH  19  23
ATOM     23  C   UNL     1      -1.547   3.217  26.516  0.00  0.00    +0.001 A 
ATOM     26  C   UNL     1      -1.314   3.137  27.889  0.00  0.00    +0.013 A 
ATOM     27  C   UNL     1      -0.492   3.053  25.619  0.00  0.00    +0.013 A 
ATOM     31  C   UNL     1      -0.026   2.894  28.365  0.00  0.00    +0.046 A 
ATOM     32  C   UNL     1       0.796   2.810  26.096  0.00  0.00    +0.046 A 
ATOM     33  C   UNL     1       1.029   2.731  27.469  0.00  0.00    +0.120 A 
BRANCH  33   6
ATOM      6  O   UNL     1       2.286   2.493  27.933  0.00  0.00    -0.495 OA
ATOM     35  C   UNL     1       2.463   2.476  29.349  0.00  0.00    +0.277 C 
ENDBRANCH  33   6
ENDBRANCH  19  23
ENDBRANCH  13   7
BRANCH  14   3
ATOM      3  O   UNL     1      -2.541  -2.199  26.409  0.00  0.00    -0.442 OA
BRANCH   3  18
ATOM      4  O   UNL     1      -1.005  -0.584  26.919  0.00  0.00    -0.226 OA
ATOM     10  N   UNL     1      -0.981  -1.696  24.860  0.00  0.00    -0.251 N 
ATOM     18  C   UNL     1      -1.449  -1.405  26.126  0.00  0.00    +0.405 C 
ATOM     42  H   UNL     1      -1.485  -2.416  24.348  0.00  0.00    +0.158 HD
BRANCH  10  22
ATOM     22  C   UNL     1       0.116  -1.115  24.182  0.00  0.00    +0.037 A 
ATOM     24  C   UNL     1      -0.047   0.083  23.488  0.00  0.00    +0.027 A 
ATOM     25  C   UNL     1       1.362  -1.742  24.210  0.00  0.00    +0.027 A 
ATOM     28  C   UNL     1       1.036   0.656  22.821  0.00  0.00    +0.048 A 
ATOM     29  C   UNL     1       2.445  -1.169  23.543  0.00  0.00    +0.048 A 
ATOM     30  C   UNL     1       2.281   0.030  22.848  0.00  0.00    +0.129 A 
BRANCH  30   5
ATOM      5  O   UNL     1       3.338   0.590  22.199  0.00  0.00    -0.456 OA
BRANCH   5  34
ATOM     34  C   UNL     1       4.601   0.387  22.730  0.00  0.00    +0.128 A 
ATOM     36  C   UNL     1       5.525  -0.405  22.046  0.00  0.00    +0.046 A 
ATOM     37  C   UNL     1       4.948   0.971  23.948  0.00  0.00    +0.046 A 
ATOM     38  C   UNL     1       6.797  -0.611  22.581  0.00  0.00    +0.004 A 
ATOM     39  C   UNL     1       6.220   0.764  24.483  0.00  0.00    +0.004 A 
ATOM     40  C   UNL     1       7.144  -0.027  23.799  0.00  0.00    +0.000 A 
ENDBRANCH   5  34
ENDBRANCH  30   5
ENDBRANCH  10  22
ENDBRANCH   3  18
ENDBRANCH  14   3
TORSDOF 8
ENDMDL
MODEL 4
REMARK VINA RESULT:      10.6      1.986      4.006
REMARK  Name = 44716812
REMARK  9 active torsions:
REMARK  status: ('A' for Active; 'I' for Inactive)
REMARK    1  A    between atoms: O_3  and  C_14
REMARK    2  A    between atoms: O_3  and  C_18
REMARK    3  A    between atoms: O_5  and  C_30
REMARK    4  A    between atoms: O_5  and  C_34
REMARK    5  A    between atoms: O_6  and  C_33
REMARK    6  A    between atoms: O_6  and  C_35
REMARK    7  A    between atoms: N_7  and  C_13
REMARK    8  A    between atoms: N_10  and  C_22
REMARK    9  A    between atoms: C_19  and  C_23
REMARK                            x       y       z     vdW  Elec       q    Type
REMARK                         _______ _______ _______ _____ _____    ______ ____
ROOT
ATOM      1  O   UNL     1      -2.587   4.260  23.940  0.00  0.00    -0.368 OA
ATOM      2  O   UNL     1      -4.946   3.454  25.727  0.00  0.00    -0.368 OA
ATOM     11  C   UNL     1      -3.522   3.291  25.892  0.00  0.00    +0.173 C 
ATOM     12  C   UNL     1      -2.954   2.997  24.518  0.00  0.00    +0.192 C 
ATOM     13  C   UNL     1      -2.890   4.609  26.274  0.00  0.00    +0.130 C 
ATOM     14  C   UNL     1      -4.129   2.375  23.803  0.00  0.00    +0.235 C 
ATOM     15  C   UNL     1      -2.728   5.293  24.928  0.00  0.00    +0.185 C 
ATOM     16  C   UNL     1      -5.294   3.156  24.368  0.00  0.00    +0.207 C 
ENDROOT
BRANCH  13   7
ATOM      7  N   UNL     1      -1.598   4.387  26.884  0.00  0.00    -0.306 N 
ATOM      8  N   UNL     1      -1.628   2.125  26.359  0.00  0.00    -0.214 NA
ATOM      9  N   UNL     1       0.231   3.110  27.533  0.00  0.00    -0.223 NA
ATOM     17  C   UNL     1      -0.971   3.153  26.928  0.00  0.00    +0.216 A 
ATOM     19  C   UNL     1      -0.987   0.938  26.416  0.00  0.00    +0.076 A 
ATOM     20  C   UNL     1       0.815   1.894  27.554  0.00  0.00    +0.116 A 
ATOM     21  C   UNL     1       0.248   0.762  27.007  0.00  0.00    +0.048 A 
ATOM     41  H   UNL     1      -1.085   5.175  27.264  0.00  0.00    +0.149 HD
BRANCH  19  23
ATOM     23  C   UNL     1      -1.687  -0.167  25.807  0.00  0.00    +0.001 A 
ATOM     26  C   UNL     1      -3.081  -0.175  25.770  0.00  0.00    +0.013 A 
ATOM     27  C   UNL     1      -0.969  -1.227  25.253  0.00  0.00    +0.013 A 
ATOM     31  C   UNL     1      -3.757  -1.243  25.180  0.00  0.00    +0.046 A 
ATOM     32  C   UNL     1      -1.645  -2.295  24.664  0.00  0.00    +0.046 A 
ATOM     33  C   UNL     1      -3.040  -2.303  24.628  0.00  0.00    +0.120 A 
BRANCH  33   6
ATOM      6  O   UNL     1      -3.699  -3.346  24.053  0.00  0.00    -0.495 OA
ATOM     35  C   UNL     1      -4.888  -3.040  23.324  0.00  0.00    +0.277 C 
ENDBRANCH  33   6
ENDBRANCH  19  23
ENDBRANCH  13   7
BRANCH  14   3
ATOM      3  O   UNL     1      -4.052   2.478  22.399  0.00  0.00    -0.442 OA
BRANCH   3  18
ATOM      4  O   UNL     1      -2.636   2.245  20.619  0.00  0.00    -0.226 OA
ATOM     10  N   UNL     1      -2.078   1.443  22.747  0.00  0.00    -0.251 N 
ATOM     18  C   UNL     1      -2.877   2.063  21.806  0.00  0.00    +0.405 C 
ATOM     42  H   UNL     1      -2.455   1.387  23.690  0.00  0.00    +0.158 HD
BRANCH  10  22
ATOM     22  C   UNL     1      -0.798   0.874  22.562  0.00  0.00    +0.037 A 
ATOM     24  C   UNL     1       0.267   1.274  23.369  0.00  0.00    +0.027 A 
ATOM     25  C   UNL     1      -0.599  -0.089  21.572  0.00  0.00    +0.027 A 
ATOM     28  C   UNL     1       1.530   0.711  23.187  0.00  0.00    +0.048 A 
ATOM     29  C   UNL     1       0.664  -0.652  21.390  0.00  0.00    +0.048 A 
ATOM     30  C   UNL     1       1.729  -0.251  22.197  0.00  0.00    +0.129 A 
BRANCH  30   5
ATOM      5  O   UNL     1       2.961  -0.801  22.022  0.00  0.00    -0.456 OA
BRANCH   5  34
ATOM     34  C   UNL     1       3.973  -0.401  22.879  0.00  0.00    +0.128 A 
ATOM     36  C   UNL     1       4.528  -1.313  23.776  0.00  0.00    +0.046 A 
ATOM     37  C   UNL     1       4.435   0.915  22.845  0.00  0.00    +0.046 A 
ATOM     38  C   UNL     1       5.546  -0.909  24.641  0.00  0.00    +0.004 A 
ATOM     39  C   UNL     1       5.453   1.318  23.710  0.00  0.00    +0.004 A 
ATOM     40  C   UNL     1       6.008   0.406  24.607  0.00  0.00    +0.000 A 
ENDBRANCH   5  34
ENDBRANCH  30   5
ENDBRANCH  10  22
ENDBRANCH   3  18
ENDBRANCH  14   3
TORSDOF 8
ENDMDL
MODEL 5
REMARK VINA RESULT:      11.4      1.823      4.310
REMARK  Name = 44716812
REMARK  9 active torsions:
REMARK  status: ('A' for Active; 'I' for Inactive)
REMARK    1  A    between atoms: O_3  and  C_14
REMARK    2  A    between atoms: O_3  and  C_18
REMARK    3  A    between atoms: O_5  and  C_30
REMARK    4  A    between atoms: O_5  and  C_34
REMARK    5  A    between atoms: O_6  and  C_33
REMARK    6  A    between atoms: O_6  and  C_35
REMARK    7  A    between atoms: N_7  and  C_13
REMARK    8  A    between atoms: N_10  and  C_22
REMARK    9  A    between atoms: C_19  and  C_23
REMARK                            x       y       z     vdW  Elec       q    Type
REMARK                         _______ _______ _______ _____ _____    ______ ____
ROOT
ATOM      1  O   UNL     1      -3.568   1.340  24.365  0.00  0.00    -0.368 OA
ATOM      2  O   UNL     1      -6.022   2.006  26.082  0.00  0.00    -0.368 OA
ATOM     11  C   UNL     1      -5.682   0.834  25.312  0.00  0.00    +0.173 C 
ATOM     12  C   UNL     1      -4.973   1.320  24.064  0.00  0.00    +0.192 C 
ATOM     13  C   UNL     1      -4.633   0.024  26.037  0.00  0.00    +0.130 C 
ATOM     14  C   UNL     1      -5.529   2.713  23.893  0.00  0.00    +0.235 C 
ATOM     15  C   UNL     1      -3.349   0.737  25.649  0.00  0.00    +0.185 C 
ATOM     16  C   UNL     1      -5.676   3.175  25.325  0.00  0.00    +0.207 C 
ENDROOT
BRANCH  13   7
ATOM      7  N   UNL     1      -4.621  -1.336  25.545  0.00  0.00    -0.306 N 
ATOM      8  N   UNL     1      -2.495  -1.095  24.641  0.00  0.00    -0.214 NA
ATOM      9  N   UNL     1      -3.702  -3.172  24.458  0.00  0.00    -0.223 NA
ATOM     17  C   UNL     1      -3.560  -1.892  24.851  0.00  0.00    +0.216 A 
ATOM     19  C   UNL     1      -1.477  -1.670  23.966  0.00  0.00    +0.076 A 
ATOM     20  C   UNL     1      -2.648  -3.683  23.789  0.00  0.00    +0.116 A 
ATOM     21  C   UNL     1      -1.499  -2.972  23.510  0.00  0.00    +0.048 A 
ATOM     41  H   UNL     1      -5.403  -1.947  25.751  0.00  0.00    +0.149 HD
BRANCH  19  23
ATOM     23  C   UNL     1      -0.333  -0.819  23.740  0.00  0.00    +0.001 A 
ATOM     26  C   UNL     1      -0.200   0.374  24.448  0.00  0.00    +0.013 A 
ATOM     27  C   UNL     1       0.640  -1.192  22.813  0.00  0.00    +0.013 A 
ATOM     31  C   UNL     1       0.906   1.196  24.230  0.00  0.00    +0.046 A 
ATOM     32  C   UNL     1       1.746  -0.371  22.595  0.00  0.00    +0.046 A 
ATOM     33  C   UNL     1       1.878   0.823  23.303  0.00  0.00    +0.120 A 
BRANCH  33   6
ATOM      6  O   UNL     1       2.958   1.625  23.090  0.00  0.00    -0.495 OA
ATOM     35  C   UNL     1       4.179   0.985  22.720  0.00  0.00    +0.277 C 
ENDBRANCH  33   6
ENDBRANCH  19  23
ENDBRANCH  13   7
BRANCH  14   3
ATOM      3  O   UNL     1      -4.691   3.565  23.145  0.00  0.00    -0.442 OA
BRANCH   3  18
ATOM      4  O   UNL     1      -2.541   3.198  22.457  0.00  0.00    -0.226 OA
ATOM     10  N   UNL     1      -3.054   3.654  24.695  0.00  0.00    -0.251 N 
ATOM     18  C   UNL     1      -3.332   3.448  23.358  0.00  0.00    +0.405 C 
ATOM     42  H   UNL     1      -3.852   3.852  25.295  0.00  0.00    +0.158 HD
BRANCH  10  22
ATOM     22  C   UNL     1      -1.796   3.625  25.337  0.00  0.00    +0.037 A 
ATOM     24  C   UNL     1      -1.569   2.738  26.389  0.00  0.00    +0.027 A 
ATOM     25  C   UNL     1      -0.779   4.484  24.917  0.00  0.00    +0.027 A 
ATOM     28  C   UNL     1      -0.326   2.708  27.021  0.00  0.00    +0.048 A 
ATOM     29  C   UNL     1       0.464   4.454  25.549  0.00  0.00    +0.048 A 
ATOM     30  C   UNL     1       0.690   3.566  26.602  0.00  0.00    +0.129 A 
BRANCH  30   5
ATOM      5  O   UNL     1       1.903   3.536  27.217  0.00  0.00    -0.456 OA
BRANCH   5  34
ATOM     34  C   UNL     1       1.978   2.933  28.462  0.00  0.00    +0.128 A 
ATOM     36  C   UNL     1       3.138   2.256  28.840  0.00  0.00    +0.046 A 
ATOM     37  C   UNL     1       0.893   3.001  29.336  0.00  0.00    +0.046 A 
ATOM     38  C   UNL     1       3.213   1.647  30.094  0.00  0.00    +0.004 A 
ATOM     39  C   UNL     1       0.968   2.392  30.590  0.00  0.00    +0.004 A 
ATOM     40  C   UNL     1       2.128   1.715  30.968  0.00  0.00    +0.000 A 
ENDBRANCH   5  34
ENDBRANCH  30   5
ENDBRANCH  10  22
ENDBRANCH   3  18
ENDBRANCH  14   3
TORSDOF 8
ENDMDL
MODEL 6
REMARK VINA RESULT:      11.6      2.466      4.984
REMARK  Name = 44716812
REMARK  9 active torsions:
REMARK  status: ('A' for Active; 'I' for Inactive)
REMARK    1  A    between atoms: O_3  and  C_14
REMARK    2  A    between atoms: O_3  and  C_18
REMARK    3  A    between atoms: O_5  and  C_30
REMARK    4  A    between atoms: O_5  and  C_34
REMARK    5  A    between atoms: O_6  and  C_33
REMARK    6  A    between atoms: O_6  and  C_35
REMARK    7  A    between atoms: N_7  and  C_13
REMARK    8  A    between atoms: N_10  and  C_22
REMARK    9  A    between atoms: C_19  and  C_23
REMARK                            x       y       z     vdW  Elec       q    Type
REMARK                         _______ _______ _______ _____ _____    ______ ____
ROOT
ATOM      1  O   UNL     1      -2.023   2.345  25.300  0.00  0.00    -0.368 OA
ATOM      2  O   UNL     1      -0.636   4.960  24.493  0.00  0.00    -0.368 OA
ATOM     11  C   UNL     1      -2.031   4.598  24.559  0.00  0.00    +0.173 C 
ATOM     12  C   UNL     1      -2.130   3.152  24.116  0.00  0.00    +0.192 C 
ATOM     13  C   UNL     1      -2.492   4.571  25.997  0.00  0.00    +0.130 C 
ATOM     14  C   UNL     1      -0.922   2.999  23.224  0.00  0.00    +0.235 C 
ATOM     15  C   UNL     1      -2.041   3.196  26.457  0.00  0.00    +0.185 C 
ATOM     16  C   UNL     1       0.100   3.869  23.921  0.00  0.00    +0.207 C 
ENDROOT
BRANCH  13   7
ATOM      7  N   UNL     1      -3.933   4.676  26.064  0.00  0.00    -0.306 N 
ATOM      8  N   UNL     1      -4.218   2.423  25.577  0.00  0.00    -0.214 NA
ATOM      9  N   UNL     1      -6.109   3.869  25.951  0.00  0.00    -0.223 NA
ATOM     17  C   UNL     1      -4.791   3.610  25.854  0.00  0.00    +0.216 A 
ATOM     19  C   UNL     1      -5.083   1.405  25.382  0.00  0.00    +0.076 A 
ATOM     20  C   UNL     1      -6.915   2.807  25.745  0.00  0.00    +0.116 A 
ATOM     21  C   UNL     1      -6.454   1.540  25.454  0.00  0.00    +0.048 A 
ATOM     41  H   UNL     1      -4.357   5.560  26.325  0.00  0.00    +0.149 HD
BRANCH  19  23
ATOM     23  C   UNL     1      -4.473   0.131  25.085  0.00  0.00    +0.001 A 
ATOM     26  C   UNL     1      -4.735  -0.502  23.871  0.00  0.00    +0.013 A 
ATOM     27  C   UNL     1      -3.620  -0.467  26.014  0.00  0.00    +0.013 A 
ATOM     31  C   UNL     1      -4.145  -1.733  23.584  0.00  0.00    +0.046 A 
ATOM     32  C   UNL     1      -3.030  -1.697  25.727  0.00  0.00    +0.046 A 
ATOM     33  C   UNL     1      -3.293  -2.331  24.512  0.00  0.00    +0.120 A 
BRANCH  33   6
ATOM      6  O   UNL     1      -2.717  -3.532  24.233  0.00  0.00    -0.495 OA
ATOM     35  C   UNL     1      -1.376  -3.512  23.745  0.00  0.00    +0.277 C 
ENDBRANCH  33   6
ENDBRANCH  19  23
ENDBRANCH  13   7
BRANCH  14   3
ATOM      3  O   UNL     1      -0.483   1.666  23.095  0.00  0.00    -0.442 OA
BRANCH   3  18
ATOM      4  O   UNL     1       0.895   1.567  24.917  0.00  0.00    -0.226 OA
ATOM     10  N   UNL     1       1.549   0.719  22.835  0.00  0.00    -0.251 N 
ATOM     18  C   UNL     1       0.695   1.332  23.732  0.00  0.00    +0.405 C 
ATOM     42  H   UNL     1       1.201   0.611  21.886  0.00  0.00    +0.158 HD
BRANCH  10  22
ATOM     22  C   UNL     1       2.851   0.223  23.073  0.00  0.00    +0.037 A 
ATOM     24  C   UNL     1       3.961   1.028  22.821  0.00  0.00    +0.027 A 
ATOM     25  C   UNL     1       3.024  -1.072  23.563  0.00  0.00    +0.027 A 
ATOM     28  C   UNL     1       5.246   0.538  23.057  0.00  0.00    +0.048 A 
ATOM     29  C   UNL     1       4.309  -1.561  23.799  0.00  0.00    +0.048 A 
ATOM     30  C   UNL     1       5.419  -0.756  23.546  0.00  0.00    +0.129 A 
BRANCH  30   5
ATOM      5  O   UNL     1       6.673  -1.232  23.778  0.00  0.00    -0.456 OA
BRANCH   5  34
ATOM     34  C   UNL     1       7.738  -0.372  23.565  0.00  0.00    +0.128 A 
ATOM     36  C   UNL     1       7.728   0.902  24.132  0.00  0.00    +0.046 A 
ATOM     37  C   UNL     1       8.818  -0.780  22.783  0.00  0.00    +0.046 A 
ATOM     38  C   UNL     1       8.800   1.769  23.917  0.00  0.00    +0.004 A 
ATOM     39  C   UNL     1       9.890   0.087  22.567  0.00  0.00    +0.004 A 
ATOM     40  C   UNL     1       9.880   1.361  23.134  0.00  0.00    +0.000 A 
ENDBRANCH   5  34
ENDBRANCH  30   5
ENDBRANCH  10  22
ENDBRANCH   3  18
ENDBRANCH  14   3
TORSDOF 8
ENDMDL
