MODEL 1
REMARK VINA RESULT:      -3.1      0.000      0.000
REMARK  Name = 45783765
REMARK  7 active torsions:
REMARK  status: ('A' for Active; 'I' for Inactive)
REMARK    1  A    between atoms: N_2  and  C_12
REMARK    2  A    between atoms: N_6  and  C_26
REMARK    3  A    between atoms: N_6  and  C_27
REMARK    4  A    between atoms: C_8  and  C_13
REMARK    5  A    between atoms: C_12  and  C_14
REMARK    6  A    between atoms: C_17  and  C_20
REMARK    7  A    between atoms: C_18  and  C_24
REMARK                            x       y       z     vdW  Elec       q    Type
REMARK                         _______ _______ _______ _____ _____    ______ ____
ROOT
ATOM      2  N   UNL     1      -4.781   1.380  24.891  0.00  0.00    -0.287 NA
ATOM      8  C   UNL     1      -4.182   2.638  24.405  0.00  0.00    +0.146 C 
ATOM      9  C   UNL     1      -4.706   3.718  25.368  0.00  0.00    +0.030 C 
ATOM     10  C   UNL     1      -5.637   2.984  26.323  0.00  0.00    +0.017 C 
ATOM     11  C   UNL     1      -6.037   1.745  25.547  0.00  0.00    +0.085 C 
ENDROOT
BRANCH   8  13
ATOM      1  O   UNL     1      -2.006   3.577  25.002  0.00  0.00    -0.336 OA
ATOM      3  N   UNL     1      -1.890   1.707  23.774  0.00  0.00    -0.190 NA
ATOM      4  N   UNL     1      -0.642   3.316  24.818  0.00  0.00    -0.056 NA
ATOM     13  C   UNL     1      -2.670   2.582  24.356  0.00  0.00    +0.245 A 
ATOM     17  C   UNL     1      -0.655   2.198  24.085  0.00  0.00    +0.204 A 
BRANCH  17  20
ATOM      5  N   UNL     1       2.946   1.612  23.375  0.00  0.00    -0.240 NA
ATOM     20  C   UNL     1       0.546   1.547  23.649  0.00  0.00    +0.041 A 
ATOM     22  C   UNL     1       0.510   0.272  23.096  0.00  0.00    +0.016 A 
ATOM     23  C   UNL     1       1.779   2.170  23.765  0.00  0.00    +0.124 A 
ATOM     25  C   UNL     1       1.691  -0.334  22.682  0.00  0.00    +0.044 A 
ATOM     26  C   UNL     1       2.872   0.373  22.841  0.00  0.00    +0.118 A 
BRANCH  26   6
ATOM      6  N   UNL     1       4.067  -0.259  22.415  0.00  0.00    -0.332 N 
ATOM     27  C   UNL     1       5.324  -0.040  23.055  0.00  0.00    +0.127 C 
ATOM     28  H   UNL     1       4.059  -0.697  21.500  0.00  0.00    +0.147 HD
ENDBRANCH  26   6
ENDBRANCH  17  20
ENDBRANCH   8  13
BRANCH   2  12
ATOM     12  C   UNL     1      -4.979   0.393  23.838  0.00  0.00    +0.120 C 
BRANCH  12  14
ATOM     14  C   UNL     1      -4.180  -0.859  24.084  0.00  0.00    -0.032 A 
ATOM     15  C   UNL     1      -2.899  -0.775  24.627  0.00  0.00    +0.023 A 
ATOM     16  C   UNL     1      -4.724  -2.105  23.769  0.00  0.00    +0.005 A 
ATOM     18  C   UNL     1      -2.160  -1.937  24.856  0.00  0.00    +0.052 A 
ATOM     19  C   UNL     1      -3.986  -3.266  23.998  0.00  0.00    +0.002 A 
ATOM     21  C   UNL     1      -2.704  -3.182  24.540  0.00  0.00    +0.019 A 
BRANCH  18  24
ATOM      7  N   UNL     1       0.219  -1.782  25.866  0.00  0.00    -0.191 NA
ATOM     24  C   UNL     1      -0.847  -1.851  25.413  0.00  0.00    +0.099 C 
ENDBRANCH  18  24
ENDBRANCH  12  14
ENDBRANCH   2  12
TORSDOF 6
ENDMDL
MODEL 2
REMARK VINA RESULT:      -2.7      1.182      1.508
REMARK  Name = 45783765
REMARK  7 active torsions:
REMARK  status: ('A' for Active; 'I' for Inactive)
REMARK    1  A    between atoms: N_2  and  C_12
REMARK    2  A    between atoms: N_6  and  C_26
REMARK    3  A    between atoms: N_6  and  C_27
REMARK    4  A    between atoms: C_8  and  C_13
REMARK    5  A    between atoms: C_12  and  C_14
REMARK    6  A    between atoms: C_17  and  C_20
REMARK    7  A    between atoms: C_18  and  C_24
REMARK                            x       y       z     vdW  Elec       q    Type
REMARK                         _______ _______ _______ _____ _____    ______ ____
ROOT
ATOM      2  N   UNL     1      -4.003   2.304  25.537  0.00  0.00    -0.287 NA
ATOM      8  C   UNL     1      -3.559   2.918  24.270  0.00  0.00    +0.146 C 
ATOM      9  C   UNL     1      -3.198   4.367  24.642  0.00  0.00    +0.030 C 
ATOM     10  C   UNL     1      -3.528   4.493  26.123  0.00  0.00    +0.017 C 
ATOM     11  C   UNL     1      -4.542   3.391  26.356  0.00  0.00    +0.085 C 
ENDROOT
BRANCH   8  13
ATOM      1  O   UNL     1      -2.690   1.453  22.518  0.00  0.00    -0.336 OA
ATOM      3  N   UNL     1      -1.151   2.111  24.006  0.00  0.00    -0.190 NA
ATOM      4  N   UNL     1      -1.485   0.860  22.120  0.00  0.00    -0.056 NA
ATOM     13  C   UNL     1      -2.405   2.172  23.635  0.00  0.00    +0.245 A 
ATOM     17  C   UNL     1      -0.625   1.296  23.047  0.00  0.00    +0.204 A 
BRANCH  17  20
ATOM      5  N   UNL     1       3.066   1.591  23.372  0.00  0.00    -0.240 NA
ATOM     20  C   UNL     1       0.763   0.937  23.041  0.00  0.00    +0.041 A 
ATOM     22  C   UNL     1       1.168  -0.353  22.718  0.00  0.00    +0.016 A 
ATOM     23  C   UNL     1       1.743   1.865  23.357  0.00  0.00    +0.124 A 
ATOM     25  C   UNL     1       2.522  -0.672  22.721  0.00  0.00    +0.044 A 
ATOM     26  C   UNL     1       3.422   0.327  23.052  0.00  0.00    +0.118 A 
BRANCH  26   6
ATOM      6  N   UNL     1       4.798  -0.015  23.051  0.00  0.00    -0.332 N 
ATOM     27  C   UNL     1       5.455  -0.563  24.193  0.00  0.00    +0.127 C 
ATOM     28  H   UNL     1       5.365   0.350  22.294  0.00  0.00    +0.147 HD
ENDBRANCH  26   6
ENDBRANCH  17  20
ENDBRANCH   8  13
BRANCH   2  12
ATOM     12  C   UNL     1      -4.968   1.229  25.348  0.00  0.00    +0.120 C 
BRANCH  12  14
ATOM     14  C   UNL     1      -4.301  -0.059  24.946  0.00  0.00    -0.032 A 
ATOM     15  C   UNL     1      -2.994  -0.326  25.353  0.00  0.00    +0.023 A 
ATOM     16  C   UNL     1      -4.992  -0.987  24.165  0.00  0.00    +0.005 A 
ATOM     18  C   UNL     1      -2.378  -1.521  24.980  0.00  0.00    +0.052 A 
ATOM     19  C   UNL     1      -4.376  -2.181  23.793  0.00  0.00    +0.002 A 
ATOM     21  C   UNL     1      -3.069  -2.448  24.199  0.00  0.00    +0.019 A 
BRANCH  18  24
ATOM      7  N   UNL     1       0.048  -2.019  25.735  0.00  0.00    -0.191 NA
ATOM     24  C   UNL     1      -1.039  -1.796  25.397  0.00  0.00    +0.099 C 
ENDBRANCH  18  24
ENDBRANCH  12  14
ENDBRANCH   2  12
TORSDOF 6
ENDMDL
MODEL 3
REMARK VINA RESULT:      -1.6      2.112      3.857
REMARK  Name = 45783765
REMARK  7 active torsions:
REMARK  status: ('A' for Active; 'I' for Inactive)
REMARK    1  A    between atoms: N_2  and  C_12
REMARK    2  A    between atoms: N_6  and  C_26
REMARK    3  A    between atoms: N_6  and  C_27
REMARK    4  A    between atoms: C_8  and  C_13
REMARK    5  A    between atoms: C_12  and  C_14
REMARK    6  A    between atoms: C_17  and  C_20
REMARK    7  A    between atoms: C_18  and  C_24
REMARK                            x       y       z     vdW  Elec       q    Type
REMARK                         _______ _______ _______ _____ _____    ______ ____
ROOT
ATOM      2  N   UNL     1      -4.936   2.719  25.170  0.00  0.00    -0.287 NA
ATOM      8  C   UNL     1      -4.241   1.417  25.217  0.00  0.00    +0.146 C 
ATOM      9  C   UNL     1      -5.314   0.386  24.824  0.00  0.00    +0.030 C 
ATOM     10  C   UNL     1      -6.592   1.193  24.636  0.00  0.00    +0.017 C 
ATOM     11  C   UNL     1      -6.345   2.446  25.453  0.00  0.00    +0.085 C 
ENDROOT
BRANCH   8  13
ATOM      1  O   UNL     1      -3.204   1.826  23.042  0.00  0.00    -0.336 OA
ATOM      3  N   UNL     1      -1.815   0.954  24.568  0.00  0.00    -0.190 NA
ATOM      4  N   UNL     1      -1.964   1.686  22.405  0.00  0.00    -0.056 NA
ATOM     13  C   UNL     1      -3.028   1.372  24.311  0.00  0.00    +0.245 A 
ATOM     17  C   UNL     1      -1.198   1.167  23.369  0.00  0.00    +0.204 A 
BRANCH  17  20
ATOM      5  N   UNL     1       2.508   1.400  23.556  0.00  0.00    -0.240 NA
ATOM     20  C   UNL     1       0.186   0.850  23.168  0.00  0.00    +0.041 A 
ATOM     22  C   UNL     1       0.566  -0.262  22.424  0.00  0.00    +0.016 A 
ATOM     23  C   UNL     1       1.187   1.643  23.707  0.00  0.00    +0.124 A 
ATOM     25  C   UNL     1       1.916  -0.544  22.246  0.00  0.00    +0.044 A 
ATOM     26  C   UNL     1       2.839   0.311  22.827  0.00  0.00    +0.118 A 
BRANCH  26   6
ATOM      6  N   UNL     1       4.211   0.010  22.637  0.00  0.00    -0.332 N 
ATOM     27  C   UNL     1       5.216   0.366  23.585  0.00  0.00    +0.127 C 
ATOM     28  H   UNL     1       4.500  -0.264  21.703  0.00  0.00    +0.147 HD
ENDBRANCH  26   6
ENDBRANCH  17  20
ENDBRANCH   8  13
BRANCH   2  12
ATOM     12  C   UNL     1      -4.373   3.703  26.086  0.00  0.00    +0.120 C 
BRANCH  12  14
ATOM     14  C   UNL     1      -2.935   4.010  25.765  0.00  0.00    -0.032 A 
ATOM     15  C   UNL     1      -1.911   3.369  26.462  0.00  0.00    +0.023 A 
ATOM     16  C   UNL     1      -2.627   4.939  24.770  0.00  0.00    +0.005 A 
ATOM     18  C   UNL     1      -0.579   3.654  26.163  0.00  0.00    +0.052 A 
ATOM     19  C   UNL     1      -1.295   5.223  24.471  0.00  0.00    +0.002 A 
ATOM     21  C   UNL     1      -0.271   4.583  25.167  0.00  0.00    +0.019 A 
BRANCH  18  24
ATOM      7  N   UNL     1       1.323   2.463  27.454  0.00  0.00    -0.191 NA
ATOM     24  C   UNL     1       0.471   2.997  26.875  0.00  0.00    +0.099 C 
ENDBRANCH  18  24
ENDBRANCH  12  14
ENDBRANCH   2  12
TORSDOF 6
ENDMDL
MODEL 4
REMARK VINA RESULT:      -1.4      1.713      4.429
REMARK  Name = 45783765
REMARK  7 active torsions:
REMARK  status: ('A' for Active; 'I' for Inactive)
REMARK    1  A    between atoms: N_2  and  C_12
REMARK    2  A    between atoms: N_6  and  C_26
REMARK    3  A    between atoms: N_6  and  C_27
REMARK    4  A    between atoms: C_8  and  C_13
REMARK    5  A    between atoms: C_12  and  C_14
REMARK    6  A    between atoms: C_17  and  C_20
REMARK    7  A    between atoms: C_18  and  C_24
REMARK                            x       y       z     vdW  Elec       q    Type
REMARK                         _______ _______ _______ _____ _____    ______ ____
ROOT
ATOM      2  N   UNL     1      -3.362  -0.976  24.637  0.00  0.00    -0.287 NA
ATOM      8  C   UNL     1      -2.120  -1.771  24.711  0.00  0.00    +0.146 C 
ATOM      9  C   UNL     1      -2.428  -3.053  23.917  0.00  0.00    +0.030 C 
ATOM     10  C   UNL     1      -3.883  -2.917  23.489  0.00  0.00    +0.017 C 
ATOM     11  C   UNL     1      -4.458  -1.934  24.489  0.00  0.00    +0.085 C 
ENDROOT
BRANCH   8  13
ATOM      1  O   UNL     1      -1.177   0.112  23.471  0.00  0.00    -0.336 OA
ATOM      3  N   UNL     1       0.354  -1.311  24.278  0.00  0.00    -0.190 NA
ATOM      4  N   UNL     1       0.070   0.617  23.079  0.00  0.00    -0.056 NA
ATOM     13  C   UNL     1      -0.918  -1.024  24.171  0.00  0.00    +0.245 A 
ATOM     17  C   UNL     1       0.922  -0.276  23.593  0.00  0.00    +0.204 A 
BRANCH  17  20
ATOM      5  N   UNL     1       4.533  -1.152  23.704  0.00  0.00    -0.240 NA
ATOM     20  C   UNL     1       2.343  -0.163  23.440  0.00  0.00    +0.041 A 
ATOM     22  C   UNL     1       2.918   0.985  22.908  0.00  0.00    +0.016 A 
ATOM     23  C   UNL     1       3.187  -1.195  23.821  0.00  0.00    +0.124 A 
ATOM     25  C   UNL     1       4.299   1.066  22.772  0.00  0.00    +0.044 A 
ATOM     26  C   UNL     1       5.055  -0.020  23.182  0.00  0.00    +0.118 A 
BRANCH  26   6
ATOM      6  N   UNL     1       6.462   0.078  23.037  0.00  0.00    -0.332 N 
ATOM     27  C   UNL     1       7.277  -1.034  22.669  0.00  0.00    +0.127 C 
ATOM     28  H   UNL     1       6.911   0.901  23.422  0.00  0.00    +0.147 HD
ENDBRANCH  26   6
ENDBRANCH  17  20
ENDBRANCH   8  13
BRANCH   2  12
ATOM     12  C   UNL     1      -3.552  -0.099  25.785  0.00  0.00    +0.120 C 
BRANCH  12  14
ATOM     14  C   UNL     1      -3.734   1.337  25.369  0.00  0.00    -0.032 A 
ATOM     15  C   UNL     1      -2.645   2.208  25.371  0.00  0.00    +0.023 A 
ATOM     16  C   UNL     1      -4.993   1.795  24.982  0.00  0.00    +0.005 A 
ATOM     18  C   UNL     1      -2.815   3.538  24.985  0.00  0.00    +0.052 A 
ATOM     19  C   UNL     1      -5.163   3.124  24.596  0.00  0.00    +0.002 A 
ATOM     21  C   UNL     1      -4.075   3.996  24.598  0.00  0.00    +0.019 A 
BRANCH  18  24
ATOM      7  N   UNL     1      -0.795   5.157  24.987  0.00  0.00    -0.191 NA
ATOM     24  C   UNL     1      -1.700   4.432  24.986  0.00  0.00    +0.099 C 
ENDBRANCH  18  24
ENDBRANCH  12  14
ENDBRANCH   2  12
TORSDOF 6
ENDMDL
MODEL 5
REMARK VINA RESULT:      -1.3      1.126      1.574
REMARK  Name = 45783765
REMARK  7 active torsions:
REMARK  status: ('A' for Active; 'I' for Inactive)
REMARK    1  A    between atoms: N_2  and  C_12
REMARK    2  A    between atoms: N_6  and  C_26
REMARK    3  A    between atoms: N_6  and  C_27
REMARK    4  A    between atoms: C_8  and  C_13
REMARK    5  A    between atoms: C_12  and  C_14
REMARK    6  A    between atoms: C_17  and  C_20
REMARK    7  A    between atoms: C_18  and  C_24
REMARK                            x       y       z     vdW  Elec       q    Type
REMARK                         _______ _______ _______ _____ _____    ______ ____
ROOT
ATOM      2  N   UNL     1      -4.883   1.688  25.288  0.00  0.00    -0.287 NA
ATOM      8  C   UNL     1      -4.213   2.502  24.255  0.00  0.00    +0.146 C 
ATOM      9  C   UNL     1      -4.727   3.934  24.491  0.00  0.00    +0.030 C 
ATOM     10  C   UNL     1      -5.725   3.816  25.635  0.00  0.00    +0.017 C 
ATOM     11  C   UNL     1      -6.147   2.361  25.590  0.00  0.00    +0.085 C 
ENDROOT
BRANCH   8  13
ATOM      1  O   UNL     1      -2.086   3.214  25.225  0.00  0.00    -0.336 OA
ATOM      3  N   UNL     1      -1.889   1.645  23.638  0.00  0.00    -0.190 NA
ATOM      4  N   UNL     1      -0.715   2.949  25.107  0.00  0.00    -0.056 NA
ATOM     13  C   UNL     1      -2.704   2.404  24.325  0.00  0.00    +0.245 A 
ATOM     17  C   UNL     1      -0.680   2.014  24.152  0.00  0.00    +0.204 A 
BRANCH  17  20
ATOM      5  N   UNL     1       2.922   1.646  23.307  0.00  0.00    -0.240 NA
ATOM     20  C   UNL     1       0.545   1.428  23.691  0.00  0.00    +0.041 A 
ATOM     22  C   UNL     1       0.577   0.130  23.194  0.00  0.00    +0.016 A 
ATOM     23  C   UNL     1       1.735   2.139  23.725  0.00  0.00    +0.124 A 
ATOM     25  C   UNL     1       1.780  -0.411  22.754  0.00  0.00    +0.044 A 
ATOM     26  C   UNL     1       2.914   0.382  22.831  0.00  0.00    +0.118 A 
BRANCH  26   6
ATOM      6  N   UNL     1       4.132  -0.185  22.379  0.00  0.00    -0.332 N 
ATOM     27  C   UNL     1       5.345  -0.096  23.124  0.00  0.00    +0.127 C 
ATOM     28  H   UNL     1       4.181  -0.461  21.404  0.00  0.00    +0.147 HD
ENDBRANCH  26   6
ENDBRANCH  17  20
ENDBRANCH   8  13
BRANCH   2  12
ATOM     12  C   UNL     1      -5.082   0.301  24.887  0.00  0.00    +0.120 C 
BRANCH  12  14
ATOM     14  C   UNL     1      -3.832  -0.518  25.061  0.00  0.00    -0.032 A 
ATOM     15  C   UNL     1      -3.579  -1.597  24.214  0.00  0.00    +0.023 A 
ATOM     16  C   UNL     1      -2.925  -0.198  26.072  0.00  0.00    +0.005 A 
ATOM     18  C   UNL     1      -2.419  -2.354  24.376  0.00  0.00    +0.052 A 
ATOM     19  C   UNL     1      -1.765  -0.955  26.234  0.00  0.00    +0.002 A 
ATOM     21  C   UNL     1      -1.512  -2.034  25.387  0.00  0.00    +0.019 A 
BRANCH  18  24
ATOM      7  N   UNL     1      -1.947  -4.356  22.803  0.00  0.00    -0.191 NA
ATOM     24  C   UNL     1      -2.158  -3.459  23.508  0.00  0.00    +0.099 C 
ENDBRANCH  18  24
ENDBRANCH  12  14
ENDBRANCH   2  12
TORSDOF 6
ENDMDL
MODEL 6
REMARK VINA RESULT:       0.4      1.858      2.829
REMARK  Name = 45783765
REMARK  7 active torsions:
REMARK  status: ('A' for Active; 'I' for Inactive)
REMARK    1  A    between atoms: N_2  and  C_12
REMARK    2  A    between atoms: N_6  and  C_26
REMARK    3  A    between atoms: N_6  and  C_27
REMARK    4  A    between atoms: C_8  and  C_13
REMARK    5  A    between atoms: C_12  and  C_14
REMARK    6  A    between atoms: C_17  and  C_20
REMARK    7  A    between atoms: C_18  and  C_24
REMARK                            x       y       z     vdW  Elec       q    Type
REMARK                         _______ _______ _______ _____ _____    ______ ____
ROOT
ATOM      2  N   UNL     1      -3.073   2.633  25.386  0.00  0.00    -0.287 NA
ATOM      8  C   UNL     1      -2.367   3.112  24.182  0.00  0.00    +0.146 C 
ATOM      9  C   UNL     1      -1.821   4.497  24.573  0.00  0.00    +0.030 C 
ATOM     10  C   UNL     1      -2.322   4.737  25.990  0.00  0.00    +0.017 C 
ATOM     11  C   UNL     1      -3.529   3.826  26.100  0.00  0.00    +0.085 C 
ENDROOT
BRANCH   8  13
ATOM      1  O   UNL     1      -1.681   1.073  23.022  0.00  0.00    -0.336 OA
ATOM      3  N   UNL     1       0.015   2.229  23.920  0.00  0.00    -0.190 NA
ATOM      4  N   UNL     1      -0.517   0.354  22.721  0.00  0.00    -0.056 NA
ATOM     13  C   UNL     1      -1.278   2.162  23.729  0.00  0.00    +0.245 A 
ATOM     17  C   UNL     1       0.440   1.100  23.283  0.00  0.00    +0.204 A 
BRANCH  17  20
ATOM      5  N   UNL     1       3.532  -0.961  23.406  0.00  0.00    -0.240 NA
ATOM     20  C   UNL     1       1.828   0.744  23.225  0.00  0.00    +0.041 A 
ATOM     22  C   UNL     1       2.801   1.698  22.949  0.00  0.00    +0.016 A 
ATOM     23  C   UNL     1       2.242  -0.560  23.446  0.00  0.00    +0.124 A 
ATOM     25  C   UNL     1       4.139   1.323  22.900  0.00  0.00    +0.044 A 
ATOM     26  C   UNL     1       4.449  -0.007  23.134  0.00  0.00    +0.118 A 
BRANCH  26   6
ATOM      6  N   UNL     1       5.818  -0.372  23.080  0.00  0.00    -0.332 N 
ATOM     27  C   UNL     1       6.495  -0.984  24.176  0.00  0.00    +0.127 C 
ATOM     28  H   UNL     1       6.371   0.018  22.325  0.00  0.00    +0.147 HD
ENDBRANCH  26   6
ENDBRANCH  17  20
ENDBRANCH   8  13
BRANCH   2  12
ATOM     12  C   UNL     1      -4.171   1.723  25.084  0.00  0.00    +0.120 C 
BRANCH  12  14
ATOM     14  C   UNL     1      -3.723   0.285  25.085  0.00  0.00    -0.032 A 
ATOM     15  C   UNL     1      -4.359  -0.645  24.263  0.00  0.00    +0.023 A 
ATOM     16  C   UNL     1      -2.672  -0.116  25.911  0.00  0.00    +0.005 A 
ATOM     18  C   UNL     1      -3.942  -1.977  24.265  0.00  0.00    +0.052 A 
ATOM     19  C   UNL     1      -2.256  -1.446  25.912  0.00  0.00    +0.002 A 
ATOM     21  C   UNL     1      -2.890  -2.378  25.091  0.00  0.00    +0.019 A 
BRANCH  18  24
ATOM      7  N   UNL     1      -5.118  -3.705  22.739  0.00  0.00    -0.191 NA
ATOM     24  C   UNL     1      -4.591  -2.931  23.423  0.00  0.00    +0.099 C 
ENDBRANCH  18  24
ENDBRANCH  12  14
ENDBRANCH   2  12
TORSDOF 6
ENDMDL
MODEL 7
REMARK VINA RESULT:       0.7      2.042      4.803
REMARK  Name = 45783765
REMARK  7 active torsions:
REMARK  status: ('A' for Active; 'I' for Inactive)
REMARK    1  A    between atoms: N_2  and  C_12
REMARK    2  A    between atoms: N_6  and  C_26
REMARK    3  A    between atoms: N_6  and  C_27
REMARK    4  A    between atoms: C_8  and  C_13
REMARK    5  A    between atoms: C_12  and  C_14
REMARK    6  A    between atoms: C_17  and  C_20
REMARK    7  A    between atoms: C_18  and  C_24
REMARK                            x       y       z     vdW  Elec       q    Type
REMARK                         _______ _______ _______ _____ _____    ______ ____
ROOT
ATOM      2  N   UNL     1      -2.915  -0.120  23.467  0.00  0.00    -0.287 NA
ATOM      8  C   UNL     1      -1.802  -0.115  24.438  0.00  0.00    +0.146 C 
ATOM      9  C   UNL     1      -2.097  -1.299  25.377  0.00  0.00    +0.030 C 
ATOM     10  C   UNL     1      -3.423  -1.870  24.894  0.00  0.00    +0.017 C 
ATOM     11  C   UNL     1      -4.063  -0.711  24.157  0.00  0.00    +0.085 C 
ENDROOT
BRANCH   8  13
ATOM      1  O   UNL     1      -0.448  -0.528  22.447  0.00  0.00    -0.336 OA
ATOM      3  N   UNL     1       0.746  -0.061  24.284  0.00  0.00    -0.190 NA
ATOM      4  N   UNL     1       0.898  -0.571  22.059  0.00  0.00    -0.056 NA
ATOM     13  C   UNL     1      -0.447  -0.221  23.771  0.00  0.00    +0.245 A 
ATOM     17  C   UNL     1       1.539  -0.284  23.196  0.00  0.00    +0.204 A 
BRANCH  17  20
ATOM      5  N   UNL     1       4.996   1.059  22.940  0.00  0.00    -0.240 NA
ATOM     20  C   UNL     1       2.969  -0.213  23.279  0.00  0.00    +0.041 A 
ATOM     22  C   UNL     1       3.714  -1.287  23.754  0.00  0.00    +0.016 A 
ATOM     23  C   UNL     1       3.652   0.927  22.887  0.00  0.00    +0.124 A 
ATOM     25  C   UNL     1       5.099  -1.189  23.823  0.00  0.00    +0.044 A 
ATOM     26  C   UNL     1       5.686  -0.005  23.407  0.00  0.00    +0.118 A 
BRANCH  26   6
ATOM      6  N   UNL     1       7.099   0.079  23.484  0.00  0.00    -0.332 N 
ATOM     27  C   UNL     1       7.963  -0.764  22.723  0.00  0.00    +0.127 C 
ATOM     28  H   UNL     1       7.490   0.597  24.263  0.00  0.00    +0.147 HD
ENDBRANCH  26   6
ENDBRANCH  17  20
ENDBRANCH   8  13
BRANCH   2  12
ATOM     12  C   UNL     1      -3.217   1.202  22.933  0.00  0.00    +0.120 C 
BRANCH  12  14
ATOM     14  C   UNL     1      -3.218   2.255  24.008  0.00  0.00    -0.032 A 
ATOM     15  C   UNL     1      -4.401   2.919  24.334  0.00  0.00    +0.023 A 
ATOM     16  C   UNL     1      -2.035   2.565  24.680  0.00  0.00    +0.005 A 
ATOM     18  C   UNL     1      -4.400   3.895  25.331  0.00  0.00    +0.052 A 
ATOM     19  C   UNL     1      -2.036   3.540  25.678  0.00  0.00    +0.002 A 
ATOM     21  C   UNL     1      -3.217   4.205  26.003  0.00  0.00    +0.019 A 
BRANCH  18  24
ATOM      7  N   UNL     1      -6.594   5.129  25.938  0.00  0.00    -0.191 NA
ATOM     24  C   UNL     1      -5.611   4.576  25.666  0.00  0.00    +0.099 C 
ENDBRANCH  18  24
ENDBRANCH  12  14
ENDBRANCH   2  12
TORSDOF 6
ENDMDL
