MODEL 1
REMARK VINA RESULT:       5.2      0.000      0.000
REMARK  Name = 11885159
REMARK  2 active torsions:
REMARK  status: ('A' for Active; 'I' for Inactive)
REMARK    1  A    between atoms: C_13  and  C_14
REMARK    2  A    between atoms: C_22  and  C_24
REMARK                            x       y       z     vdW  Elec       q    Type
REMARK                         _______ _______ _______ _____ _____    ______ ____
ROOT
ATOM      2  O   UNL     1      -3.057  -0.612  27.223  0.00  0.00    -0.275 OA
ATOM      3  O   UNL     1       1.040   2.086  25.094  0.00  0.00    -0.267 OA
ATOM      4  N   UNL     1      -3.685   0.393  25.225  0.00  0.00    -0.300 N 
ATOM      5  N   UNL     1      -1.043   1.782  24.091  0.00  0.00    -0.311 N 
ATOM      6  C   UNL     1      -3.185   2.832  25.019  0.00  0.00    +0.027 C 
ATOM      7  C   UNL     1      -3.286   1.432  22.999  0.00  0.00    +0.054 C 
ATOM      8  C   UNL     1      -3.663   2.796  23.573  0.00  0.00    +0.018 C 
ATOM      9  C   UNL     1      -3.855   1.713  25.836  0.00  0.00    +0.113 C 
ATOM     10  C   UNL     1      -4.005   0.323  23.791  0.00  0.00    +0.117 C 
ATOM     11  C   UNL     1      -1.656   2.722  25.037  0.00  0.00    +0.130 C 
ATOM     12  C   UNL     1      -1.786   1.212  23.054  0.00  0.00    +0.027 A 
ATOM     14  C   UNL     1      -3.323  -0.693  26.021  0.00  0.00    +0.219 C 
ATOM     17  C   UNL     1      -1.179   0.451  22.130  0.00  0.00    +0.022 A 
ATOM     20  C   UNL     1       0.345   1.574  24.215  0.00  0.00    +0.259 A 
ATOM     22  C   UNL     1       0.990   0.685  23.186  0.00  0.00    +0.047 A 
ATOM     23  C   UNL     1       0.229   0.182  22.204  0.00  0.00    +0.015 A 
ENDROOT
BRANCH  22  24
ATOM      1 CL   UNL     1       6.825  -0.624  23.440  0.00  0.00    -0.084 Cl
ATOM     24  C   UNL     1       2.427   0.363  23.248  0.00  0.00    -0.013 A 
ATOM     25  C   UNL     1       2.840  -0.908  23.651  0.00  0.00    +0.010 A 
ATOM     26  C   UNL     1       3.375   1.327  22.906  0.00  0.00    +0.010 A 
ATOM     27  C   UNL     1       4.200  -1.213  23.710  0.00  0.00    +0.020 A 
ATOM     28  C   UNL     1       4.735   1.022  22.965  0.00  0.00    +0.020 A 
ATOM     29  C   UNL     1       5.148  -0.247  23.368  0.00  0.00    +0.041 A 
ENDBRANCH  22  24
BRANCH  14  13
ATOM     13  C   UNL     1      -3.252  -2.029  25.343  0.00  0.00    +0.075 C 
ATOM     15  C   UNL     1      -1.863  -2.232  24.733  0.00  0.00    +0.013 C 
ATOM     16  C   UNL     1      -4.349  -2.134  24.281  0.00  0.00    +0.013 C 
ATOM     18  C   UNL     1      -1.775  -3.540  23.952  0.00  0.00    +0.001 C 
ATOM     19  C   UNL     1      -4.255  -3.443  23.501  0.00  0.00    +0.001 C 
ATOM     21  C   UNL     1      -2.869  -3.639  22.894  0.00  0.00    +0.000 C 
ENDBRANCH  14  13
TORSDOF 2
ENDMDL
MODEL 2
REMARK VINA RESULT:       6.3      3.070      3.916
REMARK  Name = 11885159
REMARK  2 active torsions:
REMARK  status: ('A' for Active; 'I' for Inactive)
REMARK    1  A    between atoms: C_13  and  C_14
REMARK    2  A    between atoms: C_22  and  C_24
REMARK                            x       y       z     vdW  Elec       q    Type
REMARK                         _______ _______ _______ _____ _____    ______ ____
ROOT
ATOM      2  O   UNL     1      -5.587   0.517  26.113  0.00  0.00    -0.275 OA
ATOM      3  O   UNL     1      -1.659   4.008  27.102  0.00  0.00    -0.267 OA
ATOM      4  N   UNL     1      -4.510   1.121  24.145  0.00  0.00    -0.300 N 
ATOM      5  N   UNL     1      -2.129   3.058  25.025  0.00  0.00    -0.311 N 
ATOM      6  C   UNL     1      -4.277   3.573  23.730  0.00  0.00    +0.027 C 
ATOM      7  C   UNL     1      -2.626   2.013  22.787  0.00  0.00    +0.054 C 
ATOM      8  C   UNL     1      -3.438   3.272  22.494  0.00  0.00    +0.018 C 
ATOM      9  C   UNL     1      -5.220   2.397  24.040  0.00  0.00    +0.113 C 
ATOM     10  C   UNL     1      -3.581   0.830  23.043  0.00  0.00    +0.117 C 
ATOM     11  C   UNL     1      -3.338   3.883  24.902  0.00  0.00    +0.130 C 
ATOM     12  C   UNL     1      -1.723   2.213  23.990  0.00  0.00    +0.027 A 
ATOM     14  C   UNL     1      -4.804   0.253  25.197  0.00  0.00    +0.219 C 
ATOM     17  C   UNL     1      -0.552   1.560  24.074  0.00  0.00    +0.022 A 
ATOM     20  C   UNL     1      -1.351   3.246  26.184  0.00  0.00    +0.259 A 
ATOM     22  C   UNL     1      -0.063   2.471  26.266  0.00  0.00    +0.047 A 
ATOM     23  C   UNL     1       0.284   1.690  25.233  0.00  0.00    +0.015 A 
ENDROOT
BRANCH  22  24
ATOM      1 CL   UNL     1       3.461   2.815  31.091  0.00  0.00    -0.084 Cl
ATOM     24  C   UNL     1       0.805   2.556  27.454  0.00  0.00    -0.013 A 
ATOM     25  C   UNL     1       2.109   3.038  27.333  0.00  0.00    +0.010 A 
ATOM     26  C   UNL     1       0.324   2.155  28.701  0.00  0.00    +0.010 A 
ATOM     27  C   UNL     1       2.930   3.118  28.458  0.00  0.00    +0.020 A 
ATOM     28  C   UNL     1       1.146   2.234  29.825  0.00  0.00    +0.020 A 
ATOM     29  C   UNL     1       2.449   2.716  29.704  0.00  0.00    +0.041 A 
ENDBRANCH  22  24
BRANCH  14  13
ATOM     13  C   UNL     1      -4.101  -1.072  25.192  0.00  0.00    +0.075 C 
ATOM     15  C   UNL     1      -2.609  -0.872  25.463  0.00  0.00    +0.013 C 
ATOM     16  C   UNL     1      -4.337  -1.782  23.856  0.00  0.00    +0.013 C 
ATOM     18  C   UNL     1      -1.838  -2.187  25.374  0.00  0.00    +0.001 C 
ATOM     19  C   UNL     1      -3.562  -3.095  23.772  0.00  0.00    +0.001 C 
ATOM     21  C   UNL     1      -2.074  -2.889  24.041  0.00  0.00    +0.000 C 
ENDBRANCH  14  13
TORSDOF 2
ENDMDL
MODEL 3
REMARK VINA RESULT:       6.9      1.015      1.475
REMARK  Name = 11885159
REMARK  2 active torsions:
REMARK  status: ('A' for Active; 'I' for Inactive)
REMARK    1  A    between atoms: C_13  and  C_14
REMARK    2  A    between atoms: C_22  and  C_24
REMARK                            x       y       z     vdW  Elec       q    Type
REMARK                         _______ _______ _______ _____ _____    ______ ____
ROOT
ATOM      2  O   UNL     1      -3.925   0.119  27.173  0.00  0.00    -0.275 OA
ATOM      3  O   UNL     1       0.548   2.400  25.334  0.00  0.00    -0.267 OA
ATOM      4  N   UNL     1      -4.377   1.425  25.305  0.00  0.00    -0.300 N 
ATOM      5  N   UNL     1      -1.547   2.523  24.317  0.00  0.00    -0.311 N 
ATOM      6  C   UNL     1      -3.518   3.770  25.372  0.00  0.00    +0.027 C 
ATOM      7  C   UNL     1      -3.806   2.636  23.208  0.00  0.00    +0.054 C 
ATOM      8  C   UNL     1      -3.982   3.968  23.934  0.00  0.00    +0.018 C 
ATOM      9  C   UNL     1      -4.355   2.678  26.062  0.00  0.00    +0.113 C 
ATOM     10  C   UNL     1      -4.690   1.564  23.875  0.00  0.00    +0.117 C 
ATOM     11  C   UNL     1      -2.023   3.433  25.367  0.00  0.00    +0.130 C 
ATOM     12  C   UNL     1      -2.356   2.191  23.228  0.00  0.00    +0.027 A 
ATOM     14  C   UNL     1      -4.188   0.214  25.971  0.00  0.00    +0.219 C 
ATOM     17  C   UNL     1      -1.859   1.456  22.220  0.00  0.00    +0.022 A 
ATOM     20  C   UNL     1      -0.206   2.099  24.408  0.00  0.00    +0.259 A 
ATOM     22  C   UNL     1       0.310   1.246  23.281  0.00  0.00    +0.047 A 
ATOM     23  C   UNL     1      -0.507   0.975  22.253  0.00  0.00    +0.015 A 
ENDROOT
BRANCH  22  24
ATOM      1 CL   UNL     1       5.881  -0.939  23.344  0.00  0.00    -0.084 Cl
ATOM     24  C   UNL     1       1.682   0.708  23.297  0.00  0.00    -0.013 A 
ATOM     25  C   UNL     1       2.764   1.546  23.023  0.00  0.00    +0.010 A 
ATOM     26  C   UNL     1       1.901  -0.639  23.585  0.00  0.00    +0.010 A 
ATOM     27  C   UNL     1       4.062   1.037  23.038  0.00  0.00    +0.020 A 
ATOM     28  C   UNL     1       3.199  -1.149  23.599  0.00  0.00    +0.020 A 
ATOM     29  C   UNL     1       4.280  -0.311  23.326  0.00  0.00    +0.041 A 
ENDBRANCH  22  24
BRANCH  14  13
ATOM     13  C   UNL     1      -4.309  -1.033  25.147  0.00  0.00    +0.075 C 
ATOM     15  C   UNL     1      -3.454  -2.146  25.756  0.00  0.00    +0.013 C 
ATOM     16  C   UNL     1      -3.903  -0.743  23.700  0.00  0.00    +0.013 C 
ATOM     18  C   UNL     1      -3.474  -3.407  24.896  0.00  0.00    +0.001 C 
ATOM     19  C   UNL     1      -3.923  -2.008  22.845  0.00  0.00    +0.001 C 
ATOM     21  C   UNL     1      -3.066  -3.113  23.456  0.00  0.00    +0.000 C 
ENDBRANCH  14  13
TORSDOF 2
ENDMDL
MODEL 4
REMARK VINA RESULT:       8.3      1.963      4.466
REMARK  Name = 11885159
REMARK  2 active torsions:
REMARK  status: ('A' for Active; 'I' for Inactive)
REMARK    1  A    between atoms: C_13  and  C_14
REMARK    2  A    between atoms: C_22  and  C_24
REMARK                            x       y       z     vdW  Elec       q    Type
REMARK                         _______ _______ _______ _____ _____    ______ ____
ROOT
ATOM      2  O   UNL     1      -4.061   2.140  22.730  0.00  0.00    -0.275 OA
ATOM      3  O   UNL     1      -0.141  -1.473  22.309  0.00  0.00    -0.267 OA
ATOM      4  N   UNL     1      -4.188   0.585  24.452  0.00  0.00    -0.300 N 
ATOM      5  N   UNL     1      -1.667  -1.335  24.067  0.00  0.00    -0.311 N 
ATOM      6  C   UNL     1      -4.163  -1.817  23.765  0.00  0.00    +0.027 C 
ATOM      7  C   UNL     1      -3.302  -1.170  25.976  0.00  0.00    +0.054 C 
ATOM      8  C   UNL     1      -4.120  -2.224  25.232  0.00  0.00    +0.018 C 
ATOM      9  C   UNL     1      -4.818  -0.433  23.609  0.00  0.00    +0.113 C 
ATOM     10  C   UNL     1      -3.997   0.200  25.858  0.00  0.00    +0.117 C 
ATOM     11  C   UNL     1      -2.737  -1.845  23.201  0.00  0.00    +0.130 C 
ATOM     12  C   UNL     1      -1.893  -1.081  25.422  0.00  0.00    +0.027 A 
ATOM     14  C   UNL     1      -3.892   1.838  23.915  0.00  0.00    +0.219 C 
ATOM     17  C   UNL     1      -0.871  -0.731  26.220  0.00  0.00    +0.022 A 
ATOM     20  C   UNL     1      -0.386  -1.224  23.490  0.00  0.00    +0.259 A 
ATOM     22  C   UNL     1       0.731  -0.793  24.403  0.00  0.00    +0.047 A 
ATOM     23  C   UNL     1       0.457  -0.582  25.698  0.00  0.00    +0.015 A 
ENDROOT
BRANCH  22  24
ATOM      1 CL   UNL     1       6.293  -0.004  22.340  0.00  0.00    -0.084 Cl
ATOM     24  C   UNL     1       2.100  -0.599  23.895  0.00  0.00    -0.013 A 
ATOM     25  C   UNL     1       3.079  -1.563  24.141  0.00  0.00    +0.010 A 
ATOM     26  C   UNL     1       2.419   0.548  23.168  0.00  0.00    +0.010 A 
ATOM     27  C   UNL     1       4.376  -1.379  23.659  0.00  0.00    +0.020 A 
ATOM     28  C   UNL     1       3.716   0.732  22.687  0.00  0.00    +0.020 A 
ATOM     29  C   UNL     1       4.694  -0.231  22.933  0.00  0.00    +0.041 A 
ENDBRANCH  22  24
BRANCH  14  13
ATOM     13  C   UNL     1      -3.328   2.858  24.859  0.00  0.00    +0.075 C 
ATOM     15  C   UNL     1      -3.737   4.263  24.414  0.00  0.00    +0.013 C 
ATOM     16  C   UNL     1      -1.806   2.714  24.933  0.00  0.00    +0.013 C 
ATOM     18  C   UNL     1      -3.106   5.340  25.293  0.00  0.00    +0.001 C 
ATOM     19  C   UNL     1      -1.181   3.794  25.812  0.00  0.00    +0.001 C 
ATOM     21  C   UNL     1      -1.590   5.194  25.361  0.00  0.00    +0.000 C 
ENDBRANCH  14  13
TORSDOF 2
ENDMDL
