MODEL 1
REMARK VINA RESULT:      -0.7      0.000      0.000
REMARK  Name = 11941672
REMARK  7 active torsions:
REMARK  status: ('A' for Active; 'I' for Inactive)
REMARK    1  A    between atoms: O_4  and  C_18
REMARK    2  A    between atoms: O_4  and  C_23
REMARK    3  A    between atoms: N_5  and  C_13
REMARK    4  A    between atoms: N_6  and  C_12
REMARK    5  A    between atoms: C_16  and  C_18
REMARK    6  A    between atoms: C_19  and  C_22
REMARK    7  A    between atoms: C_26  and  C_29
REMARK                            x       y       z     vdW  Elec       q    Type
REMARK                         _______ _______ _______ _____ _____    ______ ____
ROOT
ATOM      6  N   UNL     1      -4.747  -0.768  25.397  0.00  0.00    -0.306 N 
ATOM      7  N   UNL     1      -3.466   1.195  25.282  0.00  0.00    -0.214 NA
ATOM      8  N   UNL     1      -5.807   1.210  24.710  0.00  0.00    -0.223 NA
ATOM     17  C   UNL     1      -4.671   0.586  25.120  0.00  0.00    +0.216 A 
ATOM     19  C   UNL     1      -3.429   2.515  25.005  0.00  0.00    +0.076 A 
ATOM     20  C   UNL     1      -5.698   2.529  24.450  0.00  0.00    +0.116 A 
ATOM     21  C   UNL     1      -4.524   3.241  24.582  0.00  0.00    +0.048 A 
ATOM     30  H   UNL     1      -5.636  -1.223  25.223  0.00  0.00    +0.149 HD
ENDROOT
BRANCH   6  12
ATOM      1  O   UNL     1      -2.595  -2.373  23.855  0.00  0.00    -0.370 OA
ATOM      2  O   UNL     1      -1.301  -1.295  26.482  0.00  0.00    -0.370 OA
ATOM     10  C   UNL     1      -2.334  -0.795  25.617  0.00  0.00    +0.171 C 
ATOM     11  C   UNL     1      -1.937  -1.141  24.195  0.00  0.00    +0.171 C 
ATOM     12  C   UNL     1      -3.619  -1.557  25.839  0.00  0.00    +0.130 C 
ATOM     13  C   UNL     1      -0.442  -1.349  24.271  0.00  0.00    +0.130 C 
ATOM     14  C   UNL     1      -3.444  -2.771  24.942  0.00  0.00    +0.185 C 
ATOM     15  C   UNL     1      -0.257  -1.873  25.684  0.00  0.00    +0.185 C 
BRANCH  13   5
ATOM      3  O   UNL     1       1.215  -0.608  22.011  0.00  0.00    -0.273 OA
ATOM      5  N   UNL     1       0.269  -0.108  24.077  0.00  0.00    -0.306 N 
ATOM     16  C   UNL     1       1.041   0.158  22.955  0.00  0.00    +0.239 C 
ATOM     31  H   UNL     1       0.151   0.623  24.774  0.00  0.00    +0.149 HD
BRANCH  16  18
ATOM     18  C   UNL     1       1.667   1.534  23.017  0.00  0.00    +0.255 C 
BRANCH  18   4
ATOM      4  O   UNL     1       2.992   1.458  23.497  0.00  0.00    -0.374 OA
ATOM     23  C   UNL     1       3.865   0.840  22.555  0.00  0.00    +0.194 C 
ENDBRANCH  18   4
ENDBRANCH  16  18
ENDBRANCH  13   5
ENDBRANCH   6  12
BRANCH  19  22
ATOM     22  C   UNL     1      -2.141   3.142  25.181  0.00  0.00    +0.002 A 
ATOM     24  C   UNL     1      -1.250   2.659  26.144  0.00  0.00    +0.029 A 
ATOM     25  C   UNL     1      -1.779   4.234  24.389  0.00  0.00    +0.010 A 
ATOM     26  C   UNL     1      -0.006   3.266  26.311  0.00  0.00    +0.052 A 
ATOM     27  C   UNL     1      -0.535   4.841  24.558  0.00  0.00    +0.002 A 
ATOM     28  C   UNL     1       0.353   4.355  25.520  0.00  0.00    +0.019 A 
BRANCH  26  29
ATOM      9  N   UNL     1       1.644   2.366  28.096  0.00  0.00    -0.191 NA
ATOM     29  C   UNL     1       0.904   2.769  27.296  0.00  0.00    +0.099 C 
ENDBRANCH  26  29
ENDBRANCH  19  22
TORSDOF 6
ENDMDL
MODEL 2
REMARK VINA RESULT:       0.7      2.481      4.885
REMARK  Name = 11941672
REMARK  7 active torsions:
REMARK  status: ('A' for Active; 'I' for Inactive)
REMARK    1  A    between atoms: O_4  and  C_18
REMARK    2  A    between atoms: O_4  and  C_23
REMARK    3  A    between atoms: N_5  and  C_13
REMARK    4  A    between atoms: N_6  and  C_12
REMARK    5  A    between atoms: C_16  and  C_18
REMARK    6  A    between atoms: C_19  and  C_22
REMARK    7  A    between atoms: C_26  and  C_29
REMARK                            x       y       z     vdW  Elec       q    Type
REMARK                         _______ _______ _______ _____ _____    ______ ____
ROOT
ATOM      6  N   UNL     1      -5.295  -0.197  24.366  0.00  0.00    -0.306 N 
ATOM      7  N   UNL     1      -2.960  -0.231  24.137  0.00  0.00    -0.214 NA
ATOM      8  N   UNL     1      -4.177  -2.229  24.716  0.00  0.00    -0.223 NA
ATOM     17  C   UNL     1      -4.108  -0.907  24.409  0.00  0.00    +0.216 A 
ATOM     19  C   UNL     1      -1.822  -0.954  24.187  0.00  0.00    +0.076 A 
ATOM     20  C   UNL     1      -3.001  -2.892  24.747  0.00  0.00    +0.116 A 
ATOM     21  C   UNL     1      -1.782  -2.300  24.489  0.00  0.00    +0.048 A 
ATOM     30  H   UNL     1      -6.139  -0.697  24.621  0.00  0.00    +0.149 HD
ENDROOT
BRANCH   6  12
ATOM      1  O   UNL     1      -5.524   2.320  26.153  0.00  0.00    -0.370 OA
ATOM      2  O   UNL     1      -3.928   3.098  23.587  0.00  0.00    -0.370 OA
ATOM     10  C   UNL     1      -4.047   1.880  24.341  0.00  0.00    +0.171 C 
ATOM     11  C   UNL     1      -4.131   2.263  25.806  0.00  0.00    +0.171 C 
ATOM     12  C   UNL     1      -5.372   1.214  24.056  0.00  0.00    +0.130 C 
ATOM     13  C   UNL     1      -3.519   3.644  25.860  0.00  0.00    +0.130 C 
ATOM     14  C   UNL     1      -6.310   1.914  25.023  0.00  0.00    +0.185 C 
ATOM     15  C   UNL     1      -3.868   4.209  24.495  0.00  0.00    +0.185 C 
BRANCH  13   5
ATOM      3  O   UNL     1      -1.507   5.367  24.683  0.00  0.00    -0.273 OA
ATOM      5  N   UNL     1      -2.090   3.575  26.048  0.00  0.00    -0.306 N 
ATOM     16  C   UNL     1      -1.200   4.449  25.439  0.00  0.00    +0.239 C 
ATOM     31  H   UNL     1      -1.728   2.884  26.699  0.00  0.00    +0.149 HD
BRANCH  16  18
ATOM     18  C   UNL     1       0.233   4.144  25.816  0.00  0.00    +0.255 C 
BRANCH  18   4
ATOM      4  O   UNL     1       0.359   2.809  26.258  0.00  0.00    -0.374 OA
ATOM     23  C   UNL     1       0.936   2.731  27.559  0.00  0.00    +0.194 C 
ENDBRANCH  18   4
ENDBRANCH  16  18
ENDBRANCH  13   5
ENDBRANCH   6  12
BRANCH  19  22
ATOM     22  C   UNL     1      -0.616  -0.218  23.897  0.00  0.00    +0.002 A 
ATOM     24  C   UNL     1       0.613  -0.880  23.829  0.00  0.00    +0.029 A 
ATOM     25  C   UNL     1      -0.671   1.162  23.683  0.00  0.00    +0.010 A 
ATOM     26  C   UNL     1       1.777  -0.167  23.549  0.00  0.00    +0.052 A 
ATOM     27  C   UNL     1       0.494   1.875  23.404  0.00  0.00    +0.002 A 
ATOM     28  C   UNL     1       1.719   1.210  23.336  0.00  0.00    +0.019 A 
BRANCH  26  29
ATOM      9  N   UNL     1       4.053  -1.399  23.421  0.00  0.00    -0.191 NA
ATOM     29  C   UNL     1       3.033  -0.846  23.478  0.00  0.00    +0.099 C 
ENDBRANCH  26  29
ENDBRANCH  19  22
TORSDOF 6
ENDMDL
MODEL 3
REMARK VINA RESULT:       1.0      2.426      5.671
REMARK  Name = 11941672
REMARK  7 active torsions:
REMARK  status: ('A' for Active; 'I' for Inactive)
REMARK    1  A    between atoms: O_4  and  C_18
REMARK    2  A    between atoms: O_4  and  C_23
REMARK    3  A    between atoms: N_5  and  C_13
REMARK    4  A    between atoms: N_6  and  C_12
REMARK    5  A    between atoms: C_16  and  C_18
REMARK    6  A    between atoms: C_19  and  C_22
REMARK    7  A    between atoms: C_26  and  C_29
REMARK                            x       y       z     vdW  Elec       q    Type
REMARK                         _______ _______ _______ _____ _____    ______ ____
ROOT
ATOM      6  N   UNL     1      -3.699   3.970  24.368  0.00  0.00    -0.306 N 
ATOM      7  N   UNL     1      -3.872   1.636  24.538  0.00  0.00    -0.214 NA
ATOM      8  N   UNL     1      -5.698   3.063  25.197  0.00  0.00    -0.223 NA
ATOM     17  C   UNL     1      -4.445   2.856  24.712  0.00  0.00    +0.216 A 
ATOM     19  C   UNL     1      -4.627   0.572  24.883  0.00  0.00    +0.076 A 
ATOM     20  C   UNL     1      -6.398   1.956  25.521  0.00  0.00    +0.116 A 
ATOM     21  C   UNL     1      -5.909   0.673  25.384  0.00  0.00    +0.048 A 
ATOM     30  H   UNL     1      -4.116   4.876  24.550  0.00  0.00    +0.149 HD
ENDROOT
BRANCH   6  12
ATOM      1  O   UNL     1      -1.061   5.356  25.206  0.00  0.00    -0.370 OA
ATOM      2  O   UNL     1      -0.351   2.554  24.030  0.00  0.00    -0.370 OA
ATOM     10  C   UNL     1      -1.487   3.060  24.752  0.00  0.00    +0.171 C 
ATOM     11  C   UNL     1      -0.965   4.043  25.781  0.00  0.00    +0.171 C 
ATOM     12  C   UNL     1      -2.353   3.899  23.843  0.00  0.00    +0.130 C 
ATOM     13  C   UNL     1       0.484   3.652  25.961  0.00  0.00    +0.130 C 
ATOM     14  C   UNL     1      -1.688   5.263  23.918  0.00  0.00    +0.185 C 
ATOM     15  C   UNL     1       0.848   3.111  24.590  0.00  0.00    +0.185 C 
BRANCH  13   5
ATOM      3  O   UNL     1       2.420   3.595  28.117  0.00  0.00    -0.273 OA
ATOM      5  N   UNL     1       0.631   2.639  26.978  0.00  0.00    -0.306 N 
ATOM     16  C   UNL     1       1.593   2.699  27.976  0.00  0.00    +0.239 C 
ATOM     31  H   UNL     1      -0.039   1.875  26.990  0.00  0.00    +0.149 HD
BRANCH  16  18
ATOM     18  C   UNL     1       1.514   1.506  28.904  0.00  0.00    +0.255 C 
BRANCH  18   4
ATOM      4  O   UNL     1       1.827   1.882  30.228  0.00  0.00    -0.374 OA
ATOM     23  C   UNL     1       0.799   2.677  30.813  0.00  0.00    +0.194 C 
ENDBRANCH  18   4
ENDBRANCH  16  18
ENDBRANCH  13   5
ENDBRANCH   6  12
BRANCH  19  22
ATOM     22  C   UNL     1      -3.999  -0.712  24.693  0.00  0.00    +0.002 A 
ATOM     24  C   UNL     1      -2.667  -0.906  25.067  0.00  0.00    +0.029 A 
ATOM     25  C   UNL     1      -4.723  -1.769  24.134  0.00  0.00    +0.010 A 
ATOM     26  C   UNL     1      -2.063  -2.149  24.883  0.00  0.00    +0.052 A 
ATOM     27  C   UNL     1      -4.117  -3.012  23.950  0.00  0.00    +0.002 A 
ATOM     28  C   UNL     1      -2.787  -3.202  24.325  0.00  0.00    +0.019 A 
BRANCH  26  29
ATOM      9  N   UNL     1       0.408  -2.505  25.579  0.00  0.00    -0.191 NA
ATOM     29  C   UNL     1      -0.700  -2.345  25.267  0.00  0.00    +0.099 C 
ENDBRANCH  26  29
ENDBRANCH  19  22
TORSDOF 6
ENDMDL
MODEL 4
REMARK VINA RESULT:       1.1      2.593      6.963
REMARK  Name = 11941672
REMARK  7 active torsions:
REMARK  status: ('A' for Active; 'I' for Inactive)
REMARK    1  A    between atoms: O_4  and  C_18
REMARK    2  A    between atoms: O_4  and  C_23
REMARK    3  A    between atoms: N_5  and  C_13
REMARK    4  A    between atoms: N_6  and  C_12
REMARK    5  A    between atoms: C_16  and  C_18
REMARK    6  A    between atoms: C_19  and  C_22
REMARK    7  A    between atoms: C_26  and  C_29
REMARK                            x       y       z     vdW  Elec       q    Type
REMARK                         _______ _______ _______ _____ _____    ______ ____
ROOT
ATOM      6  N   UNL     1       0.736   3.254  24.475  0.00  0.00    -0.306 N 
ATOM      7  N   UNL     1      -0.328   1.168  24.641  0.00  0.00    -0.214 NA
ATOM      8  N   UNL     1       1.552   1.485  23.167  0.00  0.00    -0.223 NA
ATOM     17  C   UNL     1       0.650   1.930  24.082  0.00  0.00    +0.216 A 
ATOM     19  C   UNL     1      -0.381  -0.118  24.236  0.00  0.00    +0.076 A 
ATOM     20  C   UNL     1       1.441   0.190  22.806  0.00  0.00    +0.116 A 
ATOM     21  C   UNL     1       0.485  -0.667  23.312  0.00  0.00    +0.048 A 
ATOM     30  H   UNL     1       1.434   3.826  24.014  0.00  0.00    +0.149 HD
ENDROOT
BRANCH   6  12
ATOM      1  O   UNL     1      -1.578   5.289  24.175  0.00  0.00    -0.370 OA
ATOM      2  O   UNL     1      -2.243   3.415  26.580  0.00  0.00    -0.370 OA
ATOM     10  C   UNL     1      -1.523   3.221  25.351  0.00  0.00    +0.171 C 
ATOM     11  C   UNL     1      -2.240   4.017  24.279  0.00  0.00    +0.171 C 
ATOM     12  C   UNL     1      -0.158   3.861  25.437  0.00  0.00    +0.130 C 
ATOM     13  C   UNL     1      -3.638   4.197  24.827  0.00  0.00    +0.130 C 
ATOM     14  C   UNL     1      -0.442   5.302  25.053  0.00  0.00    +0.185 C 
ATOM     15  C   UNL     1      -3.398   4.229  26.325  0.00  0.00    +0.185 C 
BRANCH  13   5
ATOM      3  O   UNL     1      -6.208   3.500  25.971  0.00  0.00    -0.273 OA
ATOM      5  N   UNL     1      -4.490   3.092  24.456  0.00  0.00    -0.306 N 
ATOM     16  C   UNL     1      -5.711   2.837  25.065  0.00  0.00    +0.239 C 
ATOM     31  H   UNL     1      -4.200   2.508  23.677  0.00  0.00    +0.149 HD
BRANCH  16  18
ATOM     18  C   UNL     1      -6.388   1.619  24.476  0.00  0.00    +0.255 C 
BRANCH  18   4
ATOM      4  O   UNL     1      -5.558   0.483  24.591  0.00  0.00    -0.374 OA
ATOM     23  C   UNL     1      -4.669   0.583  25.701  0.00  0.00    +0.194 C 
ENDBRANCH  18   4
ENDBRANCH  16  18
ENDBRANCH  13   5
ENDBRANCH   6  12
BRANCH  19  22
ATOM     22  C   UNL     1      -1.427  -0.907  24.839  0.00  0.00    +0.002 A 
ATOM     24  C   UNL     1      -2.354  -1.578  24.037  0.00  0.00    +0.029 A 
ATOM     25  C   UNL     1      -1.516  -1.005  26.230  0.00  0.00    +0.010 A 
ATOM     26  C   UNL     1      -3.363  -2.341  24.623  0.00  0.00    +0.052 A 
ATOM     27  C   UNL     1      -2.526  -1.768  26.816  0.00  0.00    +0.002 A 
ATOM     28  C   UNL     1      -3.450  -2.437  26.011  0.00  0.00    +0.019 A 
BRANCH  26  29
ATOM      9  N   UNL     1      -5.079  -3.585  23.132  0.00  0.00    -0.191 NA
ATOM     29  C   UNL     1      -4.309  -3.027  23.800  0.00  0.00    +0.099 C 
ENDBRANCH  26  29
ENDBRANCH  19  22
TORSDOF 6
ENDMDL
MODEL 5
REMARK VINA RESULT:       1.2      2.494      4.925
REMARK  Name = 11941672
REMARK  7 active torsions:
REMARK  status: ('A' for Active; 'I' for Inactive)
REMARK    1  A    between atoms: O_4  and  C_18
REMARK    2  A    between atoms: O_4  and  C_23
REMARK    3  A    between atoms: N_5  and  C_13
REMARK    4  A    between atoms: N_6  and  C_12
REMARK    5  A    between atoms: C_16  and  C_18
REMARK    6  A    between atoms: C_19  and  C_22
REMARK    7  A    between atoms: C_26  and  C_29
REMARK                            x       y       z     vdW  Elec       q    Type
REMARK                         _______ _______ _______ _____ _____    ______ ____
ROOT
ATOM      6  N   UNL     1      -0.695  -2.049  24.475  0.00  0.00    -0.306 N 
ATOM      7  N   UNL     1      -2.696  -0.842  24.682  0.00  0.00    -0.214 NA
ATOM      8  N   UNL     1      -2.708  -3.148  23.982  0.00  0.00    -0.223 NA
ATOM     17  C   UNL     1      -2.075  -2.011  24.376  0.00  0.00    +0.216 A 
ATOM     19  C   UNL     1      -4.041  -0.841  24.576  0.00  0.00    +0.076 A 
ATOM     20  C   UNL     1      -4.053  -3.077  23.897  0.00  0.00    +0.116 A 
ATOM     21  C   UNL     1      -4.780  -1.940  24.185  0.00  0.00    +0.048 A 
ATOM     30  H   UNL     1      -0.237  -2.909  24.195  0.00  0.00    +0.149 HD
ENDROOT
BRANCH   6  12
ATOM      1  O   UNL     1       0.663   0.222  22.868  0.00  0.00    -0.370 OA
ATOM      2  O   UNL     1      -0.144   1.361  25.659  0.00  0.00    -0.370 OA
ATOM     10  C   UNL     1      -0.710   0.352  24.807  0.00  0.00    +0.171 C 
ATOM     11  C   UNL     1      -0.540   0.822  23.376  0.00  0.00    +0.171 C 
ATOM     12  C   UNL     1       0.108  -0.916  24.879  0.00  0.00    +0.130 C 
ATOM     13  C   UNL     1      -0.368   2.319  23.500  0.00  0.00    +0.130 C 
ATOM     14  C   UNL     1       1.206  -0.660  23.861  0.00  0.00    +0.185 C 
ATOM     15  C   UNL     1       0.309   2.459  24.851  0.00  0.00    +0.185 C 
BRANCH  13   5
ATOM      3  O   UNL     1      -2.524   1.953  21.597  0.00  0.00    -0.273 OA
ATOM      5  N   UNL     1      -1.643   2.996  23.481  0.00  0.00    -0.306 N 
ATOM     16  C   UNL     1      -2.618   2.752  22.524  0.00  0.00    +0.239 C 
ATOM     31  H   UNL     1      -1.850   3.643  24.237  0.00  0.00    +0.149 HD
BRANCH  16  18
ATOM     18  C   UNL     1      -3.850   3.601  22.751  0.00  0.00    +0.255 C 
BRANCH  18   4
ATOM      4  O   UNL     1      -3.590   4.616  23.697  0.00  0.00    -0.374 OA
ATOM     23  C   UNL     1      -3.971   5.902  23.216  0.00  0.00    +0.194 C 
ENDBRANCH  18   4
ENDBRANCH  16  18
ENDBRANCH  13   5
ENDBRANCH   6  12
BRANCH  19  22
ATOM     22  C   UNL     1      -4.681   0.410  24.903  0.00  0.00    +0.002 A 
ATOM     24  C   UNL     1      -3.953   1.433  25.516  0.00  0.00    +0.029 A 
ATOM     25  C   UNL     1      -6.033   0.604  24.608  0.00  0.00    +0.010 A 
ATOM     26  C   UNL     1      -4.573   2.641  25.830  0.00  0.00    +0.052 A 
ATOM     27  C   UNL     1      -6.653   1.812  24.924  0.00  0.00    +0.002 A 
ATOM     28  C   UNL     1      -5.922   2.832  25.535  0.00  0.00    +0.019 A 
BRANCH  26  29
ATOM      9  N   UNL     1      -3.218   4.537  26.964  0.00  0.00    -0.191 NA
ATOM     29  C   UNL     1      -3.825   3.687  26.456  0.00  0.00    +0.099 C 
ENDBRANCH  26  29
ENDBRANCH  19  22
TORSDOF 6
ENDMDL
MODEL 6
REMARK VINA RESULT:       1.6      2.445      4.700
REMARK  Name = 11941672
REMARK  7 active torsions:
REMARK  status: ('A' for Active; 'I' for Inactive)
REMARK    1  A    between atoms: O_4  and  C_18
REMARK    2  A    between atoms: O_4  and  C_23
REMARK    3  A    between atoms: N_5  and  C_13
REMARK    4  A    between atoms: N_6  and  C_12
REMARK    5  A    between atoms: C_16  and  C_18
REMARK    6  A    between atoms: C_19  and  C_22
REMARK    7  A    between atoms: C_26  and  C_29
REMARK                            x       y       z     vdW  Elec       q    Type
REMARK                         _______ _______ _______ _____ _____    ______ ____
ROOT
ATOM      6  N   UNL     1      -0.582  -1.649  23.255  0.00  0.00    -0.306 N 
ATOM      7  N   UNL     1      -2.147  -0.195  24.226  0.00  0.00    -0.214 NA
ATOM      8  N   UNL     1      -2.115  -2.537  24.792  0.00  0.00    -0.223 NA
ATOM     17  C   UNL     1      -1.647  -1.455  24.116  0.00  0.00    +0.216 A 
ATOM     19  C   UNL     1      -3.185  -0.042  25.074  0.00  0.00    +0.076 A 
ATOM     20  C   UNL     1      -3.154  -2.313  25.624  0.00  0.00    +0.116 A 
ATOM     21  C   UNL     1      -3.735  -1.075  25.807  0.00  0.00    +0.048 A 
ATOM     30  H   UNL     1      -0.250  -2.600  23.141  0.00  0.00    +0.149 HD
ENDROOT
BRANCH   6  12
ATOM      1  O   UNL     1       1.053   0.859  24.044  0.00  0.00    -0.370 OA
ATOM      2  O   UNL     1       2.042  -0.099  21.243  0.00  0.00    -0.370 OA
ATOM     10  C   UNL     1       1.511  -0.787  22.388  0.00  0.00    +0.171 C 
ATOM     11  C   UNL     1       2.048  -0.090  23.623  0.00  0.00    +0.171 C 
ATOM     12  C   UNL     1       0.016  -0.590  22.472  0.00  0.00    +0.130 C 
ATOM     13  C   UNL     1       3.283   0.629  23.130  0.00  0.00    +0.130 C 
ATOM     14  C   UNL     1      -0.103   0.736  23.204  0.00  0.00    +0.185 C 
ATOM     15  C   UNL     1       2.926   0.941  21.689  0.00  0.00    +0.185 C 
BRANCH  13   5
ATOM      3  O   UNL     1       5.796   1.207  24.455  0.00  0.00    -0.273 OA
ATOM      5  N   UNL     1       4.448  -0.221  23.208  0.00  0.00    -0.306 N 
ATOM     16  C   UNL     1       5.612   0.144  23.869  0.00  0.00    +0.239 C 
ATOM     31  H   UNL     1       4.387  -1.151  22.802  0.00  0.00    +0.149 HD
BRANCH  16  18
ATOM     18  C   UNL     1       6.665  -0.939  23.790  0.00  0.00    +0.255 C 
BRANCH  18   4
ATOM      4  O   UNL     1       7.532  -0.714  22.699  0.00  0.00    -0.374 OA
ATOM     23  C   UNL     1       8.797  -0.210  23.120  0.00  0.00    +0.194 C 
ENDBRANCH  18   4
ENDBRANCH  16  18
ENDBRANCH  13   5
ENDBRANCH   6  12
BRANCH  19  22
ATOM     22  C   UNL     1      -3.702   1.301  25.174  0.00  0.00    +0.002 A 
ATOM     24  C   UNL     1      -2.830   2.393  25.153  0.00  0.00    +0.029 A 
ATOM     25  C   UNL     1      -5.077   1.516  25.291  0.00  0.00    +0.010 A 
ATOM     26  C   UNL     1      -3.332   3.691  25.248  0.00  0.00    +0.052 A 
ATOM     27  C   UNL     1      -5.579   2.814  25.388  0.00  0.00    +0.002 A 
ATOM     28  C   UNL     1      -4.705   3.902  25.366  0.00  0.00    +0.019 A 
BRANCH  26  29
ATOM      9  N   UNL     1      -1.712   5.713  25.207  0.00  0.00    -0.191 NA
ATOM     29  C   UNL     1      -2.438   4.806  25.225  0.00  0.00    +0.099 C 
ENDBRANCH  26  29
ENDBRANCH  19  22
TORSDOF 6
ENDMDL
MODEL 7
REMARK VINA RESULT:       2.9      2.075      5.342
REMARK  Name = 11941672
REMARK  7 active torsions:
REMARK  status: ('A' for Active; 'I' for Inactive)
REMARK    1  A    between atoms: O_4  and  C_18
REMARK    2  A    between atoms: O_4  and  C_23
REMARK    3  A    between atoms: N_5  and  C_13
REMARK    4  A    between atoms: N_6  and  C_12
REMARK    5  A    between atoms: C_16  and  C_18
REMARK    6  A    between atoms: C_19  and  C_22
REMARK    7  A    between atoms: C_26  and  C_29
REMARK                            x       y       z     vdW  Elec       q    Type
REMARK                         _______ _______ _______ _____ _____    ______ ____
ROOT
ATOM      6  N   UNL     1      -3.561   4.540  24.641  0.00  0.00    -0.306 N 
ATOM      7  N   UNL     1      -3.968   2.255  24.984  0.00  0.00    -0.214 NA
ATOM      8  N   UNL     1      -5.611   3.909  25.594  0.00  0.00    -0.223 NA
ATOM     17  C   UNL     1      -4.405   3.538  25.087  0.00  0.00    +0.216 A 
ATOM     19  C   UNL     1      -4.815   1.303  25.428  0.00  0.00    +0.076 A 
ATOM     20  C   UNL     1      -6.408   2.907  26.019  0.00  0.00    +0.116 A 
ATOM     21  C   UNL     1      -6.060   1.574  25.960  0.00  0.00    +0.048 A 
ATOM     30  H   UNL     1      -3.875   5.496  24.770  0.00  0.00    +0.149 HD
ENDROOT
BRANCH   6  12
ATOM      1  O   UNL     1      -0.813   3.970  25.946  0.00  0.00    -0.370 OA
ATOM      2  O   UNL     1      -0.914   2.474  23.209  0.00  0.00    -0.370 OA
ATOM     10  C   UNL     1      -1.917   2.822  24.178  0.00  0.00    +0.171 C 
ATOM     11  C   UNL     1      -1.289   2.673  25.550  0.00  0.00    +0.171 C 
ATOM     12  C   UNL     1      -2.251   4.292  24.082  0.00  0.00    +0.130 C 
ATOM     13  C   UNL     1      -0.126   1.734  25.322  0.00  0.00    +0.130 C 
ATOM     14  C   UNL     1      -1.181   4.933  24.948  0.00  0.00    +0.185 C 
ATOM     15  C   UNL     1       0.277   2.055  23.895  0.00  0.00    +0.185 C 
BRANCH  13   5
ATOM      3  O   UNL     1       0.383  -0.433  23.466  0.00  0.00    -0.273 OA
ATOM      5  N   UNL     1      -0.535   0.356  25.453  0.00  0.00    -0.306 N 
ATOM     16  C   UNL     1      -0.242  -0.616  24.506  0.00  0.00    +0.239 C 
ATOM     31  H   UNL     1      -1.014   0.080  26.305  0.00  0.00    +0.149 HD
BRANCH  16  18
ATOM     18  C   UNL     1      -0.791  -1.969  24.903  0.00  0.00    +0.255 C 
BRANCH  18   4
ATOM      4  O   UNL     1       0.031  -2.575  25.878  0.00  0.00    -0.374 OA
ATOM     23  C   UNL     1       1.335  -2.853  25.376  0.00  0.00    +0.194 C 
ENDBRANCH  18   4
ENDBRANCH  16  18
ENDBRANCH  13   5
ENDBRANCH   6  12
BRANCH  19  22
ATOM     22  C   UNL     1      -4.331  -0.051  25.312  0.00  0.00    +0.002 A 
ATOM     24  C   UNL     1      -4.643  -0.814  24.184  0.00  0.00    +0.029 A 
ATOM     25  C   UNL     1      -3.547  -0.604  26.327  0.00  0.00    +0.010 A 
ATOM     26  C   UNL     1      -4.174  -2.123  24.073  0.00  0.00    +0.052 A 
ATOM     27  C   UNL     1      -3.078  -1.912  26.216  0.00  0.00    +0.002 A 
ATOM     28  C   UNL     1      -3.392  -2.672  25.088  0.00  0.00    +0.019 A 
BRANCH  26  29
ATOM      9  N   UNL     1      -4.753  -3.534  21.979  0.00  0.00    -0.191 NA
ATOM     29  C   UNL     1      -4.494  -2.902  22.918  0.00  0.00    +0.099 C 
ENDBRANCH  26  29
ENDBRANCH  19  22
TORSDOF 6
ENDMDL
