MODEL 1
REMARK VINA RESULT:       2.8      0.000      0.000
REMARK  Name = 45361461
REMARK  12 active torsions:
REMARK  status: ('A' for Active; 'I' for Inactive)
REMARK    1  A    between atoms: O_1  and  C_10
REMARK    2  A    between atoms: N_4  and  C_14
REMARK    3  A    between atoms: N_5  and  C_29
REMARK    4  A    between atoms: N_5  and  C_30
REMARK    5  A    between atoms: C_7  and  C_17
REMARK    6  A    between atoms: C_9  and  C_19
REMARK    7  A    between atoms: C_13  and  C_18
REMARK    8  A    between atoms: C_18  and  C_20
REMARK    9  A    between atoms: C_18  and  C_21
REMARK   10  A    between atoms: C_22  and  C_23
REMARK   11  A    between atoms: C_29  and  C_31
REMARK   12  A    between atoms: C_31  and  C_32
REMARK                            x       y       z     vdW  Elec       q    Type
REMARK                         _______ _______ _______ _____ _____    ______ ____
ROOT
ATOM      7  C   UNL     1      -1.930  -1.099  25.299  0.00  0.00    -0.027 C 
ATOM      8  C   UNL     1      -2.124   0.001  24.202  0.00  0.00    +0.028 C 
ATOM      9  C   UNL     1      -0.745   0.412  23.573  0.00  0.00    +0.012 C 
ATOM     10  C   UNL     1      -2.996   1.175  24.729  0.00  0.00    +0.122 C 
ATOM     11  C   UNL     1      -3.312  -1.561  25.816  0.00  0.00    +0.007 C 
ATOM     12  C   UNL     1      -1.229  -2.324  24.667  0.00  0.00    +0.009 C 
ATOM     13  C   UNL     1      -4.334   0.697  25.340  0.00  0.00    +0.029 C 
ATOM     14  C   UNL     1      -0.015  -0.839  23.008  0.00  0.00    +0.076 C 
ATOM     15  C   UNL     1      -4.153  -0.419  26.369  0.00  0.00    +0.007 C 
ATOM     16  C   UNL     1       0.103  -1.981  24.018  0.00  0.00    +0.023 C 
ATOM     17  C   UNL     1      -1.092  -0.596  26.502  0.00  0.00    +0.011 C 
ATOM     19  C   UNL     1      -0.866   1.471  22.464  0.00  0.00    +0.010 C 
ENDROOT
BRANCH  14   4
ATOM      3  O   UNL     1       1.784   1.201  24.025  0.00  0.00    -0.276 OA
ATOM      4  N   UNL     1       1.310  -0.514  22.525  0.00  0.00    -0.312 N 
ATOM     22  C   UNL     1       2.094   0.481  23.079  0.00  0.00    +0.216 C 
ATOM     33  H   UNL     1       1.648  -1.015  21.709  0.00  0.00    +0.149 HD
BRANCH  22  23
ATOM     23  C   UNL     1       3.430   0.591  22.404  0.00  0.00    +0.075 C 
ATOM     24  C   UNL     1       4.366   1.516  23.186  0.00  0.00    +0.013 C 
ATOM     25  C   UNL     1       4.024  -0.801  22.181  0.00  0.00    +0.013 C 
ATOM     26  C   UNL     1       4.948   0.871  24.443  0.00  0.00    +0.001 C 
ATOM     27  C   UNL     1       4.593  -1.421  23.458  0.00  0.00    +0.001 C 
ATOM     28  C   UNL     1       5.580  -0.484  24.146  0.00  0.00    +0.000 C 
ENDBRANCH  22  23
ENDBRANCH  14   4
BRANCH  10   1
ATOM      1  O   UNL     1      -3.330   2.046  23.647  0.00  0.00    -0.391 OA
ATOM     34  H   UNL     1      -3.616   1.497  22.896  0.00  0.00    +0.210 HD
ENDBRANCH  10   1
BRANCH  13  18
ATOM     18  C   UNL     1      -5.118   1.854  25.971  0.00  0.00    +0.078 C 
ATOM     20  C   UNL     1      -6.508   1.363  26.380  0.00  0.00    +0.017 C 
BRANCH  18  21
ATOM      2  O   UNL     1      -6.081   2.995  24.101  0.00  0.00    -0.275 OA
ATOM      5  N   UNL     1      -4.288   4.058  25.107  0.00  0.00    -0.303 N 
ATOM     21  C   UNL     1      -5.214   3.016  24.981  0.00  0.00    +0.219 C 
ATOM     30  C   UNL     1      -4.339   5.170  24.165  0.00  0.00    +0.132 C 
BRANCH   5  29
ATOM     29  C   UNL     1      -3.258   4.176  26.138  0.00  0.00    +0.122 C 
BRANCH  29  31
ATOM     31  C   UNL     1      -1.900   4.559  25.562  0.00  0.00    +0.137 C 
BRANCH  31  32
ATOM      6  N   UNL     1      -0.061   2.761  26.111  0.00  0.00    -0.197 NA
ATOM     32  C   UNL     1      -0.872   3.554  25.869  0.00  0.00    +0.064 C 
ENDBRANCH  31  32
ENDBRANCH  29  31
ENDBRANCH   5  29
ENDBRANCH  18  21
ENDBRANCH  13  18
TORSDOF 8
ENDMDL
MODEL 2
REMARK VINA RESULT:       6.2      1.536      2.115
REMARK  Name = 45361461
REMARK  12 active torsions:
REMARK  status: ('A' for Active; 'I' for Inactive)
REMARK    1  A    between atoms: O_1  and  C_10
REMARK    2  A    between atoms: N_4  and  C_14
REMARK    3  A    between atoms: N_5  and  C_29
REMARK    4  A    between atoms: N_5  and  C_30
REMARK    5  A    between atoms: C_7  and  C_17
REMARK    6  A    between atoms: C_9  and  C_19
REMARK    7  A    between atoms: C_13  and  C_18
REMARK    8  A    between atoms: C_18  and  C_20
REMARK    9  A    between atoms: C_18  and  C_21
REMARK   10  A    between atoms: C_22  and  C_23
REMARK   11  A    between atoms: C_29  and  C_31
REMARK   12  A    between atoms: C_31  and  C_32
REMARK                            x       y       z     vdW  Elec       q    Type
REMARK                         _______ _______ _______ _____ _____    ______ ____
ROOT
ATOM      7  C   UNL     1      -2.530  -1.106  24.704  0.00  0.00    -0.027 C 
ATOM      8  C   UNL     1      -1.804   0.073  23.973  0.00  0.00    +0.028 C 
ATOM      9  C   UNL     1      -0.284   0.120  24.362  0.00  0.00    +0.012 C 
ATOM     10  C   UNL     1      -2.582   1.408  24.149  0.00  0.00    +0.122 C 
ATOM     11  C   UNL     1      -3.994  -1.194  24.213  0.00  0.00    +0.007 C 
ATOM     12  C   UNL     1      -1.829  -2.435  24.336  0.00  0.00    +0.009 C 
ATOM     13  C   UNL     1      -4.072   1.287  23.755  0.00  0.00    +0.029 C 
ATOM     14  C   UNL     1       0.394  -1.246  24.058  0.00  0.00    +0.076 C 
ATOM     15  C   UNL     1      -4.769   0.100  24.420  0.00  0.00    +0.007 C 
ATOM     16  C   UNL     1      -0.344  -2.438  24.667  0.00  0.00    +0.023 C 
ATOM     17  C   UNL     1      -2.530  -0.939  26.244  0.00  0.00    +0.011 C 
ATOM     19  C   UNL     1       0.498   1.241  23.655  0.00  0.00    +0.010 C 
ENDROOT
BRANCH  14   4
ATOM      3  O   UNL     1       2.769  -0.571  22.533  0.00  0.00    -0.276 OA
ATOM      4  N   UNL     1       1.768  -1.276  24.511  0.00  0.00    -0.312 N 
ATOM     22  C   UNL     1       2.837  -0.935  23.704  0.00  0.00    +0.216 C 
ATOM     33  H   UNL     1       1.945  -1.613  25.453  0.00  0.00    +0.149 HD
BRANCH  22  23
ATOM     23  C   UNL     1       4.148  -1.030  24.429  0.00  0.00    +0.075 C 
ATOM     24  C   UNL     1       5.113  -1.968  23.701  0.00  0.00    +0.013 C 
ATOM     25  C   UNL     1       4.732   0.367  24.646  0.00  0.00    +0.013 C 
ATOM     26  C   UNL     1       5.740  -1.347  22.454  0.00  0.00    +0.001 C 
ATOM     27  C   UNL     1       5.347   0.963  23.380  0.00  0.00    +0.001 C 
ATOM     28  C   UNL     1       6.359   0.015  22.747  0.00  0.00    +0.000 C 
ENDBRANCH  22  23
ENDBRANCH  14   4
BRANCH  10   1
ATOM      1  O   UNL     1      -2.015   2.406  23.298  0.00  0.00    -0.391 OA
ATOM     34  H   UNL     1      -2.472   2.367  22.441  0.00  0.00    +0.210 HD
ENDBRANCH  10   1
BRANCH  13  18
ATOM     18  C   UNL     1      -4.849   2.573  24.058  0.00  0.00    +0.078 C 
ATOM     20  C   UNL     1      -4.292   3.717  23.210  0.00  0.00    +0.017 C 
BRANCH  18  21
ATOM      2  O   UNL     1      -5.465   2.286  26.353  0.00  0.00    -0.275 OA
ATOM      5  N   UNL     1      -3.862   3.903  25.943  0.00  0.00    -0.303 N 
ATOM     21  C   UNL     1      -4.752   2.898  25.550  0.00  0.00    +0.219 C 
ATOM     30  C   UNL     1      -3.761   4.252  27.355  0.00  0.00    +0.132 C 
BRANCH   5  29
ATOM     29  C   UNL     1      -2.961   4.648  25.065  0.00  0.00    +0.122 C 
BRANCH  29  31
ATOM     31  C   UNL     1      -1.523   4.647  25.570  0.00  0.00    +0.137 C 
BRANCH  31  32
ATOM      6  N   UNL     1       0.209   4.818  23.598  0.00  0.00    -0.197 NA
ATOM     32  C   UNL     1      -0.555   4.742  24.467  0.00  0.00    +0.064 C 
ENDBRANCH  31  32
ENDBRANCH  29  31
ENDBRANCH   5  29
ENDBRANCH  18  21
ENDBRANCH  13  18
TORSDOF 8
ENDMDL
MODEL 3
REMARK VINA RESULT:       6.7      1.702      2.154
REMARK  Name = 45361461
REMARK  12 active torsions:
REMARK  status: ('A' for Active; 'I' for Inactive)
REMARK    1  A    between atoms: O_1  and  C_10
REMARK    2  A    between atoms: N_4  and  C_14
REMARK    3  A    between atoms: N_5  and  C_29
REMARK    4  A    between atoms: N_5  and  C_30
REMARK    5  A    between atoms: C_7  and  C_17
REMARK    6  A    between atoms: C_9  and  C_19
REMARK    7  A    between atoms: C_13  and  C_18
REMARK    8  A    between atoms: C_18  and  C_20
REMARK    9  A    between atoms: C_18  and  C_21
REMARK   10  A    between atoms: C_22  and  C_23
REMARK   11  A    between atoms: C_29  and  C_31
REMARK   12  A    between atoms: C_31  and  C_32
REMARK                            x       y       z     vdW  Elec       q    Type
REMARK                         _______ _______ _______ _____ _____    ______ ____
ROOT
ATOM      7  C   UNL     1      -1.474  -0.647  24.494  0.00  0.00    -0.027 C 
ATOM      8  C   UNL     1      -1.321   0.900  24.312  0.00  0.00    +0.028 C 
ATOM      9  C   UNL     1       0.189   1.324  24.388  0.00  0.00    +0.012 C 
ATOM     10  C   UNL     1      -2.283   1.676  25.257  0.00  0.00    +0.122 C 
ATOM     11  C   UNL     1      -2.956  -1.045  24.301  0.00  0.00    +0.007 C 
ATOM     12  C   UNL     1      -0.648  -1.367  23.402  0.00  0.00    +0.009 C 
ATOM     13  C   UNL     1      -3.750   1.201  25.134  0.00  0.00    +0.029 C 
ATOM     14  C   UNL     1       1.024   0.539  23.338  0.00  0.00    +0.076 C 
ATOM     15  C   UNL     1      -3.896  -0.315  25.251  0.00  0.00    +0.007 C 
ATOM     16  C   UNL     1       0.822  -0.975  23.411  0.00  0.00    +0.023 C 
ATOM     17  C   UNL     1      -1.007  -1.131  25.890  0.00  0.00    +0.011 C 
ATOM     19  C   UNL     1       0.415   2.833  24.188  0.00  0.00    +0.010 C 
ENDROOT
BRANCH  14   4
ATOM      3  O   UNL     1       3.086   0.090  21.345  0.00  0.00    -0.276 OA
ATOM      4  N   UNL     1       2.438   0.820  23.457  0.00  0.00    -0.312 N 
ATOM     22  C   UNL     1       3.346   0.569  22.445  0.00  0.00    +0.216 C 
ATOM     33  H   UNL     1       2.774   1.172  24.349  0.00  0.00    +0.149 HD
BRANCH  22  23
ATOM     23  C   UNL     1       4.741   0.976  22.822  0.00  0.00    +0.075 C 
ATOM     24  C   UNL     1       4.897   1.065  24.342  0.00  0.00    +0.013 C 
ATOM     25  C   UNL     1       5.758   0.031  22.178  0.00  0.00    +0.013 C 
ATOM     26  C   UNL     1       5.009  -0.298  25.023  0.00  0.00    +0.001 C 
ATOM     27  C   UNL     1       5.843  -1.325  22.879  0.00  0.00    +0.001 C 
ATOM     28  C   UNL     1       6.080  -1.170  24.377  0.00  0.00    +0.000 C 
ENDBRANCH  22  23
ENDBRANCH  14   4
BRANCH  10   1
ATOM      1  O   UNL     1      -2.273   3.063  24.914  0.00  0.00    -0.391 OA
ATOM     34  H   UNL     1      -3.148   3.431  25.123  0.00  0.00    +0.210 HD
ENDBRANCH  10   1
BRANCH  13  18
ATOM     18  C   UNL     1      -4.658   1.885  26.164  0.00  0.00    +0.078 C 
ATOM     20  C   UNL     1      -6.083   1.349  26.022  0.00  0.00    +0.017 C 
BRANCH  18  21
ATOM      2  O   UNL     1      -4.485   4.140  26.947  0.00  0.00    -0.275 OA
ATOM      5  N   UNL     1      -4.756   3.892  24.662  0.00  0.00    -0.303 N 
ATOM     21  C   UNL     1      -4.618   3.401  25.965  0.00  0.00    +0.219 C 
ATOM     30  C   UNL     1      -4.744   5.333  24.441  0.00  0.00    +0.132 C 
BRANCH   5  29
ATOM     29  C   UNL     1      -4.881   3.089  23.447  0.00  0.00    +0.122 C 
BRANCH  29  31
ATOM     31  C   UNL     1      -3.996   3.600  22.317  0.00  0.00    +0.137 C 
BRANCH  31  32
ATOM      6  N   UNL     1      -2.323   1.756  21.471  0.00  0.00    -0.197 NA
ATOM     32  C   UNL     1      -3.061   2.569  21.844  0.00  0.00    +0.064 C 
ENDBRANCH  31  32
ENDBRANCH  29  31
ENDBRANCH   5  29
ENDBRANCH  18  21
ENDBRANCH  13  18
TORSDOF 8
ENDMDL
