MODEL 1
REMARK VINA RESULT:       4.6      0.000      0.000
REMARK  Name = 26742496
REMARK  11 active torsions:
REMARK  status: ('A' for Active; 'I' for Inactive)
REMARK    1  A    between atoms: N_3  and  C_15
REMARK    2  A    between atoms: N_6  and  C_23
REMARK    3  A    between atoms: N_7  and  C_30
REMARK    4  A    between atoms: N_7  and  C_31
REMARK    5  A    between atoms: N_7  and  C_32
REMARK    6  A    between atoms: C_9  and  C_16
REMARK    7  A    between atoms: C_10  and  C_15
REMARK    8  A    between atoms: C_18  and  C_21
REMARK    9  A    between atoms: C_19  and  C_22
REMARK   10  A    between atoms: C_23  and  C_26
REMARK   11  A    between atoms: C_23  and  C_27
REMARK                            x       y       z     vdW  Elec       q    Type
REMARK                         _______ _______ _______ _____ _____    ______ ____
ROOT
ATOM      2  N   UNL     1      -4.032   3.483  25.958  0.00  0.00    -0.297 NA
ATOM      8  C   UNL     1      -4.840   2.000  23.975  0.00  0.00    +0.002 C 
ATOM      9  C   UNL     1      -4.298   1.114  25.132  0.00  0.00    +0.055 C 
ATOM     10  C   UNL     1      -3.442   3.972  24.684  0.00  0.00    +0.074 C 
ATOM     11  C   UNL     1      -3.740   2.989  23.533  0.00  0.00    +0.024 C 
ATOM     12  C   UNL     1      -5.995   2.840  24.561  0.00  0.00    +0.019 C 
ATOM     13  C   UNL     1      -3.655   2.065  26.182  0.00  0.00    +0.094 C 
ATOM     14  C   UNL     1      -5.508   3.555  25.833  0.00  0.00    +0.085 C 
ENDROOT
BRANCH   9  16
ATOM      4  N   UNL     1      -3.968  -1.271  24.704  0.00  0.00    -0.237 NA
ATOM      5  N   UNL     1      -1.810  -2.188  24.148  0.00  0.00    -0.232 NA
ATOM     16  C   UNL     1      -3.390  -0.054  24.777  0.00  0.00    +0.050 A 
ATOM     17  C   UNL     1      -2.047   0.172  24.553  0.00  0.00    +0.052 A 
ATOM     18  C   UNL     1      -1.299  -0.943  24.239  0.00  0.00    +0.075 A 
ATOM     19  C   UNL     1      -3.131  -2.278  24.390  0.00  0.00    +0.127 A 
ATOM     22  C   UNL     1      -3.733  -3.640  24.301  0.00  0.00    +0.088 C 
BRANCH  18  21
ATOM     21  C   UNL     1       0.118  -0.842  23.981  0.00  0.00    +0.001 A 
ATOM     24  C   UNL     1       0.609   0.182  23.171  0.00  0.00    +0.012 A 
ATOM     25  C   UNL     1       0.997  -1.767  24.545  0.00  0.00    +0.012 A 
ATOM     28  C   UNL     1       1.978   0.280  22.923  0.00  0.00    +0.024 A 
ATOM     29  C   UNL     1       2.366  -1.670  24.297  0.00  0.00    +0.024 A 
ATOM     30  C   UNL     1       2.857  -0.646  23.487  0.00  0.00    +0.029 A 
BRANCH  30   7
ATOM      7  N   UNL     1       4.241  -0.547  23.236  0.00  0.00    -0.336 N 
ATOM     31  C   UNL     1       4.757   0.494  22.371  0.00  0.00    +0.129 C 
ATOM     32  C   UNL     1       5.166  -1.481  23.846  0.00  0.00    +0.129 C 
ENDBRANCH  30   7
ENDBRANCH  18  21
ENDBRANCH   9  16
BRANCH  10  15
ATOM     15  C   UNL     1      -1.946   4.266  24.810  0.00  0.00    +0.124 C 
BRANCH  15   3
ATOM      1  O   UNL     1       0.411   2.759  25.519  0.00  0.00    -0.253 OA
ATOM      3  N   UNL     1      -1.477   3.968  26.129  0.00  0.00    -0.298 N 
ATOM      6  N   UNL     1      -0.096   3.086  27.760  0.00  0.00    -0.297 N 
ATOM     20  C   UNL     1      -0.318   3.227  26.392  0.00  0.00    +0.300 C 
ATOM     33  H   UNL     1      -2.018   4.306  26.919  0.00  0.00    +0.150 HD
ATOM     34  H   UNL     1      -0.714   3.573  28.402  0.00  0.00    +0.150 HD
BRANCH   6  23
ATOM     23  C   UNL     1       1.033   2.364  28.299  0.00  0.00    +0.068 C 
ATOM     26  C   UNL     1       0.872   2.177  29.802  0.00  0.00    +0.027 C 
ATOM     27  C   UNL     1       2.335   3.083  27.967  0.00  0.00    +0.027 C 
ENDBRANCH   6  23
ENDBRANCH  15   3
ENDBRANCH  10  15
TORSDOF 6
ENDMDL
MODEL 2
REMARK VINA RESULT:       6.7      1.469      1.989
REMARK  Name = 26742496
REMARK  11 active torsions:
REMARK  status: ('A' for Active; 'I' for Inactive)
REMARK    1  A    between atoms: N_3  and  C_15
REMARK    2  A    between atoms: N_6  and  C_23
REMARK    3  A    between atoms: N_7  and  C_30
REMARK    4  A    between atoms: N_7  and  C_31
REMARK    5  A    between atoms: N_7  and  C_32
REMARK    6  A    between atoms: C_9  and  C_16
REMARK    7  A    between atoms: C_10  and  C_15
REMARK    8  A    between atoms: C_18  and  C_21
REMARK    9  A    between atoms: C_19  and  C_22
REMARK   10  A    between atoms: C_23  and  C_26
REMARK   11  A    between atoms: C_23  and  C_27
REMARK                            x       y       z     vdW  Elec       q    Type
REMARK                         _______ _______ _______ _____ _____    ______ ____
ROOT
ATOM      2  N   UNL     1      -4.872   3.144  25.794  0.00  0.00    -0.297 NA
ATOM      8  C   UNL     1      -5.924   0.791  25.422  0.00  0.00    +0.002 C 
ATOM      9  C   UNL     1      -4.464   0.659  25.940  0.00  0.00    +0.055 C 
ATOM     10  C   UNL     1      -5.487   3.070  24.442  0.00  0.00    +0.074 C 
ATOM     11  C   UNL     1      -5.930   1.626  24.124  0.00  0.00    +0.024 C 
ATOM     12  C   UNL     1      -6.701   1.597  26.484  0.00  0.00    +0.019 C 
ATOM     13  C   UNL     1      -3.843   2.085  25.944  0.00  0.00    +0.094 C 
ATOM     14  C   UNL     1      -5.939   2.897  26.793  0.00  0.00    +0.085 C 
ENDROOT
BRANCH   9  16
ATOM      4  N   UNL     1      -4.102  -1.566  24.991  0.00  0.00    -0.237 NA
ATOM      5  N   UNL     1      -1.974  -2.244  24.086  0.00  0.00    -0.232 NA
ATOM     16  C   UNL     1      -3.556  -0.365  25.276  0.00  0.00    +0.050 A 
ATOM     17  C   UNL     1      -2.244  -0.035  25.002  0.00  0.00    +0.052 A 
ATOM     18  C   UNL     1      -1.493  -1.023  24.400  0.00  0.00    +0.075 A 
ATOM     19  C   UNL     1      -3.266  -2.444  24.405  0.00  0.00    +0.127 A 
ATOM     22  C   UNL     1      -3.833  -3.784  24.075  0.00  0.00    +0.088 C 
BRANCH  18  21
ATOM     21  C   UNL     1      -0.107  -0.804  24.061  0.00  0.00    +0.001 A 
ATOM     24  C   UNL     1       0.255   0.287  23.271  0.00  0.00    +0.012 A 
ATOM     25  C   UNL     1       0.872  -1.683  24.527  0.00  0.00    +0.012 A 
ATOM     28  C   UNL     1       1.594   0.499  22.945  0.00  0.00    +0.024 A 
ATOM     29  C   UNL     1       2.212  -1.472  24.200  0.00  0.00    +0.024 A 
ATOM     30  C   UNL     1       2.572  -0.380  23.410  0.00  0.00    +0.029 A 
BRANCH  30   7
ATOM      7  N   UNL     1       3.926  -0.167  23.080  0.00  0.00    -0.336 N 
ATOM     31  C   UNL     1       4.285   0.708  21.981  0.00  0.00    +0.129 C 
ATOM     32  C   UNL     1       4.979  -0.813  23.839  0.00  0.00    +0.129 C 
ENDBRANCH  30   7
ENDBRANCH  18  21
ENDBRANCH   9  16
BRANCH  10  15
ATOM     15  C   UNL     1      -4.572   3.637  23.354  0.00  0.00    +0.124 C 
BRANCH  15   3
ATOM      1  O   UNL     1      -2.388   4.711  24.905  0.00  0.00    -0.253 OA
ATOM      3  N   UNL     1      -3.251   3.102  23.468  0.00  0.00    -0.298 N 
ATOM      6  N   UNL     1      -1.054   2.958  24.175  0.00  0.00    -0.297 N 
ATOM     20  C   UNL     1      -2.241   3.684  24.244  0.00  0.00    +0.300 C 
ATOM     33  H   UNL     1      -3.029   2.256  22.952  0.00  0.00    +0.150 HD
ATOM     34  H   UNL     1      -1.054   2.082  23.662  0.00  0.00    +0.150 HD
BRANCH   6  23
ATOM     23  C   UNL     1       0.143   3.346  24.883  0.00  0.00    +0.068 C 
ATOM     26  C   UNL     1       0.201   2.657  26.240  0.00  0.00    +0.027 C 
ATOM     27  C   UNL     1       0.210   4.861  25.030  0.00  0.00    +0.027 C 
ENDBRANCH   6  23
ENDBRANCH  15   3
ENDBRANCH  10  15
TORSDOF 6
ENDMDL
MODEL 3
REMARK VINA RESULT:       7.1      2.386      4.430
REMARK  Name = 26742496
REMARK  11 active torsions:
REMARK  status: ('A' for Active; 'I' for Inactive)
REMARK    1  A    between atoms: N_3  and  C_15
REMARK    2  A    between atoms: N_6  and  C_23
REMARK    3  A    between atoms: N_7  and  C_30
REMARK    4  A    between atoms: N_7  and  C_31
REMARK    5  A    between atoms: N_7  and  C_32
REMARK    6  A    between atoms: C_9  and  C_16
REMARK    7  A    between atoms: C_10  and  C_15
REMARK    8  A    between atoms: C_18  and  C_21
REMARK    9  A    between atoms: C_19  and  C_22
REMARK   10  A    between atoms: C_23  and  C_26
REMARK   11  A    between atoms: C_23  and  C_27
REMARK                            x       y       z     vdW  Elec       q    Type
REMARK                         _______ _______ _______ _____ _____    ______ ____
ROOT
ATOM      2  N   UNL     1      -3.738   3.553  24.054  0.00  0.00    -0.297 NA
ATOM      8  C   UNL     1      -1.345   3.692  25.075  0.00  0.00    +0.002 C 
ATOM      9  C   UNL     1      -1.349   2.773  23.821  0.00  0.00    +0.055 C 
ATOM     10  C   UNL     1      -3.792   3.286  25.517  0.00  0.00    +0.074 C 
ATOM     11  C   UNL     1      -2.369   3.159  26.100  0.00  0.00    +0.024 C 
ATOM     12  C   UNL     1      -1.845   5.077  24.613  0.00  0.00    +0.019 C 
ATOM     13  C   UNL     1      -2.833   2.579  23.393  0.00  0.00    +0.094 C 
ATOM     14  C   UNL     1      -3.177   4.912  23.861  0.00  0.00    +0.085 C 
ENDROOT
BRANCH   9  16
ATOM      4  N   UNL     1      -1.320   0.353  24.172  0.00  0.00    -0.237 NA
ATOM      5  N   UNL     1       0.711  -0.938  24.039  0.00  0.00    -0.232 NA
ATOM     16  C   UNL     1      -0.593   1.455  23.894  0.00  0.00    +0.050 A 
ATOM     17  C   UNL     1       0.771   1.441  23.680  0.00  0.00    +0.052 A 
ATOM     18  C   UNL     1       1.375   0.204  23.766  0.00  0.00    +0.075 A 
ATOM     19  C   UNL     1      -0.614  -0.793  24.229  0.00  0.00    +0.127 A 
ATOM     22  C   UNL     1      -1.383  -2.033  24.536  0.00  0.00    +0.088 C 
BRANCH  18  21
ATOM     21  C   UNL     1       2.796   0.052  23.563  0.00  0.00    +0.001 A 
ATOM     24  C   UNL     1       3.543   1.107  23.036  0.00  0.00    +0.012 A 
ATOM     25  C   UNL     1       3.425  -1.148  23.897  0.00  0.00    +0.012 A 
ATOM     28  C   UNL     1       4.916   0.961  22.841  0.00  0.00    +0.024 A 
ATOM     29  C   UNL     1       4.798  -1.294  23.702  0.00  0.00    +0.024 A 
ATOM     30  C   UNL     1       5.543  -0.240  23.175  0.00  0.00    +0.029 A 
BRANCH  30   7
ATOM      7  N   UNL     1       6.932  -0.388  22.978  0.00  0.00    -0.336 N 
ATOM     31  C   UNL     1       7.864   0.527  23.607  0.00  0.00    +0.129 C 
ATOM     32  C   UNL     1       7.446  -1.462  22.152  0.00  0.00    +0.129 C 
ENDBRANCH  30   7
ENDBRANCH  18  21
ENDBRANCH   9  16
BRANCH  10  15
ATOM     15  C   UNL     1      -4.658   2.071  25.854  0.00  0.00    +0.124 C 
BRANCH  15   3
ATOM      1  O   UNL     1      -4.038  -0.737  26.095  0.00  0.00    -0.253 OA
ATOM      3  N   UNL     1      -4.614   1.104  24.800  0.00  0.00    -0.298 N 
ATOM      6  N   UNL     1      -4.332  -0.963  23.804  0.00  0.00    -0.297 N 
ATOM     20  C   UNL     1      -4.303  -0.247  24.998  0.00  0.00    +0.300 C 
ATOM     33  H   UNL     1      -4.813   1.416  23.855  0.00  0.00    +0.150 HD
ATOM     34  H   UNL     1      -4.636  -0.484  22.961  0.00  0.00    +0.150 HD
BRANCH   6  23
ATOM     23  C   UNL     1      -4.048  -2.377  23.732  0.00  0.00    +0.068 C 
ATOM     26  C   UNL     1      -5.233  -3.125  23.137  0.00  0.00    +0.027 C 
ATOM     27  C   UNL     1      -3.686  -2.919  25.109  0.00  0.00    +0.027 C 
ENDBRANCH   6  23
ENDBRANCH  15   3
ENDBRANCH  10  15
TORSDOF 6
ENDMDL
MODEL 4
REMARK VINA RESULT:       7.7      2.408      4.476
REMARK  Name = 26742496
REMARK  11 active torsions:
REMARK  status: ('A' for Active; 'I' for Inactive)
REMARK    1  A    between atoms: N_3  and  C_15
REMARK    2  A    between atoms: N_6  and  C_23
REMARK    3  A    between atoms: N_7  and  C_30
REMARK    4  A    between atoms: N_7  and  C_31
REMARK    5  A    between atoms: N_7  and  C_32
REMARK    6  A    between atoms: C_9  and  C_16
REMARK    7  A    between atoms: C_10  and  C_15
REMARK    8  A    between atoms: C_18  and  C_21
REMARK    9  A    between atoms: C_19  and  C_22
REMARK   10  A    between atoms: C_23  and  C_26
REMARK   11  A    between atoms: C_23  and  C_27
REMARK                            x       y       z     vdW  Elec       q    Type
REMARK                         _______ _______ _______ _____ _____    ______ ____
ROOT
ATOM      2  N   UNL     1      -3.925  -1.395  25.662  0.00  0.00    -0.297 NA
ATOM      8  C   UNL     1      -2.349  -2.172  23.739  0.00  0.00    +0.002 C 
ATOM      9  C   UNL     1      -1.555  -1.357  24.799  0.00  0.00    +0.055 C 
ATOM     10  C   UNL     1      -4.522  -1.049  24.344  0.00  0.00    +0.074 C 
ATOM     11  C   UNL     1      -3.515  -1.312  23.205  0.00  0.00    +0.024 C 
ATOM     12  C   UNL     1      -2.975  -3.373  24.480  0.00  0.00    +0.019 C 
ATOM     13  C   UNL     1      -2.590  -0.762  25.797  0.00  0.00    +0.094 C 
ATOM     14  C   UNL     1      -3.748  -2.866  25.709  0.00  0.00    +0.085 C 
ENDROOT
BRANCH   9  16
ATOM      4  N   UNL     1      -1.052   0.915  24.048  0.00  0.00    -0.237 NA
ATOM      5  N   UNL     1       1.172   1.596  23.419  0.00  0.00    -0.232 NA
ATOM     16  C   UNL     1      -0.562  -0.315  24.307  0.00  0.00    +0.050 A 
ATOM     17  C   UNL     1       0.765  -0.661  24.148  0.00  0.00    +0.052 A 
ATOM     18  C   UNL     1       1.594   0.345  23.696  0.00  0.00    +0.075 A 
ATOM     19  C   UNL     1      -0.143   1.809  23.614  0.00  0.00    +0.127 A 
ATOM     22  C   UNL     1      -0.647   3.180  23.315  0.00  0.00    +0.088 C 
BRANCH  18  21
ATOM     21  C   UNL     1       3.003   0.113  23.488  0.00  0.00    +0.001 A 
ATOM     24  C   UNL     1       3.793   1.098  22.894  0.00  0.00    +0.012 A 
ATOM     25  C   UNL     1       3.576  -1.097  23.882  0.00  0.00    +0.012 A 
ATOM     28  C   UNL     1       5.155   0.873  22.694  0.00  0.00    +0.024 A 
ATOM     29  C   UNL     1       4.938  -1.322  23.681  0.00  0.00    +0.024 A 
ATOM     30  C   UNL     1       5.727  -0.336  23.088  0.00  0.00    +0.029 A 
BRANCH  30   7
ATOM      7  N   UNL     1       7.104  -0.564  22.885  0.00  0.00    -0.336 N 
ATOM     31  C   UNL     1       8.089   0.314  23.484  0.00  0.00    +0.129 C 
ATOM     32  C   UNL     1       7.553  -1.684  22.082  0.00  0.00    +0.129 C 
ENDBRANCH  30   7
ENDBRANCH  18  21
ENDBRANCH   9  16
BRANCH  10  15
ATOM     15  C   UNL     1      -5.063   0.382  24.308  0.00  0.00    +0.124 C 
BRANCH  15   3
ATOM      1  O   UNL     1      -5.282   2.997  25.507  0.00  0.00    -0.253 OA
ATOM      3  N   UNL     1      -4.011   1.331  24.504  0.00  0.00    -0.298 N 
ATOM      6  N   UNL     1      -3.008   3.307  25.162  0.00  0.00    -0.297 N 
ATOM     20  C   UNL     1      -4.198   2.586  25.096  0.00  0.00    +0.300 C 
ATOM     33  H   UNL     1      -3.077   1.085  24.191  0.00  0.00    +0.150 HD
ATOM     34  H   UNL     1      -2.151   2.852  24.865  0.00  0.00    +0.150 HD
BRANCH   6  23
ATOM     23  C   UNL     1      -2.928   4.633  25.729  0.00  0.00    +0.068 C 
ATOM     26  C   UNL     1      -1.652   5.327  25.271  0.00  0.00    +0.027 C 
ATOM     27  C   UNL     1      -3.008   4.571  27.249  0.00  0.00    +0.027 C 
ENDBRANCH   6  23
ENDBRANCH  15   3
ENDBRANCH  10  15
TORSDOF 6
ENDMDL
