MODEL 1
REMARK VINA RESULT:      -2.8      0.000      0.000
REMARK  Name = 26742941
REMARK  7 active torsions:
REMARK  status: ('A' for Active; 'I' for Inactive)
REMARK    1  A    between atoms: N_6  and  C_19
REMARK    2  A    between atoms: C_8  and  C_14
REMARK    3  A    between atoms: C_9  and  C_13
REMARK    4  A    between atoms: C_13  and  C_15
REMARK    5  A    between atoms: C_14  and  C_16
REMARK    6  A    between atoms: C_18  and  C_20
REMARK    7  A    between atoms: C_19  and  C_21
REMARK                            x       y       z     vdW  Elec       q    Type
REMARK                         _______ _______ _______ _____ _____    ______ ____
ROOT
ATOM      5  N   UNL     1      -0.715   5.239  24.702  0.00  0.00    -0.316 NA
ATOM      8  C   UNL     1      -2.828   3.322  25.454  0.00  0.00    +0.004 C 
ATOM      9  C   UNL     1      -1.557   2.903  24.679  0.00  0.00    +0.012 C 
ATOM     10  C   UNL     1      -2.530   4.602  26.251  0.00  0.00    +0.019 C 
ATOM     11  C   UNL     1      -0.980   4.071  23.861  0.00  0.00    +0.085 C 
ATOM     12  C   UNL     1      -1.922   5.702  25.383  0.00  0.00    +0.081 C 
ATOM     30  H   UNL     1      -0.343   5.992  24.124  0.00  0.00    +0.122 HD
ENDROOT
BRANCH   9  13
ATOM     13  C   UNL     1      -1.775   1.679  23.787  0.00  0.00    +0.064 C 
BRANCH  13  15
ATOM      4  O   UNL     1       0.831  -0.624  22.860  0.00  0.00    -0.354 OA
ATOM      7  N   UNL     1      -0.504  -0.252  22.957  0.00  0.00    -0.083 NA
ATOM     15  C   UNL     1      -0.486   0.957  23.524  0.00  0.00    +0.085 A 
ATOM     17  C   UNL     1       0.819   1.396  23.804  0.00  0.00    +0.076 A 
ATOM     18  C   UNL     1       1.609   0.366  23.367  0.00  0.00    +0.167 A 
BRANCH  18  20
ATOM      2  F   UNL     1       7.093  -0.570  23.249  0.00  0.00    -0.205 F 
ATOM     20  C   UNL     1       3.023   0.123  23.335  0.00  0.00    +0.020 A 
ATOM     22  C   UNL     1       3.531  -1.100  23.772  0.00  0.00    +0.014 A 
ATOM     23  C   UNL     1       3.890   1.112  22.870  0.00  0.00    +0.014 A 
ATOM     25  C   UNL     1       4.906  -1.334  23.743  0.00  0.00    +0.039 A 
ATOM     26  C   UNL     1       5.264   0.878  22.840  0.00  0.00    +0.039 A 
ATOM     29  C   UNL     1       5.772  -0.346  23.276  0.00  0.00    +0.123 A 
ENDBRANCH  18  20
ENDBRANCH  13  15
ENDBRANCH   9  13
BRANCH   8  14
ATOM     14  C   UNL     1      -4.068   3.506  24.570  0.00  0.00    +0.099 C 
BRANCH  14  16
ATOM      3  O   UNL     1      -6.233   2.488  24.926  0.00  0.00    -0.276 OA
ATOM      6  N   UNL     1      -4.391   1.135  24.505  0.00  0.00    -0.311 N 
ATOM     16  C   UNL     1      -5.036   2.349  24.691  0.00  0.00    +0.214 C 
ATOM     31  H   UNL     1      -3.406   1.128  24.263  0.00  0.00    +0.149 HD
BRANCH   6  19
ATOM     19  C   UNL     1      -5.073  -0.138  24.569  0.00  0.00    +0.146 C 
BRANCH  19  21
ATOM      1  S   UNL     1      -2.771  -1.264  25.642  0.00  0.00    -0.100 S 
ATOM     21  C   UNL     1      -4.110  -1.290  24.576  0.00  0.00    +0.007 A 
ATOM     24  C   UNL     1      -4.139  -2.436  23.811  0.00  0.00    +0.013 A 
ATOM     27  C   UNL     1      -3.047  -3.303  24.104  0.00  0.00    +0.008 A 
ATOM     28  C   UNL     1      -2.226  -2.787  25.082  0.00  0.00    +0.045 A 
ENDBRANCH  19  21
ENDBRANCH   6  19
ENDBRANCH  14  16
ENDBRANCH   8  14
TORSDOF 7
ENDMDL
MODEL 2
REMARK VINA RESULT:      -1.7      1.613      4.526
REMARK  Name = 26742941
REMARK  7 active torsions:
REMARK  status: ('A' for Active; 'I' for Inactive)
REMARK    1  A    between atoms: N_6  and  C_19
REMARK    2  A    between atoms: C_8  and  C_14
REMARK    3  A    between atoms: C_9  and  C_13
REMARK    4  A    between atoms: C_13  and  C_15
REMARK    5  A    between atoms: C_14  and  C_16
REMARK    6  A    between atoms: C_18  and  C_20
REMARK    7  A    between atoms: C_19  and  C_21
REMARK                            x       y       z     vdW  Elec       q    Type
REMARK                         _______ _______ _______ _____ _____    ______ ____
ROOT
ATOM      5  N   UNL     1      -2.070  -2.919  24.537  0.00  0.00    -0.316 NA
ATOM      8  C   UNL     1      -4.118  -0.885  23.926  0.00  0.00    +0.004 C 
ATOM      9  C   UNL     1      -2.611  -0.660  23.659  0.00  0.00    +0.012 C 
ATOM     10  C   UNL     1      -4.406  -2.396  23.931  0.00  0.00    +0.019 C 
ATOM     11  C   UNL     1      -1.735  -1.497  24.608  0.00  0.00    +0.085 C 
ATOM     12  C   UNL     1      -3.472  -3.164  24.864  0.00  0.00    +0.081 C 
ATOM     30  H   UNL     1      -1.476  -3.438  25.184  0.00  0.00    +0.122 HD
ENDROOT
BRANCH   9  13
ATOM     13  C   UNL     1      -2.206   0.814  23.714  0.00  0.00    +0.064 C 
BRANCH  13  15
ATOM      4  O   UNL     1       1.204   1.942  23.947  0.00  0.00    -0.354 OA
ATOM      7  N   UNL     1      -0.166   2.138  24.061  0.00  0.00    -0.083 NA
ATOM     15  C   UNL     1      -0.714   0.972  23.708  0.00  0.00    +0.085 A 
ATOM     17  C   UNL     1       0.253   0.011  23.366  0.00  0.00    +0.076 A 
ATOM     18  C   UNL     1       1.442   0.671  23.533  0.00  0.00    +0.167 A 
BRANCH  18  20
ATOM      2  F   UNL     1       6.798  -0.694  22.900  0.00  0.00    -0.205 F 
ATOM     20  C   UNL     1       2.822   0.318  23.368  0.00  0.00    +0.020 A 
ATOM     22  C   UNL     1       3.267  -0.952  23.739  0.00  0.00    +0.014 A 
ATOM     23  C   UNL     1       3.721   1.245  22.841  0.00  0.00    +0.014 A 
ATOM     25  C   UNL     1       4.610  -1.293  23.580  0.00  0.00    +0.039 A 
ATOM     26  C   UNL     1       5.063   0.903  22.682  0.00  0.00    +0.039 A 
ATOM     29  C   UNL     1       5.508  -0.366  23.052  0.00  0.00    +0.123 A 
ENDBRANCH  18  20
ENDBRANCH  13  15
ENDBRANCH   9  13
BRANCH   8  14
ATOM     14  C   UNL     1      -4.630  -0.227  25.214  0.00  0.00    +0.099 C 
BRANCH  14  16
ATOM      3  O   UNL     1      -5.943   1.573  24.271  0.00  0.00    -0.276 OA
ATOM      6  N   UNL     1      -4.205   2.071  25.731  0.00  0.00    -0.311 N 
ATOM     16  C   UNL     1      -5.021   1.220  25.001  0.00  0.00    +0.214 C 
ATOM     31  H   UNL     1      -3.503   1.678  26.348  0.00  0.00    +0.149 HD
BRANCH   6  19
ATOM     19  C   UNL     1      -4.352   3.509  25.716  0.00  0.00    +0.146 C 
BRANCH  19  21
ATOM      1  S   UNL     1      -1.603   3.606  26.106  0.00  0.00    -0.100 S 
ATOM     21  C   UNL     1      -3.054   4.203  25.419  0.00  0.00    +0.007 A 
ATOM     24  C   UNL     1      -2.834   5.312  24.633  0.00  0.00    +0.013 A 
ATOM     27  C   UNL     1      -1.458   5.677  24.593  0.00  0.00    +0.008 A 
ATOM     28  C   UNL     1      -0.677   4.833  25.351  0.00  0.00    +0.045 A 
ENDBRANCH  19  21
ENDBRANCH   6  19
ENDBRANCH  14  16
ENDBRANCH   8  14
TORSDOF 7
ENDMDL
