MODEL 1
REMARK VINA RESULT:       9.0      0.000      0.000
REMARK  Name = 26743404
REMARK  8 active torsions:
REMARK  status: ('A' for Active; 'I' for Inactive)
REMARK    1  A    between atoms: O_2  and  C_28
REMARK    2  A    between atoms: O_2  and  C_29
REMARK    3  A    between atoms: N_3  and  C_8
REMARK    4  A    between atoms: N_4  and  C_17
REMARK    5  A    between atoms: C_6  and  C_9
REMARK    6  A    between atoms: C_12  and  C_14
REMARK    7  A    between atoms: C_13  and  C_15
REMARK    8  A    between atoms: C_16  and  C_18
REMARK                            x       y       z     vdW  Elec       q    Type
REMARK                         _______ _______ _______ _____ _____    ______ ____
ROOT
ATOM      6  C   UNL     1      -1.409  -0.448  24.153  0.00  0.00    +0.047 C 
ATOM      7  C   UNL     1      -0.603  -0.640  25.452  0.00  0.00    +0.039 C 
ATOM      8  C   UNL     1       0.164  -1.963  25.288  0.00  0.00    +0.097 C 
ATOM     10  C   UNL     1      -1.500  -1.849  23.625  0.00  0.00    -0.021 C 
ATOM     11  C   UNL     1      -0.639  -2.667  24.239  0.00  0.00    -0.009 C 
ENDROOT
BRANCH   6   9
ATOM      4  N   UNL     1      -4.321   1.685  24.776  0.00  0.00    -0.236 N 
ATOM      5  N   UNL     1      -4.997   0.546  24.545  0.00  0.00    -0.171 NA
ATOM      9  C   UNL     1      -2.741   0.233  24.371  0.00  0.00    +0.003 A 
ATOM     12  C   UNL     1      -2.967   1.551  24.684  0.00  0.00    +0.046 A 
ATOM     13  C   UNL     1      -4.026  -0.338  24.297  0.00  0.00    +0.064 A 
ATOM     14  C   UNL     1      -2.025   2.669  24.898  0.00  0.00    +0.066 C 
ATOM     15  C   UNL     1      -4.379  -1.735  23.990  0.00  0.00    +0.068 C 
BRANCH   4  17
ATOM     17  C   UNL     1      -5.020   2.854  25.077  0.00  0.00    +0.066 A 
ATOM     19  C   UNL     1      -4.606   4.073  24.538  0.00  0.00    +0.028 A 
ATOM     20  C   UNL     1      -6.133   2.805  25.917  0.00  0.00    +0.028 A 
ATOM     23  C   UNL     1      -5.305   5.241  24.839  0.00  0.00    +0.002 A 
ATOM     24  C   UNL     1      -6.833   3.974  26.217  0.00  0.00    +0.002 A 
ATOM     25  C   UNL     1      -6.419   5.192  25.677  0.00  0.00    +0.000 A 
ENDBRANCH   4  17
ENDBRANCH   6   9
BRANCH   8   3
ATOM      1  O   UNL     1       1.095  -0.016  23.374  0.00  0.00    -0.270 OA
ATOM      3  N   UNL     1       1.539  -1.748  24.853  0.00  0.00    -0.305 N 
ATOM     16  C   UNL     1       1.889  -0.778  23.919  0.00  0.00    +0.245 C 
ATOM     30  H   UNL     1       2.236  -2.401  25.195  0.00  0.00    +0.150 HD
BRANCH  16  18
ATOM     18  C   UNL     1       3.330  -0.702  23.562  0.00  0.00    +0.037 A 
ATOM     21  C   UNL     1       4.202  -1.712  23.969  0.00  0.00    +0.016 A 
ATOM     22  C   UNL     1       3.810   0.378  22.823  0.00  0.00    +0.016 A 
ATOM     26  C   UNL     1       5.555  -1.642  23.635  0.00  0.00    +0.046 A 
ATOM     27  C   UNL     1       5.162   0.450  22.489  0.00  0.00    +0.046 A 
ATOM     28  C   UNL     1       6.034  -0.561  22.896  0.00  0.00    +0.120 A 
BRANCH  28   2
ATOM      2  O   UNL     1       7.354  -0.490  22.569  0.00  0.00    -0.495 OA
ATOM     29  C   UNL     1       8.228   0.106  23.528  0.00  0.00    +0.277 C 
ENDBRANCH  28   2
ENDBRANCH  16  18
ENDBRANCH   8   3
TORSDOF 5
ENDMDL
MODEL 2
REMARK VINA RESULT:      10.7      1.633      2.790
REMARK  Name = 26743404
REMARK  8 active torsions:
REMARK  status: ('A' for Active; 'I' for Inactive)
REMARK    1  A    between atoms: O_2  and  C_28
REMARK    2  A    between atoms: O_2  and  C_29
REMARK    3  A    between atoms: N_3  and  C_8
REMARK    4  A    between atoms: N_4  and  C_17
REMARK    5  A    between atoms: C_6  and  C_9
REMARK    6  A    between atoms: C_12  and  C_14
REMARK    7  A    between atoms: C_13  and  C_15
REMARK    8  A    between atoms: C_16  and  C_18
REMARK                            x       y       z     vdW  Elec       q    Type
REMARK                         _______ _______ _______ _____ _____    ______ ____
ROOT
ATOM      6  C   UNL     1       0.276   1.355  23.609  0.00  0.00    +0.047 C 
ATOM      7  C   UNL     1       0.635   0.102  24.431  0.00  0.00    +0.039 C 
ATOM      8  C   UNL     1       1.214  -0.915  23.432  0.00  0.00    +0.097 C 
ATOM     10  C   UNL     1       0.137   0.797  22.223  0.00  0.00    -0.021 C 
ATOM     11  C   UNL     1       0.655  -0.433  22.130  0.00  0.00    -0.009 C 
ENDROOT
BRANCH   6   9
ATOM      4  N   UNL     1      -2.955   2.589  24.815  0.00  0.00    -0.236 N 
ATOM      5  N   UNL     1      -2.291   3.754  24.898  0.00  0.00    -0.171 NA
ATOM      9  C   UNL     1      -0.947   2.078  24.124  0.00  0.00    +0.003 A 
ATOM     12  C   UNL     1      -2.195   1.553  24.358  0.00  0.00    +0.046 A 
ATOM     13  C   UNL     1      -1.065   3.436  24.474  0.00  0.00    +0.064 A 
ATOM     14  C   UNL     1      -2.713   0.180  24.187  0.00  0.00    +0.066 C 
ATOM     15  C   UNL     1      -0.023   4.477  24.422  0.00  0.00    +0.068 C 
BRANCH   4  17
ATOM     17  C   UNL     1      -4.299   2.531  25.185  0.00  0.00    +0.066 A 
ATOM     19  C   UNL     1      -4.973   3.697  25.550  0.00  0.00    +0.028 A 
ATOM     20  C   UNL     1      -4.970   1.308  25.189  0.00  0.00    +0.028 A 
ATOM     23  C   UNL     1      -6.317   3.639  25.919  0.00  0.00    +0.002 A 
ATOM     24  C   UNL     1      -6.314   1.250  25.557  0.00  0.00    +0.002 A 
ATOM     25  C   UNL     1      -6.987   2.416  25.922  0.00  0.00    +0.000 A 
ENDBRANCH   4  17
ENDBRANCH   6   9
BRANCH   8   3
ATOM      1  O   UNL     1       2.930   1.384  23.131  0.00  0.00    -0.270 OA
ATOM      3  N   UNL     1       2.672  -0.903  23.424  0.00  0.00    -0.305 N 
ATOM     16  C   UNL     1       3.414   0.263  23.271  0.00  0.00    +0.245 C 
ATOM     30  H   UNL     1       3.138  -1.804  23.445  0.00  0.00    +0.150 HD
BRANCH  16  18
ATOM     18  C   UNL     1       4.891   0.103  23.259  0.00  0.00    +0.037 A 
ATOM     21  C   UNL     1       5.476  -0.901  22.487  0.00  0.00    +0.016 A 
ATOM     22  C   UNL     1       5.692   0.956  24.017  0.00  0.00    +0.016 A 
ATOM     26  C   UNL     1       6.863  -1.053  22.474  0.00  0.00    +0.046 A 
ATOM     27  C   UNL     1       7.079   0.805  24.005  0.00  0.00    +0.046 A 
ATOM     28  C   UNL     1       7.664  -0.200  23.234  0.00  0.00    +0.120 A 
BRANCH  28   2
ATOM      2  O   UNL     1       9.017  -0.347  23.223  0.00  0.00    -0.495 OA
ATOM     29  C   UNL     1       9.798   0.845  23.151  0.00  0.00    +0.277 C 
ENDBRANCH  28   2
ENDBRANCH  16  18
ENDBRANCH   8   3
TORSDOF 5
ENDMDL
MODEL 3
REMARK VINA RESULT:      11.0      1.467      1.997
REMARK  Name = 26743404
REMARK  8 active torsions:
REMARK  status: ('A' for Active; 'I' for Inactive)
REMARK    1  A    between atoms: O_2  and  C_28
REMARK    2  A    between atoms: O_2  and  C_29
REMARK    3  A    between atoms: N_3  and  C_8
REMARK    4  A    between atoms: N_4  and  C_17
REMARK    5  A    between atoms: C_6  and  C_9
REMARK    6  A    between atoms: C_12  and  C_14
REMARK    7  A    between atoms: C_13  and  C_15
REMARK    8  A    between atoms: C_16  and  C_18
REMARK                            x       y       z     vdW  Elec       q    Type
REMARK                         _______ _______ _______ _____ _____    ______ ____
ROOT
ATOM      6  C   UNL     1       0.071   0.367  23.813  0.00  0.00    +0.047 C 
ATOM      7  C   UNL     1       0.631  -1.020  24.185  0.00  0.00    +0.039 C 
ATOM      8  C   UNL     1       1.527  -1.450  23.011  0.00  0.00    +0.097 C 
ATOM     10  C   UNL     1       0.204   0.372  22.319  0.00  0.00    -0.021 C 
ATOM     11  C   UNL     1       1.001  -0.611  21.888  0.00  0.00    -0.009 C 
ENDROOT
BRANCH   6   9
ATOM      4  N   UNL     1      -3.221   1.503  24.947  0.00  0.00    -0.236 N 
ATOM      5  N   UNL     1      -3.417   0.190  25.160  0.00  0.00    -0.171 NA
ATOM      9  C   UNL     1      -1.332   0.602  24.323  0.00  0.00    +0.003 A 
ATOM     12  C   UNL     1      -1.989   1.802  24.446  0.00  0.00    +0.046 A 
ATOM     13  C   UNL     1      -2.259  -0.355  24.776  0.00  0.00    +0.064 A 
ATOM     14  C   UNL     1      -1.553   3.179  24.134  0.00  0.00    +0.066 C 
ATOM     15  C   UNL     1      -2.083  -1.816  24.861  0.00  0.00    +0.068 C 
BRANCH   4  17
ATOM     17  C   UNL     1      -4.240   2.409  25.240  0.00  0.00    +0.066 A 
ATOM     19  C   UNL     1      -3.960   3.775  25.308  0.00  0.00    +0.028 A 
ATOM     20  C   UNL     1      -5.539   1.952  25.464  0.00  0.00    +0.028 A 
ATOM     23  C   UNL     1      -4.979   4.681  25.600  0.00  0.00    +0.002 A 
ATOM     24  C   UNL     1      -6.558   2.859  25.755  0.00  0.00    +0.002 A 
ATOM     25  C   UNL     1      -6.278   4.224  25.823  0.00  0.00    +0.000 A 
ENDBRANCH   4  17
ENDBRANCH   6   9
BRANCH   8   3
ATOM      1  O   UNL     1       3.079   0.757  21.992  0.00  0.00    -0.270 OA
ATOM      3  N   UNL     1       2.935  -1.174  23.269  0.00  0.00    -0.305 N 
ATOM     16  C   UNL     1       3.598  -0.078  22.729  0.00  0.00    +0.245 C 
ATOM     30  H   UNL     1       3.450  -1.872  23.797  0.00  0.00    +0.150 HD
BRANCH  16  18
ATOM     18  C   UNL     1       5.039   0.048  23.067  0.00  0.00    +0.037 A 
ATOM     21  C   UNL     1       5.975  -0.782  22.448  0.00  0.00    +0.016 A 
ATOM     22  C   UNL     1       5.457   0.994  24.002  0.00  0.00    +0.016 A 
ATOM     26  C   UNL     1       7.329  -0.665  22.766  0.00  0.00    +0.046 A 
ATOM     27  C   UNL     1       6.810   1.112  24.321  0.00  0.00    +0.046 A 
ATOM     28  C   UNL     1       7.745   0.282  23.702  0.00  0.00    +0.120 A 
BRANCH  28   2
ATOM      2  O   UNL     1       9.066   0.397  24.013  0.00  0.00    -0.495 OA
ATOM     29  C   UNL     1      10.004   0.057  22.992  0.00  0.00    +0.277 C 
ENDBRANCH  28   2
ENDBRANCH  16  18
ENDBRANCH   8   3
TORSDOF 5
ENDMDL
