MODEL 1
REMARK VINA RESULT:      -3.6      0.000      0.000
REMARK  Name = 75536685
REMARK  10 active torsions:
REMARK  status: ('A' for Active; 'I' for Inactive)
REMARK    1  A    between atoms: S_1  and  N_8
REMARK    2  A    between atoms: S_1  and  C_17
REMARK    3  A    between atoms: O_3  and  C_11
REMARK    4  A    between atoms: N_7  and  C_10
REMARK    5  A    between atoms: N_7  and  C_15
REMARK    6  A    between atoms: N_8  and  C_14
REMARK    7  A    between atoms: N_9  and  C_24
REMARK    8  A    between atoms: C_12  and  C_14
REMARK    9  A    between atoms: C_15  and  C_16
REMARK   10  A    between atoms: C_28  and  C_29
REMARK                            x       y       z     vdW  Elec       q    Type
REMARK                         _______ _______ _______ _____ _____    ______ ____
ROOT
ATOM      2  O   UNL     1       0.058   3.670  23.902  0.00  0.00    -0.371 OA
ATOM     10  C   UNL     1      -1.535   4.546  25.430  0.00  0.00    +0.111 C 
ATOM     11  C   UNL     1      -1.198   3.121  25.829  0.00  0.00    +0.164 C 
ATOM     12  C   UNL     1       0.142   2.931  25.131  0.00  0.00    +0.164 C 
ATOM     13  C   UNL     1      -1.057   4.576  23.988  0.00  0.00    +0.181 C 
ENDROOT
BRANCH  11   3
ATOM      3  O   UNL     1      -1.090   2.958  27.230  0.00  0.00    -0.388 OA
ATOM     31  H   UNL     1      -1.434   3.759  27.659  0.00  0.00    +0.210 HD
ENDBRANCH  11   3
BRANCH  10   7
ATOM      7  N   UNL     1      -2.946   4.871  25.564  0.00  0.00    -0.305 NA
ATOM     30  H   UNL     1      -3.046   5.880  25.677  0.00  0.00    +0.123 HD
BRANCH   7  15
ATOM     15  C   UNL     1      -3.696   4.451  24.387  0.00  0.00    +0.116 C 
BRANCH  15  16
ATOM     16  C   UNL     1      -3.834   2.953  24.315  0.00  0.00    -0.033 A 
ATOM     18  C   UNL     1      -4.630   2.281  25.241  0.00  0.00    +0.007 A 
ATOM     19  C   UNL     1      -3.164   2.237  23.322  0.00  0.00    +0.007 A 
ATOM     20  C   UNL     1      -4.757   0.893  25.176  0.00  0.00    +0.023 A 
ATOM     21  C   UNL     1      -3.290   0.850  23.257  0.00  0.00    +0.023 A 
ATOM     24  C   UNL     1      -4.087   0.178  24.184  0.00  0.00    +0.033 A 
BRANCH  24   9
ATOM      6  O   UNL     1      -2.171  -1.999  24.995  0.00  0.00    -0.276 OA
ATOM      9  N   UNL     1      -4.213  -1.210  24.119  0.00  0.00    -0.286 N 
ATOM     28  C   UNL     1      -3.283  -2.182  24.512  0.00  0.00    +0.214 C 
ATOM     29  C   UNL     1      -3.802  -3.579  24.278  0.00  0.00    +0.109 C 
ATOM     33  H   UNL     1      -5.094  -1.549  23.737  0.00  0.00    +0.155 HD
ENDBRANCH  24   9
ENDBRANCH  15  16
ENDBRANCH   7  15
ENDBRANCH  10   7
BRANCH  12  14
ATOM     14  C   UNL     1       0.464   1.477  24.834  0.00  0.00    +0.140 C 
BRANCH  14   8
ATOM      8  N   UNL     1       0.825   1.329  23.411  0.00  0.00    -0.187 NA
ATOM     32  H   UNL     1       0.392   2.005  22.769  0.00  0.00    +0.148 HD
BRANCH   8   1
ATOM      1  S   UNL     1       1.279  -0.192  22.800  0.00  0.00    +0.058 S 
ATOM      4  O   UNL     1       1.124  -0.196  21.358  0.00  0.00    -0.153 OA
ATOM      5  O   UNL     1       0.657  -1.228  23.603  0.00  0.00    -0.153 OA
BRANCH   1  17
ATOM     17  C   UNL     1       3.008  -0.226  23.162  0.00  0.00    +0.105 A 
ATOM     22  C   UNL     1       3.794   0.901  22.923  0.00  0.00    +0.028 A 
ATOM     23  C   UNL     1       3.588  -1.380  23.688  0.00  0.00    +0.028 A 
ATOM     25  C   UNL     1       5.159   0.875  23.210  0.00  0.00    +0.002 A 
ATOM     26  C   UNL     1       4.953  -1.407  23.976  0.00  0.00    +0.002 A 
ATOM     27  C   UNL     1       5.738  -0.280  23.736  0.00  0.00    +0.000 A 
ENDBRANCH   1  17
ENDBRANCH   8   1
ENDBRANCH  14   8
ENDBRANCH  12  14
TORSDOF 9
ENDMDL
MODEL 2
REMARK VINA RESULT:      -3.4     15.876     19.017
REMARK  Name = 75536685
REMARK  10 active torsions:
REMARK  status: ('A' for Active; 'I' for Inactive)
REMARK    1  A    between atoms: S_1  and  N_8
REMARK    2  A    between atoms: S_1  and  C_17
REMARK    3  A    between atoms: O_3  and  C_11
REMARK    4  A    between atoms: N_7  and  C_10
REMARK    5  A    between atoms: N_7  and  C_15
REMARK    6  A    between atoms: N_8  and  C_14
REMARK    7  A    between atoms: N_9  and  C_24
REMARK    8  A    between atoms: C_12  and  C_14
REMARK    9  A    between atoms: C_15  and  C_16
REMARK   10  A    between atoms: C_28  and  C_29
REMARK                            x       y       z     vdW  Elec       q    Type
REMARK                         _______ _______ _______ _____ _____    ______ ____
ROOT
ATOM      2  O   UNL     1      14.187  -6.663  31.860  0.00  0.00    -0.371 OA
ATOM     10  C   UNL     1      15.597  -5.863  30.124  0.00  0.00    +0.111 C 
ATOM     11  C   UNL     1      14.967  -7.172  29.686  0.00  0.00    +0.164 C 
ATOM     12  C   UNL     1      13.762  -7.243  30.615  0.00  0.00    +0.164 C 
ATOM     13  C   UNL     1      15.399  -5.923  31.630  0.00  0.00    +0.181 C 
ENDROOT
BRANCH  11   3
ATOM      3  O   UNL     1      14.581  -7.163  28.325  0.00  0.00    -0.388 OA
ATOM     31  H   UNL     1      15.039  -6.429  27.881  0.00  0.00    +0.210 HD
ENDBRANCH  11   3
BRANCH  10   7
ATOM      7  N   UNL     1      16.994  -5.732  29.742  0.00  0.00    -0.305 NA
ATOM     30  H   UNL     1      17.577  -6.162  30.460  0.00  0.00    +0.123 HD
BRANCH   7  15
ATOM     15  C   UNL     1      17.253  -6.389  28.467  0.00  0.00    +0.116 C 
BRANCH  15  16
ATOM     16  C   UNL     1      17.294  -5.405  27.328  0.00  0.00    -0.033 A 
ATOM     18  C   UNL     1      17.346  -4.037  27.591  0.00  0.00    +0.007 A 
ATOM     19  C   UNL     1      17.281  -5.862  26.010  0.00  0.00    +0.007 A 
ATOM     20  C   UNL     1      17.383  -3.124  26.537  0.00  0.00    +0.023 A 
ATOM     21  C   UNL     1      17.317  -4.950  24.955  0.00  0.00    +0.023 A 
ATOM     24  C   UNL     1      17.369  -3.581  25.219  0.00  0.00    +0.033 A 
BRANCH  24   9
ATOM      6  O   UNL     1      15.376  -3.050  23.025  0.00  0.00    -0.276 OA
ATOM      9  N   UNL     1      17.405  -2.669  24.163  0.00  0.00    -0.286 N 
ATOM     28  C   UNL     1      16.444  -2.463  23.164  0.00  0.00    +0.214 C 
ATOM     29  C   UNL     1      16.859  -1.378  22.203  0.00  0.00    +0.109 C 
ATOM     33  H   UNL     1      18.237  -2.084  24.124  0.00  0.00    +0.155 HD
ENDBRANCH  24   9
ENDBRANCH  15  16
ENDBRANCH   7  15
ENDBRANCH  10   7
BRANCH  12  14
ATOM     14  C   UNL     1      13.268  -8.659  30.851  0.00  0.00    +0.140 C 
BRANCH  14   8
ATOM      8  N   UNL     1      11.911  -8.620  31.431  0.00  0.00    -0.187 NA
ATOM     32  H   UNL     1      11.715  -7.827  32.055  0.00  0.00    +0.148 HD
BRANCH   8   1
ATOM      1  S   UNL     1      11.041 -10.064  31.660  0.00  0.00    +0.058 S 
ATOM      4  O   UNL     1      11.524 -10.732  32.854  0.00  0.00    -0.153 OA
ATOM      5  O   UNL     1      10.974 -10.780  30.401  0.00  0.00    -0.153 OA
BRANCH   1  17
ATOM     17  C   UNL     1       9.415  -9.457  31.995  0.00  0.00    +0.105 A 
ATOM     22  C   UNL     1       8.301 -10.235  31.680  0.00  0.00    +0.028 A 
ATOM     23  C   UNL     1       9.246  -8.200  32.575  0.00  0.00    +0.028 A 
ATOM     25  C   UNL     1       7.018  -9.756  31.946  0.00  0.00    +0.002 A 
ATOM     26  C   UNL     1       7.963  -7.721  32.841  0.00  0.00    +0.002 A 
ATOM     27  C   UNL     1       6.849  -8.499  32.526  0.00  0.00    +0.000 A 
ENDBRANCH   1  17
ENDBRANCH   8   1
ENDBRANCH  14   8
ENDBRANCH  12  14
TORSDOF 9
ENDMDL
MODEL 3
REMARK VINA RESULT:      -3.2      2.408      5.313
REMARK  Name = 75536685
REMARK  10 active torsions:
REMARK  status: ('A' for Active; 'I' for Inactive)
REMARK    1  A    between atoms: S_1  and  N_8
REMARK    2  A    between atoms: S_1  and  C_17
REMARK    3  A    between atoms: O_3  and  C_11
REMARK    4  A    between atoms: N_7  and  C_10
REMARK    5  A    between atoms: N_7  and  C_15
REMARK    6  A    between atoms: N_8  and  C_14
REMARK    7  A    between atoms: N_9  and  C_24
REMARK    8  A    between atoms: C_12  and  C_14
REMARK    9  A    between atoms: C_15  and  C_16
REMARK   10  A    between atoms: C_28  and  C_29
REMARK                            x       y       z     vdW  Elec       q    Type
REMARK                         _______ _______ _______ _____ _____    ______ ____
ROOT
ATOM      2  O   UNL     1      -6.353   2.621  26.248  0.00  0.00    -0.371 OA
ATOM     10  C   UNL     1      -4.822   4.080  25.167  0.00  0.00    +0.111 C 
ATOM     11  C   UNL     1      -4.698   2.694  24.561  0.00  0.00    +0.164 C 
ATOM     12  C   UNL     1      -6.034   2.081  24.955  0.00  0.00    +0.164 C 
ATOM     13  C   UNL     1      -5.522   3.771  26.481  0.00  0.00    +0.181 C 
ENDROOT
BRANCH  11   3
ATOM      3  O   UNL     1      -4.527   2.726  23.157  0.00  0.00    -0.388 OA
ATOM     31  H   UNL     1      -4.654   1.827  22.813  0.00  0.00    +0.210 HD
ENDBRANCH  11   3
BRANCH  10   7
ATOM      7  N   UNL     1      -3.546   4.753  25.351  0.00  0.00    -0.305 NA
ATOM     30  H   UNL     1      -3.715   5.695  25.704  0.00  0.00    +0.123 HD
BRANCH   7  15
ATOM     15  C   UNL     1      -2.706   4.035  26.301  0.00  0.00    +0.116 C 
BRANCH  15  16
ATOM     16  C   UNL     1      -1.544   3.358  25.623  0.00  0.00    -0.033 A 
ATOM     18  C   UNL     1      -0.516   2.808  26.386  0.00  0.00    +0.007 A 
ATOM     19  C   UNL     1      -1.496   3.284  24.231  0.00  0.00    +0.007 A 
ATOM     20  C   UNL     1       0.561   2.181  25.758  0.00  0.00    +0.023 A 
ATOM     21  C   UNL     1      -0.420   2.658  23.602  0.00  0.00    +0.023 A 
ATOM     24  C   UNL     1       0.609   2.107  24.366  0.00  0.00    +0.033 A 
BRANCH  24   9
ATOM      6  O   UNL     1       0.714  -0.399  22.699  0.00  0.00    -0.276 OA
ATOM      9  N   UNL     1       1.686   1.481  23.737  0.00  0.00    -0.286 N 
ATOM     28  C   UNL     1       1.678   0.309  22.969  0.00  0.00    +0.214 C 
ATOM     29  C   UNL     1       3.056  -0.036  22.462  0.00  0.00    +0.109 C 
ATOM     33  H   UNL     1       2.585   1.943  23.857  0.00  0.00    +0.155 HD
ENDBRANCH  24   9
ENDBRANCH  15  16
ENDBRANCH   7  15
ENDBRANCH  10   7
BRANCH  12  14
ATOM     14  C   UNL     1      -6.002   0.564  25.026  0.00  0.00    +0.140 C 
BRANCH  14   8
ATOM      8  N   UNL     1      -4.605   0.102  25.139  0.00  0.00    -0.187 NA
ATOM     32  H   UNL     1      -3.983   0.697  25.702  0.00  0.00    +0.148 HD
BRANCH   8   1
ATOM      1  S   UNL     1      -3.920  -0.849  23.906  0.00  0.00    +0.058 S 
ATOM      4  O   UNL     1      -3.628  -0.010  22.760  0.00  0.00    -0.153 OA
ATOM      5  O   UNL     1      -4.710  -2.054  23.746  0.00  0.00    -0.153 OA
BRANCH   1  17
ATOM     17  C   UNL     1      -2.383  -1.331  24.634  0.00  0.00    +0.105 A 
ATOM     22  C   UNL     1      -1.739  -2.490  24.199  0.00  0.00    +0.028 A 
ATOM     23  C   UNL     1      -1.814  -0.553  25.641  0.00  0.00    +0.028 A 
ATOM     25  C   UNL     1      -0.525  -2.870  24.773  0.00  0.00    +0.002 A 
ATOM     26  C   UNL     1      -0.600  -0.933  26.215  0.00  0.00    +0.002 A 
ATOM     27  C   UNL     1       0.044  -2.092  25.781  0.00  0.00    +0.000 A 
ENDBRANCH   1  17
ENDBRANCH   8   1
ENDBRANCH  14   8
ENDBRANCH  12  14
TORSDOF 9
ENDMDL
MODEL 4
REMARK VINA RESULT:      -3.0      1.326      4.509
REMARK  Name = 75536685
REMARK  10 active torsions:
REMARK  status: ('A' for Active; 'I' for Inactive)
REMARK    1  A    between atoms: S_1  and  N_8
REMARK    2  A    between atoms: S_1  and  C_17
REMARK    3  A    between atoms: O_3  and  C_11
REMARK    4  A    between atoms: N_7  and  C_10
REMARK    5  A    between atoms: N_7  and  C_15
REMARK    6  A    between atoms: N_8  and  C_14
REMARK    7  A    between atoms: N_9  and  C_24
REMARK    8  A    between atoms: C_12  and  C_14
REMARK    9  A    between atoms: C_15  and  C_16
REMARK   10  A    between atoms: C_28  and  C_29
REMARK                            x       y       z     vdW  Elec       q    Type
REMARK                         _______ _______ _______ _____ _____    ______ ____
ROOT
ATOM      2  O   UNL     1      -1.658  -0.999  26.616  0.00  0.00    -0.371 OA
ATOM     10  C   UNL     1      -3.116  -2.399  25.369  0.00  0.00    +0.111 C 
ATOM     11  C   UNL     1      -1.963  -1.969  24.481  0.00  0.00    +0.164 C 
ATOM     12  C   UNL     1      -0.925  -1.571  25.521  0.00  0.00    +0.164 C 
ATOM     13  C   UNL     1      -3.043  -1.363  26.479  0.00  0.00    +0.181 C 
ENDROOT
BRANCH  11   3
ATOM      3  O   UNL     1      -1.499  -3.012  23.646  0.00  0.00    -0.388 OA
ATOM     31  H   UNL     1      -1.238  -3.761  24.207  0.00  0.00    +0.210 HD
ENDBRANCH  11   3
BRANCH  10   7
ATOM      7  N   UNL     1      -4.402  -2.411  24.691  0.00  0.00    -0.305 NA
ATOM     30  H   UNL     1      -5.112  -2.032  25.317  0.00  0.00    +0.123 HD
BRANCH   7  15
ATOM     15  C   UNL     1      -4.363  -1.603  23.477  0.00  0.00    +0.116 C 
BRANCH  15  16
ATOM     16  C   UNL     1      -4.004  -0.170  23.769  0.00  0.00    -0.033 A 
ATOM     18  C   UNL     1      -2.949   0.436  23.089  0.00  0.00    +0.007 A 
ATOM     19  C   UNL     1      -4.726   0.550  24.721  0.00  0.00    +0.007 A 
ATOM     20  C   UNL     1      -2.614   1.763  23.359  0.00  0.00    +0.023 A 
ATOM     21  C   UNL     1      -4.392   1.877  24.992  0.00  0.00    +0.023 A 
ATOM     24  C   UNL     1      -3.337   2.483  24.311  0.00  0.00    +0.033 A 
BRANCH  24   9
ATOM      6  O   UNL     1      -0.780   3.680  25.358  0.00  0.00    -0.276 OA
ATOM      9  N   UNL     1      -3.002   3.811  24.583  0.00  0.00    -0.286 N 
ATOM     28  C   UNL     1      -1.790   4.314  25.073  0.00  0.00    +0.214 C 
ATOM     29  C   UNL     1      -1.830   5.814  25.230  0.00  0.00    +0.109 C 
ATOM     33  H   UNL     1      -3.738   4.490  24.398  0.00  0.00    +0.155 HD
ENDBRANCH  24   9
ENDBRANCH  15  16
ENDBRANCH   7  15
ENDBRANCH  10   7
BRANCH  12  14
ATOM     14  C   UNL     1       0.091  -0.568  25.004  0.00  0.00    +0.140 C 
BRANCH  14   8
ATOM      8  N   UNL     1       0.642  -1.037  23.718  0.00  0.00    -0.187 NA
ATOM     32  H   UNL     1       0.931  -2.024  23.690  0.00  0.00    +0.148 HD
BRANCH   8   1
ATOM      1  S   UNL     1       1.407   0.060  22.666  0.00  0.00    +0.058 S 
ATOM      4  O   UNL     1       1.000   1.410  23.003  0.00  0.00    -0.153 OA
ATOM      5  O   UNL     1       1.277  -0.423  21.305  0.00  0.00    -0.153 OA
BRANCH   1  17
ATOM     17  C   UNL     1       3.104  -0.127  23.121  0.00  0.00    +0.105 A 
ATOM     22  C   UNL     1       3.988   0.943  22.975  0.00  0.00    +0.028 A 
ATOM     23  C   UNL     1       3.561  -1.345  23.625  0.00  0.00    +0.028 A 
ATOM     25  C   UNL     1       5.327   0.795  23.335  0.00  0.00    +0.002 A 
ATOM     26  C   UNL     1       4.901  -1.492  23.985  0.00  0.00    +0.002 A 
ATOM     27  C   UNL     1       5.784  -0.422  23.840  0.00  0.00    +0.000 A 
ENDBRANCH   1  17
ENDBRANCH   8   1
ENDBRANCH  14   8
ENDBRANCH  12  14
TORSDOF 9
ENDMDL
MODEL 5
REMARK VINA RESULT:      -2.1      2.946      7.057
REMARK  Name = 75536685
REMARK  10 active torsions:
REMARK  status: ('A' for Active; 'I' for Inactive)
REMARK    1  A    between atoms: S_1  and  N_8
REMARK    2  A    between atoms: S_1  and  C_17
REMARK    3  A    between atoms: O_3  and  C_11
REMARK    4  A    between atoms: N_7  and  C_10
REMARK    5  A    between atoms: N_7  and  C_15
REMARK    6  A    between atoms: N_8  and  C_14
REMARK    7  A    between atoms: N_9  and  C_24
REMARK    8  A    between atoms: C_12  and  C_14
REMARK    9  A    between atoms: C_15  and  C_16
REMARK   10  A    between atoms: C_28  and  C_29
REMARK                            x       y       z     vdW  Elec       q    Type
REMARK                         _______ _______ _______ _____ _____    ______ ____
ROOT
ATOM      2  O   UNL     1      -2.481   3.932  25.447  0.00  0.00    -0.371 OA
ATOM     10  C   UNL     1      -2.083   2.957  23.318  0.00  0.00    +0.111 C 
ATOM     11  C   UNL     1      -3.580   3.052  23.547  0.00  0.00    +0.164 C 
ATOM     12  C   UNL     1      -3.645   4.125  24.625  0.00  0.00    +0.164 C 
ATOM     13  C   UNL     1      -1.553   3.094  24.737  0.00  0.00    +0.181 C 
ENDROOT
BRANCH  11   3
ATOM      3  O   UNL     1      -4.287   3.433  22.382  0.00  0.00    -0.388 OA
ATOM     31  H   UNL     1      -3.799   4.154  21.950  0.00  0.00    +0.210 HD
ENDBRANCH  11   3
BRANCH  10   7
ATOM      7  N   UNL     1      -1.668   1.720  22.677  0.00  0.00    -0.305 NA
ATOM     30  H   UNL     1      -1.000   1.936  21.937  0.00  0.00    +0.123 HD
BRANCH   7  15
ATOM     15  C   UNL     1      -1.038   0.818  23.633  0.00  0.00    +0.116 C 
BRANCH  15  16
ATOM     16  C   UNL     1       0.435   0.656  23.364  0.00  0.00    -0.033 A 
ATOM     18  C   UNL     1       0.898  -0.466  22.679  0.00  0.00    +0.007 A 
ATOM     19  C   UNL     1       1.335   1.628  23.801  0.00  0.00    +0.007 A 
ATOM     20  C   UNL     1       2.263  -0.618  22.430  0.00  0.00    +0.023 A 
ATOM     21  C   UNL     1       2.699   1.477  23.553  0.00  0.00    +0.023 A 
ATOM     24  C   UNL     1       3.163   0.354  22.866  0.00  0.00    +0.033 A 
BRANCH  24   9
ATOM      6  O   UNL     1       5.389  -0.562  24.676  0.00  0.00    -0.276 OA
ATOM      9  N   UNL     1       4.528   0.203  22.619  0.00  0.00    -0.286 N 
ATOM     28  C   UNL     1       5.525  -0.229  23.503  0.00  0.00    +0.214 C 
ATOM     29  C   UNL     1       6.882  -0.256  22.846  0.00  0.00    +0.109 C 
ATOM     33  H   UNL     1       4.826   0.438  21.674  0.00  0.00    +0.155 HD
ENDBRANCH  24   9
ENDBRANCH  15  16
ENDBRANCH   7  15
ENDBRANCH  10   7
BRANCH  12  14
ATOM     14  C   UNL     1      -4.896   4.043  25.481  0.00  0.00    +0.140 C 
BRANCH  14   8
ATOM      8  N   UNL     1      -4.903   2.772  26.230  0.00  0.00    -0.187 NA
ATOM     32  H   UNL     1      -4.019   2.521  26.691  0.00  0.00    +0.148 HD
BRANCH   8   1
ATOM      1  S   UNL     1      -5.962   1.520  25.775  0.00  0.00    +0.058 S 
ATOM      4  O   UNL     1      -6.674   1.907  24.572  0.00  0.00    -0.153 OA
ATOM      5  O   UNL     1      -6.696   1.075  26.944  0.00  0.00    -0.153 OA
BRANCH   1  17
ATOM     17  C   UNL     1      -4.834   0.228  25.350  0.00  0.00    +0.105 A 
ATOM     22  C   UNL     1      -4.867  -0.335  24.074  0.00  0.00    +0.028 A 
ATOM     23  C   UNL     1      -3.911  -0.229  26.290  0.00  0.00    +0.028 A 
ATOM     25  C   UNL     1      -3.975  -1.354  23.738  0.00  0.00    +0.002 A 
ATOM     26  C   UNL     1      -3.019  -1.248  25.954  0.00  0.00    +0.002 A 
ATOM     27  C   UNL     1      -3.052  -1.811  24.678  0.00  0.00    +0.000 A 
ENDBRANCH   1  17
ENDBRANCH   8   1
ENDBRANCH  14   8
ENDBRANCH  12  14
TORSDOF 9
ENDMDL
MODEL 6
REMARK VINA RESULT:      -1.6      2.233      3.200
REMARK  Name = 75536685
REMARK  10 active torsions:
REMARK  status: ('A' for Active; 'I' for Inactive)
REMARK    1  A    between atoms: S_1  and  N_8
REMARK    2  A    between atoms: S_1  and  C_17
REMARK    3  A    between atoms: O_3  and  C_11
REMARK    4  A    between atoms: N_7  and  C_10
REMARK    5  A    between atoms: N_7  and  C_15
REMARK    6  A    between atoms: N_8  and  C_14
REMARK    7  A    between atoms: N_9  and  C_24
REMARK    8  A    between atoms: C_12  and  C_14
REMARK    9  A    between atoms: C_15  and  C_16
REMARK   10  A    between atoms: C_28  and  C_29
REMARK                            x       y       z     vdW  Elec       q    Type
REMARK                         _______ _______ _______ _____ _____    ______ ____
ROOT
ATOM      2  O   UNL     1      -3.196   4.700  23.832  0.00  0.00    -0.371 OA
ATOM     10  C   UNL     1      -4.718   3.945  25.492  0.00  0.00    +0.111 C 
ATOM     11  C   UNL     1      -3.309   3.889  26.051  0.00  0.00    +0.164 C 
ATOM     12  C   UNL     1      -2.587   4.858  25.125  0.00  0.00    +0.164 C 
ATOM     13  C   UNL     1      -4.446   4.009  23.998  0.00  0.00    +0.181 C 
ENDROOT
BRANCH  11   3
ATOM      3  O   UNL     1      -3.240   4.304  27.402  0.00  0.00    -0.388 OA
ATOM     31  H   UNL     1      -2.610   3.729  27.868  0.00  0.00    +0.210 HD
ENDBRANCH  11   3
BRANCH  10   7
ATOM      7  N   UNL     1      -5.541   2.807  25.870  0.00  0.00    -0.305 NA
ATOM     30  H   UNL     1      -6.446   3.145  26.198  0.00  0.00    +0.123 HD
BRANCH   7  15
ATOM     15  C   UNL     1      -5.753   1.914  24.737  0.00  0.00    +0.116 C 
BRANCH  15  16
ATOM     16  C   UNL     1      -4.759   0.782  24.724  0.00  0.00    -0.033 A 
ATOM     18  C   UNL     1      -4.558   0.018  25.873  0.00  0.00    +0.007 A 
ATOM     19  C   UNL     1      -4.042   0.497  23.562  0.00  0.00    +0.007 A 
ATOM     20  C   UNL     1      -3.637  -1.030  25.861  0.00  0.00    +0.023 A 
ATOM     21  C   UNL     1      -3.121  -0.550  23.550  0.00  0.00    +0.023 A 
ATOM     24  C   UNL     1      -2.919  -1.314  24.699  0.00  0.00    +0.033 A 
BRANCH  24   9
ATOM      6  O   UNL     1      -0.212  -1.552  25.997  0.00  0.00    -0.276 OA
ATOM      9  N   UNL     1      -1.997  -2.362  24.687  0.00  0.00    -0.286 N 
ATOM     28  C   UNL     1      -0.744  -2.419  25.312  0.00  0.00    +0.214 C 
ATOM     29  C   UNL     1      -0.052  -3.734  25.057  0.00  0.00    +0.109 C 
ATOM     33  H   UNL     1      -2.281  -3.183  24.156  0.00  0.00    +0.155 HD
ENDBRANCH  24   9
ENDBRANCH  15  16
ENDBRANCH   7  15
ENDBRANCH  10   7
BRANCH  12  14
ATOM     14  C   UNL     1      -1.095   4.596  25.024  0.00  0.00    +0.140 C 
BRANCH  14   8
ATOM      8  N   UNL     1      -0.864   3.280  24.396  0.00  0.00    -0.187 NA
ATOM     32  H   UNL     1      -1.514   3.026  23.642  0.00  0.00    +0.148 HD
BRANCH   8   1
ATOM      1  S   UNL     1      -0.123   2.031  25.283  0.00  0.00    +0.058 S 
ATOM      4  O   UNL     1      -1.141   1.118  25.767  0.00  0.00    -0.153 OA
ATOM      5  O   UNL     1       0.834   2.610  26.205  0.00  0.00    -0.153 OA
BRANCH   1  17
ATOM     17  C   UNL     1       0.804   1.199  24.030  0.00  0.00    +0.105 A 
ATOM     22  C   UNL     1       0.194   0.223  23.241  0.00  0.00    +0.028 A 
ATOM     23  C   UNL     1       2.147   1.518  23.829  0.00  0.00    +0.028 A 
ATOM     25  C   UNL     1       0.926  -0.432  22.251  0.00  0.00    +0.002 A 
ATOM     26  C   UNL     1       2.879   0.862  22.838  0.00  0.00    +0.002 A 
ATOM     27  C   UNL     1       2.268  -0.114  22.050  0.00  0.00    +0.000 A 
ENDBRANCH   1  17
ENDBRANCH   8   1
ENDBRANCH  14   8
ENDBRANCH  12  14
TORSDOF 9
ENDMDL
MODEL 7
REMARK VINA RESULT:      -1.4      2.616      6.171
REMARK  Name = 75536685
REMARK  10 active torsions:
REMARK  status: ('A' for Active; 'I' for Inactive)
REMARK    1  A    between atoms: S_1  and  N_8
REMARK    2  A    between atoms: S_1  and  C_17
REMARK    3  A    between atoms: O_3  and  C_11
REMARK    4  A    between atoms: N_7  and  C_10
REMARK    5  A    between atoms: N_7  and  C_15
REMARK    6  A    between atoms: N_8  and  C_14
REMARK    7  A    between atoms: N_9  and  C_24
REMARK    8  A    between atoms: C_12  and  C_14
REMARK    9  A    between atoms: C_15  and  C_16
REMARK   10  A    between atoms: C_28  and  C_29
REMARK                            x       y       z     vdW  Elec       q    Type
REMARK                         _______ _______ _______ _____ _____    ______ ____
ROOT
ATOM      2  O   UNL     1      -3.869   3.084  26.209  0.00  0.00    -0.371 OA
ATOM     10  C   UNL     1      -2.366   3.512  24.421  0.00  0.00    +0.111 C 
ATOM     11  C   UNL     1      -3.500   2.639  23.916  0.00  0.00    +0.164 C 
ATOM     12  C   UNL     1      -4.569   2.911  24.965  0.00  0.00    +0.164 C 
ATOM     13  C   UNL     1      -2.478   3.311  25.924  0.00  0.00    +0.181 C 
ENDROOT
BRANCH  11   3
ATOM      3  O   UNL     1      -3.932   3.001  22.619  0.00  0.00    -0.388 OA
ATOM     31  H   UNL     1      -3.292   2.653  21.975  0.00  0.00    +0.210 HD
ENDBRANCH  11   3
BRANCH  10   7
ATOM      7  N   UNL     1      -1.063   3.136  23.896  0.00  0.00    -0.305 NA
ATOM     30  H   UNL     1      -0.345   3.384  24.578  0.00  0.00    +0.123 HD
BRANCH   7  15
ATOM     15  C   UNL     1      -0.994   1.703  23.637  0.00  0.00    +0.116 C 
BRANCH  15  16
ATOM     16  C   UNL     1       0.417   1.249  23.370  0.00  0.00    -0.033 A 
ATOM     18  C   UNL     1       1.489   2.079  23.695  0.00  0.00    +0.007 A 
ATOM     19  C   UNL     1       0.651  -0.001  22.798  0.00  0.00    +0.007 A 
ATOM     20  C   UNL     1       2.796   1.660  23.447  0.00  0.00    +0.023 A 
ATOM     21  C   UNL     1       1.958  -0.420  22.549  0.00  0.00    +0.023 A 
ATOM     24  C   UNL     1       3.030   0.410  22.874  0.00  0.00    +0.033 A 
BRANCH  24   9
ATOM      6  O   UNL     1       5.463   0.433  24.649  0.00  0.00    -0.276 OA
ATOM      9  N   UNL     1       4.338  -0.010  22.625  0.00  0.00    -0.286 N 
ATOM     28  C   UNL     1       5.438   0.025  23.492  0.00  0.00    +0.214 C 
ATOM     29  C   UNL     1       6.681  -0.524  22.841  0.00  0.00    +0.109 C 
ATOM     33  H   UNL     1       4.502  -0.387  21.694  0.00  0.00    +0.155 HD
ENDBRANCH  24   9
ENDBRANCH  15  16
ENDBRANCH   7  15
ENDBRANCH  10   7
BRANCH  12  14
ATOM     14  C   UNL     1      -5.581   1.786  25.099  0.00  0.00    +0.140 C 
BRANCH  14   8
ATOM      8  N   UNL     1      -4.884   0.527  25.426  0.00  0.00    -0.187 NA
ATOM     32  H   UNL     1      -4.373   0.520  26.318  0.00  0.00    +0.148 HD
BRANCH   8   1
ATOM      1  S   UNL     1      -4.353  -0.501  24.179  0.00  0.00    +0.058 S 
ATOM      4  O   UNL     1      -4.114   0.280  22.981  0.00  0.00    -0.153 OA
ATOM      5  O   UNL     1      -5.214  -1.667  24.130  0.00  0.00    -0.153 OA
BRANCH   1  17
ATOM     17  C   UNL     1      -2.788  -1.041  24.798  0.00  0.00    +0.105 A 
ATOM     22  C   UNL     1      -2.163  -0.335  25.826  0.00  0.00    +0.028 A 
ATOM     23  C   UNL     1      -2.178  -2.173  24.260  0.00  0.00    +0.028 A 
ATOM     25  C   UNL     1      -0.928  -0.762  26.316  0.00  0.00    +0.002 A 
ATOM     26  C   UNL     1      -0.943  -2.601  24.750  0.00  0.00    +0.002 A 
ATOM     27  C   UNL     1      -0.318  -1.894  25.777  0.00  0.00    +0.000 A 
ENDBRANCH   1  17
ENDBRANCH   8   1
ENDBRANCH  14   8
ENDBRANCH  12  14
TORSDOF 9
ENDMDL
MODEL 8
REMARK VINA RESULT:      -1.0      2.811      7.957
REMARK  Name = 75536685
REMARK  10 active torsions:
REMARK  status: ('A' for Active; 'I' for Inactive)
REMARK    1  A    between atoms: S_1  and  N_8
REMARK    2  A    between atoms: S_1  and  C_17
REMARK    3  A    between atoms: O_3  and  C_11
REMARK    4  A    between atoms: N_7  and  C_10
REMARK    5  A    between atoms: N_7  and  C_15
REMARK    6  A    between atoms: N_8  and  C_14
REMARK    7  A    between atoms: N_9  and  C_24
REMARK    8  A    between atoms: C_12  and  C_14
REMARK    9  A    between atoms: C_15  and  C_16
REMARK   10  A    between atoms: C_28  and  C_29
REMARK                            x       y       z     vdW  Elec       q    Type
REMARK                         _______ _______ _______ _____ _____    ______ ____
ROOT
ATOM      2  O   UNL     1      -2.116  -2.368  24.174  0.00  0.00    -0.371 OA
ATOM     10  C   UNL     1      -0.232  -0.967  24.533  0.00  0.00    +0.111 C 
ATOM     11  C   UNL     1      -1.387  -0.470  25.382  0.00  0.00    +0.164 C 
ATOM     12  C   UNL     1      -2.260  -1.715  25.447  0.00  0.00    +0.164 C 
ATOM     13  C   UNL     1      -0.958  -1.829  23.513  0.00  0.00    +0.181 C 
ENDROOT
BRANCH  11   3
ATOM      3  O   UNL     1      -0.976  -0.048  26.669  0.00  0.00    -0.388 OA
ATOM     31  H   UNL     1      -1.308  -0.688  27.321  0.00  0.00    +0.210 HD
ENDBRANCH  11   3
BRANCH  10   7
ATOM      7  N   UNL     1       0.544   0.101  23.922  0.00  0.00    -0.305 NA
ATOM     30  H   UNL     1       1.180   0.491  24.618  0.00  0.00    +0.123 HD
BRANCH   7  15
ATOM     15  C   UNL     1       1.325  -0.397  22.795  0.00  0.00    +0.116 C 
BRANCH  15  16
ATOM     16  C   UNL     1       2.804  -0.240  23.026  0.00  0.00    -0.033 A 
ATOM     18  C   UNL     1       3.448   0.937  22.645  0.00  0.00    +0.007 A 
ATOM     19  C   UNL     1       3.531  -1.271  23.621  0.00  0.00    +0.007 A 
ATOM     20  C   UNL     1       4.819   1.083  22.857  0.00  0.00    +0.023 A 
ATOM     21  C   UNL     1       4.902  -1.126  23.834  0.00  0.00    +0.023 A 
ATOM     24  C   UNL     1       5.545   0.051  23.452  0.00  0.00    +0.033 A 
BRANCH  24   9
ATOM      6  O   UNL     1       7.886  -1.237  22.062  0.00  0.00    -0.276 OA
ATOM      9  N   UNL     1       6.917   0.196  23.665  0.00  0.00    -0.286 N 
ATOM     28  C   UNL     1       7.969  -0.433  22.984  0.00  0.00    +0.214 C 
ATOM     29  C   UNL     1       9.313  -0.005  23.516  0.00  0.00    +0.109 C 
ATOM     33  H   UNL     1       7.175   0.842  24.408  0.00  0.00    +0.155 HD
ENDBRANCH  24   9
ENDBRANCH  15  16
ENDBRANCH   7  15
ENDBRANCH  10   7
BRANCH  12  14
ATOM     14  C   UNL     1      -3.726  -1.410  25.703  0.00  0.00    +0.140 C 
BRANCH  14   8
ATOM      8  N   UNL     1      -3.901   0.041  25.913  0.00  0.00    -0.187 NA
ATOM     32  H   UNL     1      -4.192   0.322  26.858  0.00  0.00    +0.148 HD
BRANCH   8   1
ATOM      1  S   UNL     1      -4.312   1.048  24.605  0.00  0.00    +0.058 S 
ATOM      4  O   UNL     1      -5.693   1.471  24.741  0.00  0.00    -0.153 OA
ATOM      5  O   UNL     1      -3.856   0.432  23.374  0.00  0.00    -0.153 OA
BRANCH   1  17
ATOM     17  C   UNL     1      -3.281   2.454  24.893  0.00  0.00    +0.105 A 
ATOM     22  C   UNL     1      -2.030   2.538  24.281  0.00  0.00    +0.028 A 
ATOM     23  C   UNL     1      -3.718   3.479  25.731  0.00  0.00    +0.028 A 
ATOM     25  C   UNL     1      -1.217   3.649  24.507  0.00  0.00    +0.002 A 
ATOM     26  C   UNL     1      -2.904   4.590  25.957  0.00  0.00    +0.002 A 
ATOM     27  C   UNL     1      -1.653   4.674  25.345  0.00  0.00    +0.000 A 
ENDBRANCH   1  17
ENDBRANCH   8   1
ENDBRANCH  14   8
ENDBRANCH  12  14
TORSDOF 9
ENDMDL
MODEL 9
REMARK VINA RESULT:      -0.9      1.619      2.077
REMARK  Name = 75536685
REMARK  10 active torsions:
REMARK  status: ('A' for Active; 'I' for Inactive)
REMARK    1  A    between atoms: S_1  and  N_8
REMARK    2  A    between atoms: S_1  and  C_17
REMARK    3  A    between atoms: O_3  and  C_11
REMARK    4  A    between atoms: N_7  and  C_10
REMARK    5  A    between atoms: N_7  and  C_15
REMARK    6  A    between atoms: N_8  and  C_14
REMARK    7  A    between atoms: N_9  and  C_24
REMARK    8  A    between atoms: C_12  and  C_14
REMARK    9  A    between atoms: C_15  and  C_16
REMARK   10  A    between atoms: C_28  and  C_29
REMARK                            x       y       z     vdW  Elec       q    Type
REMARK                         _______ _______ _______ _____ _____    ______ ____
ROOT
ATOM      2  O   UNL     1      -0.296   4.219  25.013  0.00  0.00    -0.371 OA
ATOM     10  C   UNL     1      -2.558   4.939  25.100  0.00  0.00    +0.111 C 
ATOM     11  C   UNL     1      -2.389   3.729  25.999  0.00  0.00    +0.164 C 
ATOM     12  C   UNL     1      -0.886   3.746  26.236  0.00  0.00    +0.164 C 
ATOM     13  C   UNL     1      -1.325   4.832  24.217  0.00  0.00    +0.181 C 
ENDROOT
BRANCH  11   3
ATOM      3  O   UNL     1      -3.114   3.842  27.208  0.00  0.00    -0.388 OA
ATOM     31  H   UNL     1      -2.964   4.730  27.573  0.00  0.00    +0.210 HD
ENDBRANCH  11   3
BRANCH  10   7
ATOM      7  N   UNL     1      -3.799   4.935  24.342  0.00  0.00    -0.305 NA
ATOM     30  H   UNL     1      -3.623   4.541  23.418  0.00  0.00    +0.123 HD
BRANCH   7  15
ATOM     15  C   UNL     1      -4.819   4.135  25.010  0.00  0.00    +0.116 C 
BRANCH  15  16
ATOM     16  C   UNL     1      -4.661   2.666  24.715  0.00  0.00    -0.033 A 
ATOM     18  C   UNL     1      -3.911   2.254  23.614  0.00  0.00    +0.007 A 
ATOM     19  C   UNL     1      -5.266   1.720  25.541  0.00  0.00    +0.007 A 
ATOM     20  C   UNL     1      -3.766   0.894  23.340  0.00  0.00    +0.023 A 
ATOM     21  C   UNL     1      -5.122   0.360  25.267  0.00  0.00    +0.023 A 
ATOM     24  C   UNL     1      -4.371  -0.053  24.166  0.00  0.00    +0.033 A 
BRANCH  24   9
ATOM      6  O   UNL     1      -3.024  -2.235  25.746  0.00  0.00    -0.276 OA
ATOM      9  N   UNL     1      -4.226  -1.413  23.892  0.00  0.00    -0.286 N 
ATOM     28  C   UNL     1      -3.585  -2.389  24.666  0.00  0.00    +0.214 C 
ATOM     29  C   UNL     1      -3.649  -3.749  24.018  0.00  0.00    +0.109 C 
ATOM     33  H   UNL     1      -4.643  -1.726  23.017  0.00  0.00    +0.155 HD
ENDBRANCH  24   9
ENDBRANCH  15  16
ENDBRANCH   7  15
ENDBRANCH  10   7
BRANCH  12  14
ATOM     14  C   UNL     1      -0.316   2.383  26.587  0.00  0.00    +0.140 C 
BRANCH  14   8
ATOM      8  N   UNL     1       0.551   1.911  25.490  0.00  0.00    -0.187 NA
ATOM     32  H   UNL     1       1.322   2.538  25.229  0.00  0.00    +0.148 HD
BRANCH   8   1
ATOM      1  S   UNL     1      -0.069   0.856  24.308  0.00  0.00    +0.058 S 
ATOM      4  O   UNL     1      -1.066   1.552  23.518  0.00  0.00    -0.153 OA
ATOM      5  O   UNL     1      -0.390  -0.414  24.931  0.00  0.00    -0.153 OA
BRANCH   1  17
ATOM     17  C   UNL     1       1.347   0.586  23.285  0.00  0.00    +0.105 A 
ATOM     22  C   UNL     1       1.250  -0.235  22.161  0.00  0.00    +0.028 A 
ATOM     23  C   UNL     1       2.561   1.194  23.601  0.00  0.00    +0.028 A 
ATOM     25  C   UNL     1       2.367  -0.446  21.353  0.00  0.00    +0.002 A 
ATOM     26  C   UNL     1       3.678   0.983  22.793  0.00  0.00    +0.002 A 
ATOM     27  C   UNL     1       3.581   0.162  21.669  0.00  0.00    +0.000 A 
ENDBRANCH   1  17
ENDBRANCH   8   1
ENDBRANCH  14   8
ENDBRANCH  12  14
TORSDOF 9
ENDMDL
MODEL 10
REMARK VINA RESULT:      -0.7     15.261     18.989
REMARK  Name = 75536685
REMARK  10 active torsions:
REMARK  status: ('A' for Active; 'I' for Inactive)
REMARK    1  A    between atoms: S_1  and  N_8
REMARK    2  A    between atoms: S_1  and  C_17
REMARK    3  A    between atoms: O_3  and  C_11
REMARK    4  A    between atoms: N_7  and  C_10
REMARK    5  A    between atoms: N_7  and  C_15
REMARK    6  A    between atoms: N_8  and  C_14
REMARK    7  A    between atoms: N_9  and  C_24
REMARK    8  A    between atoms: C_12  and  C_14
REMARK    9  A    between atoms: C_15  and  C_16
REMARK   10  A    between atoms: C_28  and  C_29
REMARK                            x       y       z     vdW  Elec       q    Type
REMARK                         _______ _______ _______ _____ _____    ______ ____
ROOT
ATOM      2  O   UNL     1      13.053  -6.383  31.843  0.00  0.00    -0.371 OA
ATOM     10  C   UNL     1      14.962  -5.713  30.600  0.00  0.00    +0.111 C 
ATOM     11  C   UNL     1      14.511  -7.078  30.116  0.00  0.00    +0.164 C 
ATOM     12  C   UNL     1      13.067  -7.097  30.595  0.00  0.00    +0.164 C 
ATOM     13  C   UNL     1      14.274  -5.631  31.952  0.00  0.00    +0.181 C 
ENDROOT
BRANCH  11   3
ATOM      3  O   UNL     1      14.602  -7.217  28.711  0.00  0.00    -0.388 OA
ATOM     31  H   UNL     1      15.160  -6.500  28.368  0.00  0.00    +0.210 HD
ENDBRANCH  11   3
BRANCH  10   7
ATOM      7  N   UNL     1      16.407  -5.574  30.691  0.00  0.00    -0.305 NA
ATOM     30  H   UNL     1      16.843  -6.461  30.437  0.00  0.00    +0.123 HD
BRANCH   7  15
ATOM     15  C   UNL     1      16.892  -4.534  29.791  0.00  0.00    +0.116 C 
BRANCH  15  16
ATOM     16  C   UNL     1      16.974  -3.195  30.475  0.00  0.00    -0.033 A 
ATOM     18  C   UNL     1      17.306  -3.122  31.827  0.00  0.00    +0.007 A 
ATOM     19  C   UNL     1      16.716  -2.028  29.756  0.00  0.00    +0.007 A 
ATOM     20  C   UNL     1      17.381  -1.882  32.462  0.00  0.00    +0.023 A 
ATOM     21  C   UNL     1      16.789  -0.788  30.390  0.00  0.00    +0.023 A 
ATOM     24  C   UNL     1      17.123  -0.715  31.743  0.00  0.00    +0.033 A 
BRANCH  24   9
ATOM      6  O   UNL     1      16.412   2.036  30.745  0.00  0.00    -0.276 OA
ATOM      9  N   UNL     1      17.196   0.526  32.377  0.00  0.00    -0.286 N 
ATOM     28  C   UNL     1      16.850   1.783  31.862  0.00  0.00    +0.214 C 
ATOM     29  C   UNL     1      17.076   2.881  32.870  0.00  0.00    +0.109 C 
ATOM     33  H   UNL     1      17.544   0.504  33.333  0.00  0.00    +0.155 HD
ENDBRANCH  24   9
ENDBRANCH  15  16
ENDBRANCH   7  15
ENDBRANCH  10   7
BRANCH  12  14
ATOM     14  C   UNL     1      12.519  -8.499  30.801  0.00  0.00    +0.140 C 
BRANCH  14   8
ATOM      8  N   UNL     1      11.151  -8.421  31.350  0.00  0.00    -0.187 NA
ATOM     32  H   UNL     1      10.962  -7.618  31.963  0.00  0.00    +0.148 HD
BRANCH   8   1
ATOM      1  S   UNL     1      10.240  -9.841  31.571  0.00  0.00    +0.058 S 
ATOM      4  O   UNL     1      10.541 -10.407  32.872  0.00  0.00    -0.153 OA
ATOM      5  O   UNL     1      10.344 -10.659  30.378  0.00  0.00    -0.153 OA
BRANCH   1  17
ATOM     17  C   UNL     1       8.591  -9.208  31.620  0.00  0.00    +0.105 A 
ATOM     22  C   UNL     1       7.658  -9.616  30.667  0.00  0.00    +0.028 A 
ATOM     23  C   UNL     1       8.222  -8.300  32.613  0.00  0.00    +0.028 A 
ATOM     25  C   UNL     1       6.355  -9.117  30.707  0.00  0.00    +0.002 A 
ATOM     26  C   UNL     1       6.919  -7.802  32.653  0.00  0.00    +0.002 A 
ATOM     27  C   UNL     1       5.986  -8.210  31.700  0.00  0.00    +0.000 A 
ENDBRANCH   1  17
ENDBRANCH   8   1
ENDBRANCH  14   8
ENDBRANCH  12  14
TORSDOF 9
ENDMDL
