MODEL 1
REMARK VINA RESULT:       3.0      0.000      0.000
REMARK  Name = 44717029
REMARK  10 active torsions:
REMARK  status: ('A' for Active; 'I' for Inactive)
REMARK    1  A    between atoms: S_1  and  N_8
REMARK    2  A    between atoms: S_1  and  C_19
REMARK    3  A    between atoms: O_6  and  C_25
REMARK    4  A    between atoms: O_6  and  C_37
REMARK    5  A    between atoms: N_10  and  C_20
REMARK    6  A    between atoms: C_13  and  C_17
REMARK    7  A    between atoms: C_18  and  C_21
REMARK    8  A    between atoms: C_20  and  C_22
REMARK    9  A    between atoms: C_20  and  C_25
REMARK   10  A    between atoms: C_22  and  C_26
REMARK                            x       y       z     vdW  Elec       q    Type
REMARK                         _______ _______ _______ _____ _____    ______ ____
ROOT
ATOM      5  O   UNL     1       1.791   0.046  21.236  0.00  0.00    -0.270 OA
ATOM      8  N   UNL     1      -1.423  -0.458  25.123  0.00  0.00    -0.162 NA
ATOM      9  N   UNL     1       0.822  -0.457  23.304  0.00  0.00    -0.294 N 
ATOM     13  C   UNL     1      -1.591   0.030  23.726  0.00  0.00    +0.183 C 
ATOM     14  C   UNL     1      -0.538  -0.515  22.766  0.00  0.00    +0.138 C 
ATOM     15  C   UNL     1      -0.274  -1.377  25.333  0.00  0.00    +0.129 C 
ATOM     16  C   UNL     1       0.978  -0.756  24.732  0.00  0.00    +0.125 C 
ATOM     18  C   UNL     1       1.889  -0.207  22.436  0.00  0.00    +0.248 C 
ENDROOT
BRANCH  18  21
ATOM     11  N   UNL     1       4.995  -1.503  24.098  0.00  0.00    -0.263 NA
ATOM     21  C   UNL     1       3.252  -0.247  22.990  0.00  0.00    +0.055 A 
ATOM     29  C   UNL     1       4.076   0.873  22.948  0.00  0.00    +0.016 A 
ATOM     30  C   UNL     1       3.755  -1.400  23.571  0.00  0.00    +0.123 A 
ATOM     33  C   UNL     1       5.358   0.807  23.480  0.00  0.00    +0.020 A 
ATOM     35  C   UNL     1       5.766  -0.395  24.039  0.00  0.00    +0.111 A 
ENDBRANCH  18  21
BRANCH  13  17
ATOM      4  O   UNL     1      -1.222   2.227  22.879  0.00  0.00    -0.274 OA
ATOM     10  N   UNL     1      -1.757   1.961  25.129  0.00  0.00    -0.301 N 
ATOM     17  C   UNL     1      -1.506   1.518  23.840  0.00  0.00    +0.234 C 
ATOM     39  H   UNL     1      -2.077   1.293  25.824  0.00  0.00    +0.150 HD
BRANCH  10  20
ATOM     20  C   UNL     1      -1.714   3.354  25.509  0.00  0.00    +0.186 C 
BRANCH  20  25
ATOM      7  O   UNL     1      -0.371   5.064  24.455  0.00  0.00    -0.249 OA
ATOM     25  C   UNL     1      -0.408   4.020  25.098  0.00  0.00    +0.328 C 
BRANCH  25   6
ATOM      6  O   UNL     1       0.681   3.313  25.513  0.00  0.00    -0.467 OA
ATOM     37  C   UNL     1       0.516   2.576  26.729  0.00  0.00    +0.280 C 
ENDBRANCH  25   6
ENDBRANCH  20  25
BRANCH  20  22
ATOM     22  C   UNL     1      -2.939   4.125  24.996  0.00  0.00    +0.070 C 
BRANCH  22  26
ATOM     12  N   UNL     1      -6.187   2.843  26.474  0.00  0.00    -0.263 NA
ATOM     26  C   UNL     1      -4.252   3.387  25.129  0.00  0.00    -0.027 A 
ATOM     32  C   UNL     1      -4.740   2.597  24.095  0.00  0.00    +0.006 A 
ATOM     34  C   UNL     1      -5.007   3.477  26.289  0.00  0.00    +0.114 A 
ATOM     36  C   UNL     1      -5.950   1.929  24.249  0.00  0.00    +0.020 A 
ATOM     38  C   UNL     1      -6.629   2.083  25.447  0.00  0.00    +0.111 A 
ENDBRANCH  22  26
ENDBRANCH  20  22
ENDBRANCH  10  20
ENDBRANCH  13  17
BRANCH   8   1
ATOM      1  S   UNL     1      -2.851  -0.826  25.989  0.00  0.00    +0.062 S 
ATOM      2  O   UNL     1      -3.689   0.354  26.042  0.00  0.00    -0.153 OA
ATOM      3  O   UNL     1      -2.499  -1.543  27.196  0.00  0.00    -0.153 OA
BRANCH   1  19
ATOM     19  C   UNL     1      -3.602  -1.972  24.876  0.00  0.00    +0.106 A 
ATOM     23  C   UNL     1      -3.212  -3.311  24.886  0.00  0.00    +0.028 A 
ATOM     24  C   UNL     1      -4.585  -1.537  23.985  0.00  0.00    +0.028 A 
ATOM     27  C   UNL     1      -3.806  -4.217  24.005  0.00  0.00    +0.002 A 
ATOM     28  C   UNL     1      -5.176  -2.443  23.105  0.00  0.00    +0.002 A 
ATOM     31  C   UNL     1      -4.787  -3.782  23.115  0.00  0.00    +0.000 A 
ENDBRANCH   1  19
ENDBRANCH   8   1
TORSDOF 9
ENDMDL
MODEL 2
REMARK VINA RESULT:       6.4      1.271      2.931
REMARK  Name = 44717029
REMARK  10 active torsions:
REMARK  status: ('A' for Active; 'I' for Inactive)
REMARK    1  A    between atoms: S_1  and  N_8
REMARK    2  A    between atoms: S_1  and  C_19
REMARK    3  A    between atoms: O_6  and  C_25
REMARK    4  A    between atoms: O_6  and  C_37
REMARK    5  A    between atoms: N_10  and  C_20
REMARK    6  A    between atoms: C_13  and  C_17
REMARK    7  A    between atoms: C_18  and  C_21
REMARK    8  A    between atoms: C_20  and  C_22
REMARK    9  A    between atoms: C_20  and  C_25
REMARK   10  A    between atoms: C_22  and  C_26
REMARK                            x       y       z     vdW  Elec       q    Type
REMARK                         _______ _______ _______ _____ _____    ______ ____
ROOT
ATOM      5  O   UNL     1       1.719  -0.328  21.042  0.00  0.00    -0.270 OA
ATOM      8  N   UNL     1      -1.535  -0.327  24.927  0.00  0.00    -0.162 NA
ATOM      9  N   UNL     1       0.748  -0.480  23.163  0.00  0.00    -0.294 N 
ATOM     13  C   UNL     1      -1.713  -0.166  23.457  0.00  0.00    +0.183 C 
ATOM     14  C   UNL     1      -0.584  -0.789  22.642  0.00  0.00    +0.138 C 
ATOM     15  C   UNL     1      -0.307  -1.057  25.335  0.00  0.00    +0.129 C 
ATOM     16  C   UNL     1       0.893  -0.452  24.623  0.00  0.00    +0.125 C 
ATOM     18  C   UNL     1       1.808  -0.310  22.268  0.00  0.00    +0.248 C 
ENDROOT
BRANCH  18  21
ATOM     11  N   UNL     1       5.069  -0.975  24.004  0.00  0.00    -0.263 NA
ATOM     21  C   UNL     1       3.153  -0.090  22.826  0.00  0.00    +0.055 A 
ATOM     29  C   UNL     1       3.778   1.148  22.724  0.00  0.00    +0.016 A 
ATOM     30  C   UNL     1       3.835  -1.110  23.470  0.00  0.00    +0.123 A 
ATOM     33  C   UNL     1       5.047   1.326  23.262  0.00  0.00    +0.020 A 
ATOM     35  C   UNL     1       5.644   0.242  23.886  0.00  0.00    +0.111 A 
ENDBRANCH  18  21
BRANCH  13  17
ATOM      4  O   UNL     1      -0.899   1.925  22.652  0.00  0.00    -0.274 OA
ATOM     10  N   UNL     1      -2.907   1.874  23.829  0.00  0.00    -0.301 N 
ATOM     17  C   UNL     1      -1.779   1.314  23.252  0.00  0.00    +0.234 C 
ATOM     39  H   UNL     1      -3.617   1.260  24.217  0.00  0.00    +0.150 HD
BRANCH  10  20
ATOM     20  C   UNL     1      -3.195   3.289  23.793  0.00  0.00    +0.186 C 
BRANCH  20  25
ATOM      7  O   UNL     1      -4.602   4.672  25.188  0.00  0.00    -0.249 OA
ATOM     25  C   UNL     1      -4.472   3.634  24.547  0.00  0.00    +0.328 C 
BRANCH  25   6
ATOM      6  O   UNL     1      -5.415   2.657  24.433  0.00  0.00    -0.467 OA
ATOM     37  C   UNL     1      -6.187   2.399  25.611  0.00  0.00    +0.280 C 
ENDBRANCH  25   6
ENDBRANCH  20  25
BRANCH  20  22
ATOM     22  C   UNL     1      -2.000   4.128  24.270  0.00  0.00    +0.070 C 
BRANCH  22  26
ATOM     12  N   UNL     1       0.915   2.555  26.115  0.00  0.00    -0.263 NA
ATOM     26  C   UNL     1      -1.187   3.497  25.377  0.00  0.00    -0.027 A 
ATOM     32  C   UNL     1      -1.737   3.271  26.633  0.00  0.00    +0.006 A 
ATOM     34  C   UNL     1       0.133   3.124  25.171  0.00  0.00    +0.114 A 
ATOM     36  C   UNL     1      -0.964   2.686  27.631  0.00  0.00    +0.020 A 
ATOM     38  C   UNL     1       0.345   2.350  27.324  0.00  0.00    +0.111 A 
ENDBRANCH  22  26
ENDBRANCH  20  22
ENDBRANCH  10  20
ENDBRANCH  13  17
BRANCH   8   1
ATOM      1  S   UNL     1      -2.943  -0.649  25.843  0.00  0.00    +0.062 S 
ATOM      2  O   UNL     1      -3.799   0.519  25.821  0.00  0.00    -0.153 OA
ATOM      3  O   UNL     1      -2.561  -1.267  27.095  0.00  0.00    -0.153 OA
BRANCH   1  19
ATOM     19  C   UNL     1      -3.693  -1.888  24.834  0.00  0.00    +0.106 A 
ATOM     23  C   UNL     1      -3.252  -3.208  24.906  0.00  0.00    +0.028 A 
ATOM     24  C   UNL     1      -4.728  -1.544  23.962  0.00  0.00    +0.028 A 
ATOM     27  C   UNL     1      -3.845  -4.187  24.106  0.00  0.00    +0.002 A 
ATOM     28  C   UNL     1      -5.320  -2.522  23.163  0.00  0.00    +0.002 A 
ATOM     31  C   UNL     1      -4.878  -3.843  23.236  0.00  0.00    +0.000 A 
ENDBRANCH   1  19
ENDBRANCH   8   1
TORSDOF 9
ENDMDL
