MODEL 1
REMARK VINA RESULT:      -1.6      0.000      0.000
REMARK  Name = 45361403
REMARK  12 active torsions:
REMARK  status: ('A' for Active; 'I' for Inactive)
REMARK    1  A    between atoms: O_1  and  C_10
REMARK    2  A    between atoms: N_4  and  C_14
REMARK    3  A    between atoms: N_5  and  C_24
REMARK    4  A    between atoms: N_5  and  C_25
REMARK    5  A    between atoms: C_7  and  C_17
REMARK    6  A    between atoms: C_9  and  C_19
REMARK    7  A    between atoms: C_12  and  C_18
REMARK    8  A    between atoms: C_18  and  C_20
REMARK    9  A    between atoms: C_18  and  C_21
REMARK   10  A    between atoms: C_22  and  C_23
REMARK   11  A    between atoms: C_24  and  C_26
REMARK   12  A    between atoms: C_26  and  C_32
REMARK                            x       y       z     vdW  Elec       q    Type
REMARK                         _______ _______ _______ _____ _____    ______ ____
ROOT
ATOM      7  C   UNL     1      -2.746  -0.966  24.896  0.00  0.00    -0.027 C 
ATOM      8  C   UNL     1      -2.247   0.177  23.951  0.00  0.00    +0.028 C 
ATOM      9  C   UNL     1      -0.688   0.340  24.043  0.00  0.00    +0.012 C 
ATOM     10  C   UNL     1      -3.068   1.482  24.162  0.00  0.00    +0.122 C 
ATOM     11  C   UNL     1      -4.266  -1.175  24.697  0.00  0.00    +0.007 C 
ATOM     12  C   UNL     1      -4.595   1.247  24.064  0.00  0.00    +0.029 C 
ATOM     13  C   UNL     1      -2.035  -2.284  24.510  0.00  0.00    +0.009 C 
ATOM     14  C   UNL     1       0.014  -1.012  23.727  0.00  0.00    +0.076 C 
ATOM     15  C   UNL     1      -5.077   0.091  24.942  0.00  0.00    +0.007 C 
ATOM     16  C   UNL     1      -0.518  -2.181  24.556  0.00  0.00    +0.023 C 
ATOM     17  C   UNL     1      -2.477  -0.660  26.392  0.00  0.00    +0.011 C 
ATOM     19  C   UNL     1      -0.126   1.429  23.115  0.00  0.00    +0.010 C 
ENDROOT
BRANCH  14   4
ATOM      3  O   UNL     1       1.947  -0.111  21.804  0.00  0.00    -0.270 OA
ATOM      4  N   UNL     1       1.447  -0.928  23.916  0.00  0.00    -0.308 N 
ATOM     22  C   UNL     1       2.299  -0.479  22.921  0.00  0.00    +0.244 C 
ATOM     33  H   UNL     1       1.819  -1.324  24.772  0.00  0.00    +0.149 HD
BRANCH  22  23
ATOM     23  C   UNL     1       3.745  -0.479  23.263  0.00  0.00    +0.037 A 
ATOM     27  C   UNL     1       4.511   0.668  23.053  0.00  0.00    +0.013 A 
ATOM     28  C   UNL     1       4.336  -1.624  23.794  0.00  0.00    +0.013 A 
ATOM     29  C   UNL     1       5.868   0.669  23.375  0.00  0.00    +0.001 A 
ATOM     30  C   UNL     1       5.694  -1.624  24.117  0.00  0.00    +0.001 A 
ATOM     31  C   UNL     1       6.459  -0.477  23.906  0.00  0.00    +0.000 A 
ENDBRANCH  22  23
ENDBRANCH  14   4
BRANCH  10   1
ATOM      1  O   UNL     1      -2.736   2.425  23.144  0.00  0.00    -0.391 OA
ATOM     34  H   UNL     1      -3.087   2.095  22.299  0.00  0.00    +0.210 HD
ENDBRANCH  10   1
BRANCH  12  18
ATOM     18  C   UNL     1      -5.388   2.514  24.405  0.00  0.00    +0.078 C 
ATOM     20  C   UNL     1      -5.053   3.613  23.396  0.00  0.00    +0.017 C 
BRANCH  18  21
ATOM      2  O   UNL     1      -5.780   2.586  26.766  0.00  0.00    -0.275 OA
ATOM      5  N   UNL     1      -3.961   3.804  26.016  0.00  0.00    -0.303 N 
ATOM     21  C   UNL     1      -5.062   2.961  25.833  0.00  0.00    +0.219 C 
ATOM     25  C   UNL     1      -3.637   4.267  27.362  0.00  0.00    +0.132 C 
BRANCH   5  24
ATOM     24  C   UNL     1      -3.044   4.263  24.976  0.00  0.00    +0.122 C 
BRANCH  24  26
ATOM     26  C   UNL     1      -1.689   4.679  25.536  0.00  0.00    +0.137 C 
BRANCH  26  32
ATOM      6  N   UNL     1      -0.285   2.608  26.349  0.00  0.00    -0.197 NA
ATOM     32  C   UNL     1      -0.904   3.521  25.990  0.00  0.00    +0.064 C 
ENDBRANCH  26  32
ENDBRANCH  24  26
ENDBRANCH   5  24
ENDBRANCH  18  21
ENDBRANCH  12  18
TORSDOF 8
ENDMDL
MODEL 2
REMARK VINA RESULT:      -0.3      1.029      1.318
REMARK  Name = 45361403
REMARK  12 active torsions:
REMARK  status: ('A' for Active; 'I' for Inactive)
REMARK    1  A    between atoms: O_1  and  C_10
REMARK    2  A    between atoms: N_4  and  C_14
REMARK    3  A    between atoms: N_5  and  C_24
REMARK    4  A    between atoms: N_5  and  C_25
REMARK    5  A    between atoms: C_7  and  C_17
REMARK    6  A    between atoms: C_9  and  C_19
REMARK    7  A    between atoms: C_12  and  C_18
REMARK    8  A    between atoms: C_18  and  C_20
REMARK    9  A    between atoms: C_18  and  C_21
REMARK   10  A    between atoms: C_22  and  C_23
REMARK   11  A    between atoms: C_24  and  C_26
REMARK   12  A    between atoms: C_26  and  C_32
REMARK                            x       y       z     vdW  Elec       q    Type
REMARK                         _______ _______ _______ _____ _____    ______ ____
ROOT
ATOM      7  C   UNL     1      -2.496  -1.257  25.113  0.00  0.00    -0.027 C 
ATOM      8  C   UNL     1      -2.064  -0.043  24.225  0.00  0.00    +0.028 C 
ATOM      9  C   UNL     1      -0.508   0.164  24.280  0.00  0.00    +0.012 C 
ATOM     10  C   UNL     1      -2.917   1.219  24.540  0.00  0.00    +0.122 C 
ATOM     11  C   UNL     1      -4.014  -1.503  24.947  0.00  0.00    +0.007 C 
ATOM     12  C   UNL     1      -4.438   0.940  24.474  0.00  0.00    +0.029 C 
ATOM     13  C   UNL     1      -1.758  -2.526  24.626  0.00  0.00    +0.009 C 
ATOM     14  C   UNL     1       0.225  -1.142  23.861  0.00  0.00    +0.076 C 
ATOM     15  C   UNL     1      -4.856  -0.281  25.293  0.00  0.00    +0.007 C 
ATOM     16  C   UNL     1      -0.244  -2.376  24.632  0.00  0.00    +0.023 C 
ATOM     17  C   UNL     1      -2.189  -1.032  26.616  0.00  0.00    +0.011 C 
ATOM     19  C   UNL     1      -0.009   1.325  23.404  0.00  0.00    +0.010 C 
ENDROOT
BRANCH  14   4
ATOM      3  O   UNL     1       2.069  -0.086  21.930  0.00  0.00    -0.270 OA
ATOM      4  N   UNL     1       1.660  -1.024  24.011  0.00  0.00    -0.308 N 
ATOM     22  C   UNL     1       2.467  -0.499  23.016  0.00  0.00    +0.244 C 
ATOM     33  H   UNL     1       2.070  -1.451  24.835  0.00  0.00    +0.149 HD
BRANCH  22  23
ATOM     23  C   UNL     1       3.922  -0.471  23.314  0.00  0.00    +0.037 A 
ATOM     27  C   UNL     1       4.661   0.688  23.076  0.00  0.00    +0.013 A 
ATOM     28  C   UNL     1       4.550  -1.602  23.834  0.00  0.00    +0.013 A 
ATOM     29  C   UNL     1       6.027   0.715  23.357  0.00  0.00    +0.001 A 
ATOM     30  C   UNL     1       5.916  -1.576  24.115  0.00  0.00    +0.001 A 
ATOM     31  C   UNL     1       6.654  -0.417  23.876  0.00  0.00    +0.000 A 
ENDBRANCH  22  23
ENDBRANCH  14   4
BRANCH  10   1
ATOM      1  O   UNL     1      -2.646   2.232  23.571  0.00  0.00    -0.391 OA
ATOM     34  H   UNL     1      -3.414   2.827  23.533  0.00  0.00    +0.210 HD
ENDBRANCH  10   1
BRANCH  12  18
ATOM     18  C   UNL     1      -5.258   2.158  24.915  0.00  0.00    +0.078 C 
ATOM     20  C   UNL     1      -6.745   1.882  24.686  0.00  0.00    +0.017 C 
BRANCH  18  21
ATOM      2  O   UNL     1      -5.027   3.472  22.927  0.00  0.00    -0.275 OA
ATOM      5  N   UNL     1      -4.127   4.397  24.847  0.00  0.00    -0.303 N 
ATOM     21  C   UNL     1      -4.804   3.398  24.140  0.00  0.00    +0.219 C 
ATOM     25  C   UNL     1      -3.661   5.582  24.133  0.00  0.00    +0.132 C 
BRANCH   5  24
ATOM     24  C   UNL     1      -3.856   4.404  26.283  0.00  0.00    +0.122 C 
BRANCH  24  26
ATOM     26  C   UNL     1      -2.505   3.789  26.623  0.00  0.00    +0.137 C 
BRANCH  26  32
ATOM      6  N   UNL     1      -0.644   4.502  24.905  0.00  0.00    -0.197 NA
ATOM     32  C   UNL     1      -1.464   4.188  25.664  0.00  0.00    +0.064 C 
ENDBRANCH  26  32
ENDBRANCH  24  26
ENDBRANCH   5  24
ENDBRANCH  18  21
ENDBRANCH  12  18
TORSDOF 8
ENDMDL
MODEL 3
REMARK VINA RESULT:       1.5      1.448      2.161
REMARK  Name = 45361403
REMARK  12 active torsions:
REMARK  status: ('A' for Active; 'I' for Inactive)
REMARK    1  A    between atoms: O_1  and  C_10
REMARK    2  A    between atoms: N_4  and  C_14
REMARK    3  A    between atoms: N_5  and  C_24
REMARK    4  A    between atoms: N_5  and  C_25
REMARK    5  A    between atoms: C_7  and  C_17
REMARK    6  A    between atoms: C_9  and  C_19
REMARK    7  A    between atoms: C_12  and  C_18
REMARK    8  A    between atoms: C_18  and  C_20
REMARK    9  A    between atoms: C_18  and  C_21
REMARK   10  A    between atoms: C_22  and  C_23
REMARK   11  A    between atoms: C_24  and  C_26
REMARK   12  A    between atoms: C_26  and  C_32
REMARK                            x       y       z     vdW  Elec       q    Type
REMARK                         _______ _______ _______ _____ _____    ______ ____
ROOT
ATOM      7  C   UNL     1      -2.638  -0.990  24.847  0.00  0.00    -0.027 C 
ATOM      8  C   UNL     1      -2.097   0.439  24.513  0.00  0.00    +0.028 C 
ATOM      9  C   UNL     1      -0.534   0.494  24.655  0.00  0.00    +0.012 C 
ATOM     10  C   UNL     1      -2.877   1.534  25.295  0.00  0.00    +0.122 C 
ATOM     11  C   UNL     1      -4.162  -1.040  24.588  0.00  0.00    +0.007 C 
ATOM     12  C   UNL     1      -4.410   1.416  25.116  0.00  0.00    +0.029 C 
ATOM     13  C   UNL     1      -1.968  -2.016  23.903  0.00  0.00    +0.009 C 
ATOM     14  C   UNL     1       0.126  -0.592  23.758  0.00  0.00    +0.076 C 
ATOM     15  C   UNL     1      -4.934   0.005  25.383  0.00  0.00    +0.007 C 
ATOM     16  C   UNL     1      -0.448  -1.992  23.977  0.00  0.00    +0.023 C 
ATOM     17  C   UNL     1      -2.369  -1.399  26.318  0.00  0.00    +0.011 C 
ATOM     19  C   UNL     1       0.068   1.866  24.311  0.00  0.00    +0.010 C 
ENDROOT
BRANCH  14   4
ATOM      3  O   UNL     1       2.143   0.128  21.846  0.00  0.00    -0.270 OA
ATOM      4  N   UNL     1       1.560  -0.648  23.952  0.00  0.00    -0.308 N 
ATOM     22  C   UNL     1       2.455  -0.278  22.962  0.00  0.00    +0.244 C 
ATOM     33  H   UNL     1       1.889  -1.082  24.807  0.00  0.00    +0.149 HD
BRANCH  22  23
ATOM     23  C   UNL     1       3.893  -0.418  23.308  0.00  0.00    +0.037 A 
ATOM     27  C   UNL     1       4.375  -1.627  23.810  0.00  0.00    +0.013 A 
ATOM     28  C   UNL     1       4.761   0.658  23.130  0.00  0.00    +0.013 A 
ATOM     29  C   UNL     1       5.725  -1.759  24.134  0.00  0.00    +0.001 A 
ATOM     30  C   UNL     1       6.112   0.527  23.454  0.00  0.00    +0.001 A 
ATOM     31  C   UNL     1       6.593  -0.682  23.956  0.00  0.00    +0.000 A 
ENDBRANCH  22  23
ENDBRANCH  14   4
BRANCH  10   1
ATOM      1  O   UNL     1      -2.509   2.824  24.807  0.00  0.00    -0.391 OA
ATOM     34  H   UNL     1      -2.438   2.773  23.839  0.00  0.00    +0.210 HD
ENDBRANCH  10   1
BRANCH  12  18
ATOM     18  C   UNL     1      -5.164   2.419  25.997  0.00  0.00    +0.078 C 
ATOM     20  C   UNL     1      -6.671   2.214  25.828  0.00  0.00    +0.017 C 
BRANCH  18  21
ATOM      2  O   UNL     1      -4.606   4.690  26.513  0.00  0.00    -0.275 OA
ATOM      5  N   UNL     1      -4.596   4.143  24.265  0.00  0.00    -0.303 N 
ATOM     21  C   UNL     1      -4.759   3.847  25.622  0.00  0.00    +0.219 C 
ATOM     25  C   UNL     1      -4.231   5.501  23.872  0.00  0.00    +0.132 C 
BRANCH   5  24
ATOM     24  C   UNL     1      -4.722   3.200  23.155  0.00  0.00    +0.122 C 
BRANCH  24  26
ATOM     26  C   UNL     1      -3.794   3.539  21.995  0.00  0.00    +0.137 C 
BRANCH  26  32
ATOM      6  N   UNL     1      -2.179   1.543  21.415  0.00  0.00    -0.197 NA
ATOM     32  C   UNL     1      -2.892   2.422  21.671  0.00  0.00    +0.064 C 
ENDBRANCH  26  32
ENDBRANCH  24  26
ENDBRANCH   5  24
ENDBRANCH  18  21
ENDBRANCH  12  18
TORSDOF 8
ENDMDL
