MODEL 1
REMARK VINA RESULT:      -5.0      0.000      0.000
REMARK  Name = 26763402
REMARK  5 active torsions:
REMARK  status: ('A' for Active; 'I' for Inactive)
REMARK    1  A    between atoms: O_3  and  C_12
REMARK    2  A    between atoms: O_3  and  C_22
REMARK    3  A    between atoms: N_6  and  C_11
REMARK    4  A    between atoms: N_7  and  C_15
REMARK    5  A    between atoms: C_22  and  C_23
REMARK                            x       y       z     vdW  Elec       q    Type
REMARK                         _______ _______ _______ _____ _____    ______ ____
ROOT
ATOM      1  O   UNL     1      -2.298   2.846  24.928  0.00  0.00    -0.369 OA
ATOM      2  O   UNL     1      -2.669  -0.155  25.439  0.00  0.00    -0.369 OA
ATOM      9  C   UNL     1      -1.675   0.571  24.688  0.00  0.00    +0.172 C 
ATOM     10  C   UNL     1      -2.385   1.733  24.024  0.00  0.00    +0.180 C 
ATOM     11  C   UNL     1      -0.695   1.235  25.628  0.00  0.00    +0.131 C 
ATOM     12  C   UNL     1      -3.801   1.222  23.902  0.00  0.00    +0.176 C 
ATOM     13  C   UNL     1      -1.438   2.499  26.025  0.00  0.00    +0.185 C 
ATOM     14  C   UNL     1      -3.959   0.414  25.171  0.00  0.00    +0.194 C 
ENDROOT
BRANCH  11   6
ATOM      4  O   UNL     1       0.588  -0.324  23.582  0.00  0.00    -0.253 OA
ATOM      6  N   UNL     1       0.545   1.542  24.960  0.00  0.00    -0.292 N 
ATOM      7  N   UNL     1       2.295   1.248  23.493  0.00  0.00    -0.297 N 
ATOM     21  C   UNL     1       1.097   0.724  23.975  0.00  0.00    +0.300 C 
ATOM     24  H   UNL     1       1.075   2.354  25.261  0.00  0.00    +0.151 HD
ATOM     25  H   UNL     1       2.660   2.084  23.939  0.00  0.00    +0.151 HD
BRANCH   7  15
ATOM     15  C   UNL     1       3.082   0.606  22.465  0.00  0.00    +0.074 C 
ATOM     16  C   UNL     1       4.509   1.165  22.435  0.00  0.00    +0.022 C 
ATOM     17  C   UNL     1       3.085  -0.916  22.642  0.00  0.00    +0.022 C 
ATOM     18  C   UNL     1       5.339   0.714  23.637  0.00  0.00    +0.002 C 
ATOM     19  C   UNL     1       3.916  -1.362  23.845  0.00  0.00    +0.002 C 
ATOM     20  C   UNL     1       5.335  -0.804  23.787  0.00  0.00    +0.000 C 
ENDBRANCH   7  15
ENDBRANCH  11   6
BRANCH  12   3
ATOM      3  O   UNL     1      -4.764   2.247  23.803  0.00  0.00    -0.362 OA
BRANCH   3  22
ATOM     22  C   UNL     1      -5.898   1.996  24.630  0.00  0.00    +0.255 C 
BRANCH  22  23
ATOM      5  O   UNL     1      -5.554   4.126  25.718  0.00  0.00    -0.274 OA
ATOM      8  N   UNL     1      -6.305   2.347  26.970  0.00  0.00    -0.327 N 
ATOM     23  C   UNL     1      -5.890   2.948  25.801  0.00  0.00    +0.236 C 
ATOM     26  H   UNL     1      -6.578   1.370  27.010  0.00  0.00    +0.145 HD
ATOM     27  H   UNL     1      -6.350   2.870  27.838  0.00  0.00    +0.145 HD
ENDBRANCH  22  23
ENDBRANCH   3  22
ENDBRANCH  12   3
TORSDOF 5
ENDMDL
MODEL 2
REMARK VINA RESULT:      -4.6      1.343      2.048
REMARK  Name = 26763402
REMARK  5 active torsions:
REMARK  status: ('A' for Active; 'I' for Inactive)
REMARK    1  A    between atoms: O_3  and  C_12
REMARK    2  A    between atoms: O_3  and  C_22
REMARK    3  A    between atoms: N_6  and  C_11
REMARK    4  A    between atoms: N_7  and  C_15
REMARK    5  A    between atoms: C_22  and  C_23
REMARK                            x       y       z     vdW  Elec       q    Type
REMARK                         _______ _______ _______ _____ _____    ______ ____
ROOT
ATOM      1  O   UNL     1      -2.433   1.203  25.540  0.00  0.00    -0.369 OA
ATOM      2  O   UNL     1      -2.710   2.295  22.688  0.00  0.00    -0.369 OA
ATOM      9  C   UNL     1      -1.548   1.988  23.484  0.00  0.00    +0.172 C 
ATOM     10  C   UNL     1      -1.879   2.371  24.913  0.00  0.00    +0.180 C 
ATOM     11  C   UNL     1      -1.343   0.492  23.550  0.00  0.00    +0.131 C 
ATOM     12  C   UNL     1      -2.918   3.451  24.727  0.00  0.00    +0.176 C 
ATOM     13  C   UNL     1      -2.309   0.083  24.649  0.00  0.00    +0.185 C 
ATOM     14  C   UNL     1      -3.677   2.960  23.515  0.00  0.00    +0.194 C 
ENDROOT
BRANCH  11   6
ATOM      4  O   UNL     1       0.747  -0.304  21.744  0.00  0.00    -0.253 OA
ATOM      6  N   UNL     1       0.018   0.165  23.896  0.00  0.00    -0.292 N 
ATOM      7  N   UNL     1       2.201  -0.474  23.547  0.00  0.00    -0.297 N 
ATOM     21  C   UNL     1       0.969  -0.214  22.950  0.00  0.00    +0.300 C 
ATOM     24  H   UNL     1       0.281   0.147  24.877  0.00  0.00    +0.151 HD
ATOM     25  H   UNL     1       2.255  -0.438  24.560  0.00  0.00    +0.151 HD
BRANCH   7  15
ATOM     15  C   UNL     1       3.369  -0.886  22.802  0.00  0.00    +0.074 C 
ATOM     16  C   UNL     1       3.941   0.278  21.986  0.00  0.00    +0.022 C 
ATOM     17  C   UNL     1       4.430  -1.488  23.729  0.00  0.00    +0.022 C 
ATOM     18  C   UNL     1       4.619   1.330  22.863  0.00  0.00    +0.002 C 
ATOM     19  C   UNL     1       5.108  -0.433  24.604  0.00  0.00    +0.002 C 
ATOM     20  C   UNL     1       5.679   0.709  23.769  0.00  0.00    +0.000 C 
ENDBRANCH   7  15
ENDBRANCH  11   6
BRANCH  12   3
ATOM      3  O   UNL     1      -3.759   3.622  25.846  0.00  0.00    -0.362 OA
BRANCH   3  22
ATOM     22  C   UNL     1      -5.138   3.628  25.481  0.00  0.00    +0.255 C 
BRANCH  22  23
ATOM      5  O   UNL     1      -5.678   1.317  25.027  0.00  0.00    -0.274 OA
ATOM      8  N   UNL     1      -6.380   2.253  27.008  0.00  0.00    -0.327 N 
ATOM     23  C   UNL     1      -5.746   2.280  25.785  0.00  0.00    +0.236 C 
ATOM     26  H   UNL     1      -6.420   3.065  27.616  0.00  0.00    +0.145 HD
ATOM     27  H   UNL     1      -6.834   1.410  27.344  0.00  0.00    +0.145 HD
ENDBRANCH  22  23
ENDBRANCH   3  22
ENDBRANCH  12   3
TORSDOF 5
ENDMDL
MODEL 3
REMARK VINA RESULT:      -2.1      1.491      1.717
REMARK  Name = 26763402
REMARK  5 active torsions:
REMARK  status: ('A' for Active; 'I' for Inactive)
REMARK    1  A    between atoms: O_3  and  C_12
REMARK    2  A    between atoms: O_3  and  C_22
REMARK    3  A    between atoms: N_6  and  C_11
REMARK    4  A    between atoms: N_7  and  C_15
REMARK    5  A    between atoms: C_22  and  C_23
REMARK                            x       y       z     vdW  Elec       q    Type
REMARK                         _______ _______ _______ _____ _____    ______ ____
ROOT
ATOM      1  O   UNL     1      -2.514   1.062  26.016  0.00  0.00    -0.369 OA
ATOM      2  O   UNL     1      -3.508  -0.628  23.658  0.00  0.00    -0.369 OA
ATOM      9  C   UNL     1      -2.334   0.193  23.816  0.00  0.00    +0.172 C 
ATOM     10  C   UNL     1      -2.746   1.398  24.638  0.00  0.00    +0.180 C 
ATOM     11  C   UNL     1      -1.321  -0.511  24.690  0.00  0.00    +0.131 C 
ATOM     12  C   UNL     1      -4.220   1.512  24.332  0.00  0.00    +0.176 C 
ATOM     13  C   UNL     1      -1.829  -0.200  26.087  0.00  0.00    +0.185 C 
ATOM     14  C   UNL     1      -4.635   0.062  24.218  0.00  0.00    +0.194 C 
ENDROOT
BRANCH  11   6
ATOM      4  O   UNL     1       0.465  -1.145  22.528  0.00  0.00    -0.253 OA
ATOM      6  N   UNL     1       0.005   0.017  24.483  0.00  0.00    -0.292 N 
ATOM      7  N   UNL     1       2.035   0.304  23.437  0.00  0.00    -0.297 N 
ATOM     21  C   UNL     1       0.805  -0.349  23.401  0.00  0.00    +0.300 C 
ATOM     24  H   UNL     1       0.401   0.633  25.186  0.00  0.00    +0.151 HD
ATOM     25  H   UNL     1       2.240   0.886  24.243  0.00  0.00    +0.151 HD
BRANCH   7  15
ATOM     15  C   UNL     1       3.062   0.112  22.438  0.00  0.00    +0.074 C 
ATOM     16  C   UNL     1       4.104   1.235  22.496  0.00  0.00    +0.022 C 
ATOM     17  C   UNL     1       3.720  -1.264  22.579  0.00  0.00    +0.022 C 
ATOM     18  C   UNL     1       5.001   1.136  23.730  0.00  0.00    +0.002 C 
ATOM     19  C   UNL     1       4.617  -1.359  23.813  0.00  0.00    +0.002 C 
ATOM     20  C   UNL     1       5.652  -0.239  23.844  0.00  0.00    +0.000 C 
ENDBRANCH   7  15
ENDBRANCH  11   6
BRANCH  12   3
ATOM      3  O   UNL     1      -4.951   2.196  25.325  0.00  0.00    -0.362 OA
BRANCH   3  22
ATOM     22  C   UNL     1      -4.976   3.603  25.095  0.00  0.00    +0.255 C 
BRANCH  22  23
ATOM      5  O   UNL     1      -2.877   4.640  24.495  0.00  0.00    -0.274 OA
ATOM      8  N   UNL     1      -3.279   4.143  26.706  0.00  0.00    -0.327 N 
ATOM     23  C   UNL     1      -3.609   4.183  25.368  0.00  0.00    +0.236 C 
ATOM     26  H   UNL     1      -3.905   3.760  27.407  0.00  0.00    +0.145 HD
ATOM     27  H   UNL     1      -2.388   4.501  27.035  0.00  0.00    +0.145 HD
ENDBRANCH  22  23
ENDBRANCH   3  22
ENDBRANCH  12   3
TORSDOF 5
ENDMDL
MODEL 4
REMARK VINA RESULT:      -1.9      3.034      4.514
REMARK  Name = 26763402
REMARK  5 active torsions:
REMARK  status: ('A' for Active; 'I' for Inactive)
REMARK    1  A    between atoms: O_3  and  C_12
REMARK    2  A    between atoms: O_3  and  C_22
REMARK    3  A    between atoms: N_6  and  C_11
REMARK    4  A    between atoms: N_7  and  C_15
REMARK    5  A    between atoms: C_22  and  C_23
REMARK                            x       y       z     vdW  Elec       q    Type
REMARK                         _______ _______ _______ _____ _____    ______ ____
ROOT
ATOM      1  O   UNL     1      -2.491   2.910  23.468  0.00  0.00    -0.369 OA
ATOM      2  O   UNL     1      -0.788   4.633  25.347  0.00  0.00    -0.369 OA
ATOM      9  C   UNL     1      -0.955   3.204  25.250  0.00  0.00    +0.172 C 
ATOM     10  C   UNL     1      -2.409   2.954  24.901  0.00  0.00    +0.180 C 
ATOM     11  C   UNL     1      -0.200   2.672  24.054  0.00  0.00    +0.131 C 
ATOM     12  C   UNL     1      -3.094   4.176  25.464  0.00  0.00    +0.176 C 
ATOM     13  C   UNL     1      -1.166   2.946  22.915  0.00  0.00    +0.185 C 
ATOM     14  C   UNL     1      -2.071   5.261  25.208  0.00  0.00    +0.194 C 
ENDROOT
BRANCH  11   6
ATOM      4  O   UNL     1      -1.616   0.806  25.722  0.00  0.00    -0.253 OA
ATOM      6  N   UNL     1       0.067   1.261  24.190  0.00  0.00    -0.292 N 
ATOM      7  N   UNL     1      -0.212  -0.886  24.972  0.00  0.00    -0.297 N 
ATOM     21  C   UNL     1      -0.674   0.428  25.026  0.00  0.00    +0.300 C 
ATOM     24  H   UNL     1       0.867   0.866  23.706  0.00  0.00    +0.151 HD
ATOM     25  H   UNL     1       0.618  -1.074  24.419  0.00  0.00    +0.151 HD
BRANCH   7  15
ATOM     15  C   UNL     1      -0.797  -1.962  25.739  0.00  0.00    +0.074 C 
ATOM     16  C   UNL     1      -2.067  -1.498  26.460  0.00  0.00    +0.022 C 
ATOM     17  C   UNL     1      -1.076  -3.182  24.854  0.00  0.00    +0.022 C 
ATOM     18  C   UNL     1      -3.236  -1.274  25.500  0.00  0.00    +0.002 C 
ATOM     19  C   UNL     1      -2.245  -2.954  23.896  0.00  0.00    +0.002 C 
ATOM     20  C   UNL     1      -3.500  -2.504  24.638  0.00  0.00    +0.000 C 
ENDBRANCH   7  15
ENDBRANCH  11   6
BRANCH  12   3
ATOM      3  O   UNL     1      -4.332   4.460  24.851  0.00  0.00    -0.362 OA
BRANCH   3  22
ATOM     22  C   UNL     1      -5.432   4.132  25.696  0.00  0.00    +0.255 C 
BRANCH  22  23
ATOM      5  O   UNL     1      -5.578   2.040  24.496  0.00  0.00    -0.274 OA
ATOM      8  N   UNL     1      -6.346   2.133  26.663  0.00  0.00    -0.327 N 
ATOM     23  C   UNL     1      -5.780   2.672  25.528  0.00  0.00    +0.236 C 
ATOM     26  H   UNL     1      -6.501   2.680  27.504  0.00  0.00    +0.145 HD
ATOM     27  H   UNL     1      -6.629   1.159  26.693  0.00  0.00    +0.145 HD
ENDBRANCH  22  23
ENDBRANCH   3  22
ENDBRANCH  12   3
TORSDOF 5
ENDMDL
MODEL 5
REMARK VINA RESULT:      -1.7     17.196     19.270
REMARK  Name = 26763402
REMARK  5 active torsions:
REMARK  status: ('A' for Active; 'I' for Inactive)
REMARK    1  A    between atoms: O_3  and  C_12
REMARK    2  A    between atoms: O_3  and  C_22
REMARK    3  A    between atoms: N_6  and  C_11
REMARK    4  A    between atoms: N_7  and  C_15
REMARK    5  A    between atoms: C_22  and  C_23
REMARK                            x       y       z     vdW  Elec       q    Type
REMARK                         _______ _______ _______ _____ _____    ______ ____
ROOT
ATOM      1  O   UNL     1      -4.455  -8.495  11.578  0.00  0.00    -0.369 OA
ATOM      2  O   UNL     1      -2.986 -10.691  10.020  0.00  0.00    -0.369 OA
ATOM      9  C   UNL     1      -4.349 -10.223   9.957  0.00  0.00    +0.172 C 
ATOM     10  C   UNL     1      -4.764  -9.884  11.375  0.00  0.00    +0.180 C 
ATOM     11  C   UNL     1      -4.411  -8.897   9.235  0.00  0.00    +0.131 C 
ATOM     12  C   UNL     1      -3.872 -10.781  12.199  0.00  0.00    +0.176 C 
ATOM     13  C   UNL     1      -4.037  -7.916  10.332  0.00  0.00    +0.185 C 
ATOM     14  C   UNL     1      -2.590 -10.781  11.397  0.00  0.00    +0.194 C 
ENDROOT
BRANCH  11   6
ATOM      4  O   UNL     1      -6.715 -10.596   9.499  0.00  0.00    -0.253 OA
ATOM      6  N   UNL     1      -5.736  -8.639   8.728  0.00  0.00    -0.292 N 
ATOM      7  N   UNL     1      -7.965  -9.036   8.317  0.00  0.00    -0.297 N 
ATOM     21  C   UNL     1      -6.799  -9.524   8.902  0.00  0.00    +0.300 C 
ATOM     24  H   UNL     1      -5.890  -7.809   8.164  0.00  0.00    +0.151 HD
ATOM     25  H   UNL     1      -7.905  -8.173   7.787  0.00  0.00    +0.151 HD
BRANCH   7  15
ATOM     15  C   UNL     1      -9.222  -9.749   8.347  0.00  0.00    +0.074 C 
ATOM     16  C   UNL     1      -9.327 -10.630   9.596  0.00  0.00    +0.022 C 
ATOM     17  C   UNL     1     -10.407  -8.782   8.248  0.00  0.00    +0.022 C 
ATOM     18  C   UNL     1      -9.527  -9.813  10.873  0.00  0.00    +0.002 C 
ATOM     19  C   UNL     1     -10.605  -7.968   9.526  0.00  0.00    +0.002 C 
ATOM     20  C   UNL     1     -10.718  -8.866  10.754  0.00  0.00    +0.000 C 
ENDBRANCH   7  15
ENDBRANCH  11   6
BRANCH  12   3
ATOM      3  O   UNL     1      -3.674 -10.321  13.517  0.00  0.00    -0.362 OA
BRANCH   3  22
ATOM     22  C   UNL     1      -2.315 -10.455  13.929  0.00  0.00    +0.255 C 
BRANCH  22  23
ATOM      5  O   UNL     1      -1.158 -10.032  16.008  0.00  0.00    -0.274 OA
ATOM      8  N   UNL     1      -3.446 -10.276  16.040  0.00  0.00    -0.327 N 
ATOM     23  C   UNL     1      -2.216 -10.232  15.419  0.00  0.00    +0.236 C 
ATOM     26  H   UNL     1      -4.306 -10.443  15.528  0.00  0.00    +0.145 HD
ATOM     27  H   UNL     1      -3.530 -10.142  17.043  0.00  0.00    +0.145 HD
ENDBRANCH  22  23
ENDBRANCH   3  22
ENDBRANCH  12   3
TORSDOF 5
ENDMDL
MODEL 6
REMARK VINA RESULT:      -1.2      2.213      6.947
REMARK  Name = 26763402
REMARK  5 active torsions:
REMARK  status: ('A' for Active; 'I' for Inactive)
REMARK    1  A    between atoms: O_3  and  C_12
REMARK    2  A    between atoms: O_3  and  C_22
REMARK    3  A    between atoms: N_6  and  C_11
REMARK    4  A    between atoms: N_7  and  C_15
REMARK    5  A    between atoms: C_22  and  C_23
REMARK                            x       y       z     vdW  Elec       q    Type
REMARK                         _______ _______ _______ _____ _____    ______ ____
ROOT
ATOM      1  O   UNL     1      -2.372  -0.213  23.518  0.00  0.00    -0.369 OA
ATOM      2  O   UNL     1      -2.883  -2.733  25.189  0.00  0.00    -0.369 OA
ATOM      9  C   UNL     1      -3.081  -1.336  25.483  0.00  0.00    +0.172 C 
ATOM     10  C   UNL     1      -1.936  -0.583  24.836  0.00  0.00    +0.180 C 
ATOM     11  C   UNL     1      -4.305  -0.821  24.761  0.00  0.00    +0.131 C 
ATOM     12  C   UNL     1      -0.845  -1.625  24.792  0.00  0.00    +0.176 C 
ATOM     13  C   UNL     1      -3.764  -0.538  23.371  0.00  0.00    +0.185 C 
ATOM     14  C   UNL     1      -1.624  -2.892  24.518  0.00  0.00    +0.194 C 
ENDROOT
BRANCH  11   6
ATOM      4  O   UNL     1      -3.722   1.890  24.002  0.00  0.00    -0.253 OA
ATOM      6  N   UNL     1      -4.814   0.377  25.382  0.00  0.00    -0.292 N 
ATOM      7  N   UNL     1      -5.100   2.636  25.715  0.00  0.00    -0.297 N 
ATOM     21  C   UNL     1      -4.475   1.657  24.946  0.00  0.00    +0.300 C 
ATOM     24  H   UNL     1      -5.392   0.290  26.212  0.00  0.00    +0.151 HD
ATOM     25  H   UNL     1      -5.645   2.334  26.517  0.00  0.00    +0.151 HD
BRANCH   7  15
ATOM     15  C   UNL     1      -4.928   4.053  25.484  0.00  0.00    +0.074 C 
ATOM     16  C   UNL     1      -4.098   4.696  26.601  0.00  0.00    +0.022 C 
ATOM     17  C   UNL     1      -4.307   4.316  24.109  0.00  0.00    +0.022 C 
ATOM     18  C   UNL     1      -2.623   4.299  26.535  0.00  0.00    +0.002 C 
ATOM     19  C   UNL     1      -2.832   3.919  24.047  0.00  0.00    +0.002 C 
ATOM     20  C   UNL     1      -2.025   4.580  25.160  0.00  0.00    +0.000 C 
ENDBRANCH   7  15
ENDBRANCH  11   6
BRANCH  12   3
ATOM      3  O   UNL     1       0.131  -1.378  23.804  0.00  0.00    -0.362 OA
BRANCH   3  22
ATOM     22  C   UNL     1       0.530  -0.010  23.779  0.00  0.00    +0.255 C 
BRANCH  22  23
ATOM      5  O   UNL     1       1.628  -0.356  21.654  0.00  0.00    -0.274 OA
ATOM      8  N   UNL     1       2.627   1.013  23.211  0.00  0.00    -0.327 N 
ATOM     23  C   UNL     1       1.629   0.177  22.760  0.00  0.00    +0.236 C 
ATOM     26  H   UNL     1       2.602   1.441  24.131  0.00  0.00    +0.145 HD
ATOM     27  H   UNL     1       3.430   1.230  22.629  0.00  0.00    +0.145 HD
ENDBRANCH  22  23
ENDBRANCH   3  22
ENDBRANCH  12   3
TORSDOF 5
ENDMDL
MODEL 7
REMARK VINA RESULT:      -1.2      2.031      3.021
REMARK  Name = 26763402
REMARK  5 active torsions:
REMARK  status: ('A' for Active; 'I' for Inactive)
REMARK    1  A    between atoms: O_3  and  C_12
REMARK    2  A    between atoms: O_3  and  C_22
REMARK    3  A    between atoms: N_6  and  C_11
REMARK    4  A    between atoms: N_7  and  C_15
REMARK    5  A    between atoms: C_22  and  C_23
REMARK                            x       y       z     vdW  Elec       q    Type
REMARK                         _______ _______ _______ _____ _____    ______ ____
ROOT
ATOM      1  O   UNL     1      -2.076   0.647  23.669  0.00  0.00    -0.369 OA
ATOM      2  O   UNL     1      -2.529   3.042  25.531  0.00  0.00    -0.369 OA
ATOM      9  C   UNL     1      -1.411   2.142  25.386  0.00  0.00    +0.172 C 
ATOM     10  C   UNL     1      -1.985   0.769  25.098  0.00  0.00    +0.180 C 
ATOM     11  C   UNL     1      -0.633   2.478  24.134  0.00  0.00    +0.131 C 
ATOM     12  C   UNL     1      -3.349   0.846  25.741  0.00  0.00    +0.176 C 
ATOM     13  C   UNL     1      -1.442   1.780  23.055  0.00  0.00    +0.185 C 
ATOM     14  C   UNL     1      -3.745   2.281  25.480  0.00  0.00    +0.194 C 
ENDROOT
BRANCH  11   6
ATOM      4  O   UNL     1       0.514   0.447  22.454  0.00  0.00    -0.253 OA
ATOM      6  N   UNL     1       0.712   1.962  24.200  0.00  0.00    -0.292 N 
ATOM      7  N   UNL     1       2.513   0.654  23.617  0.00  0.00    -0.297 N 
ATOM     21  C   UNL     1       1.185   0.971  23.341  0.00  0.00    +0.300 C 
ATOM     24  H   UNL     1       1.324   2.285  24.943  0.00  0.00    +0.151 HD
ATOM     25  H   UNL     1       2.950   1.096  24.419  0.00  0.00    +0.151 HD
BRANCH   7  15
ATOM     15  C   UNL     1       3.258  -0.342  22.879  0.00  0.00    +0.074 C 
ATOM     16  C   UNL     1       4.290   0.314  21.956  0.00  0.00    +0.022 C 
ATOM     17  C   UNL     1       3.919  -1.349  23.825  0.00  0.00    +0.022 C 
ATOM     18  C   UNL     1       5.465   0.916  22.728  0.00  0.00    +0.002 C 
ATOM     19  C   UNL     1       5.094  -0.744  24.594  0.00  0.00    +0.002 C 
ATOM     20  C   UNL     1       6.114  -0.108  23.655  0.00  0.00    +0.000 C 
ENDBRANCH   7  15
ENDBRANCH  11   6
BRANCH  12   3
ATOM      3  O   UNL     1      -4.278  -0.068  25.201  0.00  0.00    -0.362 OA
BRANCH   3  22
ATOM     22  C   UNL     1      -3.989  -1.411  25.584  0.00  0.00    +0.255 C 
BRANCH  22  23
ATOM      5  O   UNL     1      -4.490  -2.552  23.513  0.00  0.00    -0.274 OA
ATOM      8  N   UNL     1      -2.324  -2.557  24.288  0.00  0.00    -0.327 N 
ATOM     23  C   UNL     1      -3.660  -2.225  24.356  0.00  0.00    +0.236 C 
ATOM     26  H   UNL     1      -1.658  -2.273  25.000  0.00  0.00    +0.145 HD
ATOM     27  H   UNL     1      -1.960  -3.104  23.515  0.00  0.00    +0.145 HD
ENDBRANCH  22  23
ENDBRANCH   3  22
ENDBRANCH  12   3
TORSDOF 5
ENDMDL
MODEL 8
REMARK VINA RESULT:      -1.1      2.715      6.553
REMARK  Name = 26763402
REMARK  5 active torsions:
REMARK  status: ('A' for Active; 'I' for Inactive)
REMARK    1  A    between atoms: O_3  and  C_12
REMARK    2  A    between atoms: O_3  and  C_22
REMARK    3  A    between atoms: N_6  and  C_11
REMARK    4  A    between atoms: N_7  and  C_15
REMARK    5  A    between atoms: C_22  and  C_23
REMARK                            x       y       z     vdW  Elec       q    Type
REMARK                         _______ _______ _______ _____ _____    ______ ____
ROOT
ATOM      1  O   UNL     1      -0.740   0.500  26.099  0.00  0.00    -0.369 OA
ATOM      2  O   UNL     1       0.930   0.906  23.560  0.00  0.00    -0.369 OA
ATOM      9  C   UNL     1      -0.297   1.519  24.004  0.00  0.00    +0.172 C 
ATOM     10  C   UNL     1      -1.097   0.442  24.709  0.00  0.00    +0.180 C 
ATOM     11  C   UNL     1      -0.010   2.527  25.093  0.00  0.00    +0.131 C 
ATOM     12  C   UNL     1      -0.591  -0.821  24.054  0.00  0.00    +0.176 C 
ATOM     13  C   UNL     1       0.095   1.646  26.327  0.00  0.00    +0.185 C 
ATOM     14  C   UNL     1       0.871  -0.502  23.833  0.00  0.00    +0.194 C 
ENDROOT
BRANCH  11   6
ATOM      4  O   UNL     1      -2.640   2.318  23.950  0.00  0.00    -0.253 OA
ATOM      6  N   UNL     1      -1.083   3.482  25.219  0.00  0.00    -0.292 N 
ATOM      7  N   UNL     1      -3.185   4.365  24.902  0.00  0.00    -0.297 N 
ATOM     21  C   UNL     1      -2.332   3.298  24.627  0.00  0.00    +0.300 C 
ATOM     24  H   UNL     1      -0.905   4.355  25.704  0.00  0.00    +0.151 HD
ATOM     25  H   UNL     1      -2.805   5.157  25.412  0.00  0.00    +0.151 HD
BRANCH   7  15
ATOM     15  C   UNL     1      -4.543   4.438  24.415  0.00  0.00    +0.074 C 
ATOM     16  C   UNL     1      -4.837   3.301  23.430  0.00  0.00    +0.022 C 
ATOM     17  C   UNL     1      -5.546   4.442  25.573  0.00  0.00    +0.022 C 
ATOM     18  C   UNL     1      -4.942   1.941  24.122  0.00  0.00    +0.002 C 
ATOM     19  C   UNL     1      -5.649   3.081  26.262  0.00  0.00    +0.002 C 
ATOM     20  C   UNL     1      -5.953   1.968  25.264  0.00  0.00    +0.000 C 
ENDBRANCH   7  15
ENDBRANCH  11   6
BRANCH  12   3
ATOM      3  O   UNL     1      -0.768  -1.975  24.844  0.00  0.00    -0.362 OA
BRANCH   3  22
ATOM     22  C   UNL     1      -1.882  -2.753  24.409  0.00  0.00    +0.255 C 
BRANCH  22  23
ATOM      5  O   UNL     1      -3.363  -1.747  26.031  0.00  0.00    -0.274 OA
ATOM      8  N   UNL     1      -4.078  -1.957  23.854  0.00  0.00    -0.327 N 
ATOM     23  C   UNL     1      -3.163  -2.104  24.874  0.00  0.00    +0.236 C 
ATOM     26  H   UNL     1      -3.885  -2.261  22.905  0.00  0.00    +0.145 HD
ATOM     27  H   UNL     1      -4.985  -1.534  24.023  0.00  0.00    +0.145 HD
ENDBRANCH  22  23
ENDBRANCH   3  22
ENDBRANCH  12   3
TORSDOF 5
ENDMDL
