MODEL 1
REMARK VINA RESULT:      -3.7      0.000      0.000
REMARK  Name = 45783412
REMARK  9 active torsions:
REMARK  status: ('A' for Active; 'I' for Inactive)
REMARK    1  A    between atoms: O_3  and  C_23
REMARK    2  A    between atoms: O_3  and  C_27
REMARK    3  A    between atoms: O_4  and  C_28
REMARK    4  A    between atoms: O_4  and  C_29
REMARK    5  A    between atoms: N_5  and  C_13
REMARK    6  A    between atoms: C_9  and  C_14
REMARK    7  A    between atoms: C_13  and  C_15
REMARK    8  A    between atoms: C_18  and  C_21
REMARK    9  A    between atoms: C_27  and  C_28
REMARK                            x       y       z     vdW  Elec       q    Type
REMARK                         _______ _______ _______ _____ _____    ______ ____
ROOT
ATOM      2  O   UNL     1      -1.283   1.495  22.614  0.00  0.00    -0.336 OA
ATOM      6  N   UNL     1      -1.835   1.378  24.782  0.00  0.00    -0.190 NA
ATOM      7  N   UNL     1      -2.602   1.959  22.706  0.00  0.00    -0.056 NA
ATOM     14  C   UNL     1      -0.908   1.173  23.880  0.00  0.00    +0.245 A 
ATOM     18  C   UNL     1      -2.856   1.859  24.015  0.00  0.00    +0.207 A 
ENDROOT
BRANCH  18  21
ATOM      8  N   UNL     1      -5.584   3.934  25.477  0.00  0.00    -0.221 NA
ATOM     21  C   UNL     1      -4.117   2.231  24.587  0.00  0.00    +0.084 A 
ATOM     23  C   UNL     1      -4.410   3.540  24.936  0.00  0.00    +0.226 A 
ATOM     24  C   UNL     1      -5.092   1.265  24.808  0.00  0.00    +0.018 A 
ATOM     25  C   UNL     1      -6.313   1.632  25.363  0.00  0.00    +0.021 A 
ATOM     26  C   UNL     1      -6.508   2.968  25.677  0.00  0.00    +0.114 A 
BRANCH  23   3
ATOM      3  O   UNL     1      -3.480   4.528  24.738  0.00  0.00    -0.474 OA
BRANCH   3  27
ATOM     27  C   UNL     1      -2.449   4.640  25.711  0.00  0.00    +0.258 C 
BRANCH  27  28
ATOM     28  C   UNL     1      -1.207   5.211  25.054  0.00  0.00    +0.200 C 
BRANCH  28   4
ATOM      4  O   UNL     1      -0.193   4.212  25.033  0.00  0.00    -0.380 OA
ATOM     29  C   UNL     1      -0.234   3.405  26.201  0.00  0.00    +0.194 C 
ENDBRANCH  28   4
ENDBRANCH  27  28
ENDBRANCH   3  27
ENDBRANCH  23   3
ENDBRANCH  18  21
BRANCH  14   9
ATOM      5  N   UNL     1       0.616  -0.783  23.676  0.00  0.00    -0.287 NA
ATOM      9  C   UNL     1       0.498   0.640  24.052  0.00  0.00    +0.146 C 
ATOM     10  C   UNL     1       1.523   1.366  23.160  0.00  0.00    +0.030 C 
ATOM     11  C   UNL     1       2.209   0.264  22.364  0.00  0.00    +0.017 C 
ATOM     12  C   UNL     1       1.989  -0.975  23.208  0.00  0.00    +0.085 C 
BRANCH   5  13
ATOM     13  C   UNL     1       0.274  -1.694  24.760  0.00  0.00    +0.123 C 
BRANCH  13  15
ATOM      1  F   UNL     1      -1.171  -0.675  26.975  0.00  0.00    -0.205 F 
ATOM     15  C   UNL     1      -1.216  -1.851  24.912  0.00  0.00    +0.002 A 
ATOM     16  C   UNL     1      -1.864  -1.325  26.029  0.00  0.00    +0.128 A 
ATOM     17  C   UNL     1      -1.946  -2.525  23.934  0.00  0.00    +0.008 A 
ATOM     19  C   UNL     1      -3.245  -1.472  26.168  0.00  0.00    +0.038 A 
ATOM     20  C   UNL     1      -3.327  -2.673  24.072  0.00  0.00    +0.000 A 
ATOM     22  C   UNL     1      -3.976  -2.144  25.189  0.00  0.00    +0.003 A 
ENDBRANCH  13  15
ENDBRANCH   5  13
ENDBRANCH  14   9
TORSDOF 8
ENDMDL
MODEL 2
REMARK VINA RESULT:      -3.2      1.601      5.182
REMARK  Name = 45783412
REMARK  9 active torsions:
REMARK  status: ('A' for Active; 'I' for Inactive)
REMARK    1  A    between atoms: O_3  and  C_23
REMARK    2  A    between atoms: O_3  and  C_27
REMARK    3  A    between atoms: O_4  and  C_28
REMARK    4  A    between atoms: O_4  and  C_29
REMARK    5  A    between atoms: N_5  and  C_13
REMARK    6  A    between atoms: C_9  and  C_14
REMARK    7  A    between atoms: C_13  and  C_15
REMARK    8  A    between atoms: C_18  and  C_21
REMARK    9  A    between atoms: C_27  and  C_28
REMARK                            x       y       z     vdW  Elec       q    Type
REMARK                         _______ _______ _______ _____ _____    ______ ____
ROOT
ATOM      2  O   UNL     1      -3.128   2.461  22.333  0.00  0.00    -0.336 OA
ATOM      6  N   UNL     1      -2.207   1.166  23.912  0.00  0.00    -0.190 NA
ATOM      7  N   UNL     1      -1.804   2.240  21.933  0.00  0.00    -0.056 NA
ATOM     14  C   UNL     1      -3.282   1.794  23.507  0.00  0.00    +0.245 A 
ATOM     18  C   UNL     1      -1.327   1.469  22.915  0.00  0.00    +0.207 A 
ENDROOT
BRANCH  18  21
ATOM      8  N   UNL     1       2.289   1.145  23.757  0.00  0.00    -0.221 NA
ATOM     21  C   UNL     1       0.023   0.985  22.930  0.00  0.00    +0.084 A 
ATOM     23  C   UNL     1       1.007   1.568  23.713  0.00  0.00    +0.226 A 
ATOM     24  C   UNL     1       0.380  -0.104  22.142  0.00  0.00    +0.018 A 
ATOM     25  C   UNL     1       1.690  -0.569  22.161  0.00  0.00    +0.021 A 
ATOM     26  C   UNL     1       2.599   0.084  22.979  0.00  0.00    +0.114 A 
BRANCH  23   3
ATOM      3  O   UNL     1       0.703   2.645  24.506  0.00  0.00    -0.474 OA
BRANCH   3  27
ATOM     27  C   UNL     1       0.196   2.360  25.804  0.00  0.00    +0.258 C 
BRANCH  27  28
ATOM     28  C   UNL     1      -0.998   3.253  26.076  0.00  0.00    +0.200 C 
BRANCH  28   4
ATOM      4  O   UNL     1      -1.096   4.226  25.041  0.00  0.00    -0.380 OA
ATOM     29  C   UNL     1      -2.070   5.214  25.347  0.00  0.00    +0.194 C 
ENDBRANCH  28   4
ENDBRANCH  27  28
ENDBRANCH   3  27
ENDBRANCH  23   3
ENDBRANCH  18  21
BRANCH  14   9
ATOM      5  N   UNL     1      -4.687   1.230  25.482  0.00  0.00    -0.287 NA
ATOM      9  C   UNL     1      -4.648   1.877  24.155  0.00  0.00    +0.146 C 
ATOM     10  C   UNL     1      -5.097   3.327  24.414  0.00  0.00    +0.030 C 
ATOM     11  C   UNL     1      -5.425   3.384  25.899  0.00  0.00    +0.017 C 
ATOM     12  C   UNL     1      -5.706   1.938  26.257  0.00  0.00    +0.085 C 
BRANCH   5  13
ATOM     13  C   UNL     1      -4.945  -0.202  25.416  0.00  0.00    +0.123 C 
BRANCH  13  15
ATOM      1  F   UNL     1      -4.700  -2.354  23.590  0.00  0.00    -0.205 F 
ATOM     15  C   UNL     1      -3.676  -0.993  25.244  0.00  0.00    +0.002 A 
ATOM     16  C   UNL     1      -3.624  -2.042  24.326  0.00  0.00    +0.128 A 
ATOM     17  C   UNL     1      -2.551  -0.676  26.005  0.00  0.00    +0.008 A 
ATOM     19  C   UNL     1      -2.447  -2.774  24.168  0.00  0.00    +0.038 A 
ATOM     20  C   UNL     1      -1.373  -1.407  25.848  0.00  0.00    +0.000 A 
ATOM     22  C   UNL     1      -1.321  -2.456  24.928  0.00  0.00    +0.003 A 
ENDBRANCH  13  15
ENDBRANCH   5  13
ENDBRANCH  14   9
TORSDOF 8
ENDMDL
MODEL 3
REMARK VINA RESULT:      -2.5      2.023      5.821
REMARK  Name = 45783412
REMARK  9 active torsions:
REMARK  status: ('A' for Active; 'I' for Inactive)
REMARK    1  A    between atoms: O_3  and  C_23
REMARK    2  A    between atoms: O_3  and  C_27
REMARK    3  A    between atoms: O_4  and  C_28
REMARK    4  A    between atoms: O_4  and  C_29
REMARK    5  A    between atoms: N_5  and  C_13
REMARK    6  A    between atoms: C_9  and  C_14
REMARK    7  A    between atoms: C_13  and  C_15
REMARK    8  A    between atoms: C_18  and  C_21
REMARK    9  A    between atoms: C_27  and  C_28
REMARK                            x       y       z     vdW  Elec       q    Type
REMARK                         _______ _______ _______ _____ _____    ______ ____
ROOT
ATOM      2  O   UNL     1      -0.869  -2.242  25.598  0.00  0.00    -0.336 OA
ATOM      6  N   UNL     1      -1.173  -0.713  23.989  0.00  0.00    -0.190 NA
ATOM      7  N   UNL     1       0.407  -1.773  25.259  0.00  0.00    -0.056 NA
ATOM     14  C   UNL     1      -1.741  -1.567  24.803  0.00  0.00    +0.245 A 
ATOM     18  C   UNL     1       0.144  -0.875  24.305  0.00  0.00    +0.207 A 
ENDROOT
BRANCH  18  21
ATOM      8  N   UNL     1       2.446   1.920  23.422  0.00  0.00    -0.221 NA
ATOM     21  C   UNL     1       1.174  -0.124  23.648  0.00  0.00    +0.084 A 
ATOM     23  C   UNL     1       1.485   1.176  24.014  0.00  0.00    +0.226 A 
ATOM     24  C   UNL     1       1.897  -0.697  22.608  0.00  0.00    +0.018 A 
ATOM     25  C   UNL     1       2.894   0.036  21.974  0.00  0.00    +0.021 A 
ATOM     26  C   UNL     1       3.128   1.329  22.415  0.00  0.00    +0.114 A 
BRANCH  23   3
ATOM      3  O   UNL     1       0.799   1.785  25.034  0.00  0.00    -0.474 OA
BRANCH   3  27
ATOM     27  C   UNL     1      -0.218   2.706  24.659  0.00  0.00    +0.258 C 
BRANCH  27  28
ATOM     28  C   UNL     1      -1.061   3.035  25.875  0.00  0.00    +0.200 C 
BRANCH  28   4
ATOM      4  O   UNL     1      -1.630   4.329  25.709  0.00  0.00    -0.380 OA
ATOM     29  C   UNL     1      -0.844   5.135  24.843  0.00  0.00    +0.194 C 
ENDBRANCH  28   4
ENDBRANCH  27  28
ENDBRANCH   3  27
ENDBRANCH  23   3
ENDBRANCH  18  21
BRANCH  14   9
ATOM      5  N   UNL     1      -4.095  -0.826  24.483  0.00  0.00    -0.287 NA
ATOM      9  C   UNL     1      -3.208  -1.898  24.978  0.00  0.00    +0.146 C 
ATOM     10  C   UNL     1      -3.633  -3.151  24.190  0.00  0.00    +0.030 C 
ATOM     11  C   UNL     1      -4.802  -2.701  23.326  0.00  0.00    +0.017 C 
ATOM     12  C   UNL     1      -5.330  -1.478  24.049  0.00  0.00    +0.085 C 
BRANCH   5  13
ATOM     13  C   UNL     1      -4.343   0.216  25.470  0.00  0.00    +0.123 C 
BRANCH  13  15
ATOM      1  F   UNL     1      -5.663   2.450  26.610  0.00  0.00    -0.205 F 
ATOM     15  C   UNL     1      -4.314   1.590  24.855  0.00  0.00    +0.002 A 
ATOM     16  C   UNL     1      -4.987   2.646  25.469  0.00  0.00    +0.128 A 
ATOM     17  C   UNL     1      -3.614   1.805  23.668  0.00  0.00    +0.008 A 
ATOM     19  C   UNL     1      -4.959   3.919  24.897  0.00  0.00    +0.038 A 
ATOM     20  C   UNL     1      -3.586   3.077  23.095  0.00  0.00    +0.000 A 
ATOM     22  C   UNL     1      -4.258   4.134  23.711  0.00  0.00    +0.003 A 
ENDBRANCH  13  15
ENDBRANCH   5  13
ENDBRANCH  14   9
TORSDOF 8
ENDMDL
MODEL 4
REMARK VINA RESULT:      -2.0      2.198      6.287
REMARK  Name = 45783412
REMARK  9 active torsions:
REMARK  status: ('A' for Active; 'I' for Inactive)
REMARK    1  A    between atoms: O_3  and  C_23
REMARK    2  A    between atoms: O_3  and  C_27
REMARK    3  A    between atoms: O_4  and  C_28
REMARK    4  A    between atoms: O_4  and  C_29
REMARK    5  A    between atoms: N_5  and  C_13
REMARK    6  A    between atoms: C_9  and  C_14
REMARK    7  A    between atoms: C_13  and  C_15
REMARK    8  A    between atoms: C_18  and  C_21
REMARK    9  A    between atoms: C_27  and  C_28
REMARK                            x       y       z     vdW  Elec       q    Type
REMARK                         _______ _______ _______ _____ _____    ______ ____
ROOT
ATOM      2  O   UNL     1      -4.008   2.215  23.848  0.00  0.00    -0.336 OA
ATOM      6  N   UNL     1      -4.195   0.640  25.430  0.00  0.00    -0.190 NA
ATOM      7  N   UNL     1      -3.499   1.037  23.288  0.00  0.00    -0.056 NA
ATOM     14  C   UNL     1      -4.396   1.894  25.111  0.00  0.00    +0.245 A 
ATOM     18  C   UNL     1      -3.643   0.155  24.281  0.00  0.00    +0.207 A 
ENDROOT
BRANCH  18  21
ATOM      8  N   UNL     1      -1.510  -2.900  24.189  0.00  0.00    -0.221 NA
ATOM     21  C   UNL     1      -3.246  -1.218  24.158  0.00  0.00    +0.084 A 
ATOM     23  C   UNL     1      -1.927  -1.619  24.297  0.00  0.00    +0.226 A 
ATOM     24  C   UNL     1      -4.198  -2.195  23.890  0.00  0.00    +0.018 A 
ATOM     25  C   UNL     1      -3.807  -3.525  23.772  0.00  0.00    +0.021 A 
ATOM     26  C   UNL     1      -2.463  -3.822  23.929  0.00  0.00    +0.114 A 
BRANCH  23   3
ATOM      3  O   UNL     1      -0.952  -0.691  24.561  0.00  0.00    -0.474 OA
BRANCH   3  27
ATOM     27  C   UNL     1       0.338  -0.949  24.020  0.00  0.00    +0.258 C 
BRANCH  27  28
ATOM     28  C   UNL     1       0.641   0.082  22.951  0.00  0.00    +0.200 C 
BRANCH  28   4
ATOM      4  O   UNL     1       1.822  -0.304  22.255  0.00  0.00    -0.380 OA
ATOM     29  C   UNL     1       2.942   0.468  22.663  0.00  0.00    +0.194 C 
ENDBRANCH  28   4
ENDBRANCH  27  28
ENDBRANCH   3  27
ENDBRANCH  23   3
ENDBRANCH  18  21
BRANCH  14   9
ATOM      5  N   UNL     1      -4.293   4.299  25.741  0.00  0.00    -0.287 NA
ATOM      9  C   UNL     1      -4.990   3.013  25.939  0.00  0.00    +0.146 C 
ATOM     10  C   UNL     1      -6.459   3.305  25.578  0.00  0.00    +0.030 C 
ATOM     11  C   UNL     1      -6.500   4.791  25.249  0.00  0.00    +0.017 C 
ATOM     12  C   UNL     1      -5.287   5.349  25.967  0.00  0.00    +0.085 C 
BRANCH   5  13
ATOM     13  C   UNL     1      -3.125   4.457  26.597  0.00  0.00    +0.123 C 
BRANCH  13  15
ATOM      1  F   UNL     1      -1.772   5.914  24.578  0.00  0.00    -0.205 F 
ATOM     15  C   UNL     1      -1.869   3.964  25.930  0.00  0.00    +0.002 A 
ATOM     16  C   UNL     1      -1.254   4.732  24.942  0.00  0.00    +0.128 A 
ATOM     17  C   UNL     1      -1.322   2.736  26.301  0.00  0.00    +0.008 A 
ATOM     19  C   UNL     1      -0.090   4.273  24.324  0.00  0.00    +0.038 A 
ATOM     20  C   UNL     1      -0.158   2.276  25.683  0.00  0.00    +0.000 A 
ATOM     22  C   UNL     1       0.459   3.045  24.696  0.00  0.00    +0.003 A 
ENDBRANCH  13  15
ENDBRANCH   5  13
ENDBRANCH  14   9
TORSDOF 8
ENDMDL
MODEL 5
REMARK VINA RESULT:      -1.9      2.005      6.030
REMARK  Name = 45783412
REMARK  9 active torsions:
REMARK  status: ('A' for Active; 'I' for Inactive)
REMARK    1  A    between atoms: O_3  and  C_23
REMARK    2  A    between atoms: O_3  and  C_27
REMARK    3  A    between atoms: O_4  and  C_28
REMARK    4  A    between atoms: O_4  and  C_29
REMARK    5  A    between atoms: N_5  and  C_13
REMARK    6  A    between atoms: C_9  and  C_14
REMARK    7  A    between atoms: C_13  and  C_15
REMARK    8  A    between atoms: C_18  and  C_21
REMARK    9  A    between atoms: C_27  and  C_28
REMARK                            x       y       z     vdW  Elec       q    Type
REMARK                         _______ _______ _______ _____ _____    ______ ____
ROOT
ATOM      2  O   UNL     1      -0.695   2.928  25.717  0.00  0.00    -0.336 OA
ATOM      6  N   UNL     1      -0.821   2.161  23.616  0.00  0.00    -0.190 NA
ATOM      7  N   UNL     1       0.554   2.362  25.434  0.00  0.00    -0.056 NA
ATOM     14  C   UNL     1      -1.445   2.767  24.596  0.00  0.00    +0.245 A 
ATOM     18  C   UNL     1       0.401   1.931  24.178  0.00  0.00    +0.207 A 
ENDROOT
BRANCH  18  21
ATOM      8  N   UNL     1       2.185  -0.558  22.055  0.00  0.00    -0.221 NA
ATOM     21  C   UNL     1       1.449   1.269  23.456  0.00  0.00    +0.084 A 
ATOM     23  C   UNL     1       1.229   0.098  22.748  0.00  0.00    +0.226 A 
ATOM     24  C   UNL     1       2.734   1.800  23.452  0.00  0.00    +0.018 A 
ATOM     25  C   UNL     1       3.745   1.153  22.749  0.00  0.00    +0.021 A 
ATOM     26  C   UNL     1       3.422  -0.012  22.073  0.00  0.00    +0.114 A 
BRANCH  23   3
ATOM      3  O   UNL     1      -0.022  -0.464  22.722  0.00  0.00    -0.474 OA
BRANCH   3  27
ATOM     27  C   UNL     1      -0.275  -1.501  23.663  0.00  0.00    +0.258 C 
BRANCH  27  28
ATOM     28  C   UNL     1      -0.513  -0.884  25.027  0.00  0.00    +0.200 C 
BRANCH  28   4
ATOM      4  O   UNL     1      -0.179  -1.837  26.031  0.00  0.00    -0.380 OA
ATOM     29  C   UNL     1       0.484  -2.964  25.478  0.00  0.00    +0.194 C 
ENDBRANCH  28   4
ENDBRANCH  27  28
ENDBRANCH   3  27
ENDBRANCH  23   3
ENDBRANCH  18  21
BRANCH  14   9
ATOM      5  N   UNL     1      -3.812   2.340  25.233  0.00  0.00    -0.287 NA
ATOM      9  C   UNL     1      -2.859   3.304  24.646  0.00  0.00    +0.146 C 
ATOM     10  C   UNL     1      -2.987   4.562  25.525  0.00  0.00    +0.030 C 
ATOM     11  C   UNL     1      -4.075   4.234  26.537  0.00  0.00    +0.017 C 
ATOM     12  C   UNL     1      -4.869   3.133  25.862  0.00  0.00    +0.085 C 
BRANCH   5  13
ATOM     13  C   UNL     1      -4.342   1.392  24.262  0.00  0.00    +0.123 C 
BRANCH  13  15
ATOM      1  F   UNL     1      -4.119  -0.705  22.370  0.00  0.00    -0.205 F 
ATOM     15  C   UNL     1      -4.041  -0.032  24.646  0.00  0.00    +0.002 A 
ATOM     16  C   UNL     1      -3.945  -1.016  23.662  0.00  0.00    +0.128 A 
ATOM     17  C   UNL     1      -3.859  -0.366  25.987  0.00  0.00    +0.008 A 
ATOM     19  C   UNL     1      -3.666  -2.336  24.020  0.00  0.00    +0.038 A 
ATOM     20  C   UNL     1      -3.580  -1.685  26.346  0.00  0.00    +0.000 A 
ATOM     22  C   UNL     1      -3.483  -2.670  25.362  0.00  0.00    +0.003 A 
ENDBRANCH  13  15
ENDBRANCH   5  13
ENDBRANCH  14   9
TORSDOF 8
ENDMDL
MODEL 6
REMARK VINA RESULT:      -1.9      2.080      5.637
REMARK  Name = 45783412
REMARK  9 active torsions:
REMARK  status: ('A' for Active; 'I' for Inactive)
REMARK    1  A    between atoms: O_3  and  C_23
REMARK    2  A    between atoms: O_3  and  C_27
REMARK    3  A    between atoms: O_4  and  C_28
REMARK    4  A    between atoms: O_4  and  C_29
REMARK    5  A    between atoms: N_5  and  C_13
REMARK    6  A    between atoms: C_9  and  C_14
REMARK    7  A    between atoms: C_13  and  C_15
REMARK    8  A    between atoms: C_18  and  C_21
REMARK    9  A    between atoms: C_27  and  C_28
REMARK                            x       y       z     vdW  Elec       q    Type
REMARK                         _______ _______ _______ _____ _____    ______ ____
ROOT
ATOM      2  O   UNL     1      -0.853   2.358  25.859  0.00  0.00    -0.336 OA
ATOM      6  N   UNL     1      -1.978   1.508  24.118  0.00  0.00    -0.190 NA
ATOM      7  N   UNL     1      -0.982   0.986  26.111  0.00  0.00    -0.056 NA
ATOM     14  C   UNL     1      -1.467   2.581  24.668  0.00  0.00    +0.245 A 
ATOM     18  C   UNL     1      -1.656   0.555  25.040  0.00  0.00    +0.207 A 
ENDROOT
BRANCH  18  21
ATOM      8  N   UNL     1      -1.425  -3.074  24.226  0.00  0.00    -0.221 NA
ATOM     21  C   UNL     1      -2.023  -0.820  24.861  0.00  0.00    +0.084 A 
ATOM     23  C   UNL     1      -1.122  -1.770  24.409  0.00  0.00    +0.226 A 
ATOM     24  C   UNL     1      -3.320  -1.235  25.144  0.00  0.00    +0.018 A 
ATOM     25  C   UNL     1      -3.670  -2.570  24.968  0.00  0.00    +0.021 A 
ATOM     26  C   UNL     1      -2.695  -3.442  24.511  0.00  0.00    +0.114 A 
BRANCH  23   3
ATOM      3  O   UNL     1       0.168  -1.408  24.115  0.00  0.00    -0.474 OA
BRANCH   3  27
ATOM     27  C   UNL     1       0.368  -0.671  22.916  0.00  0.00    +0.258 C 
BRANCH  27  28
ATOM     28  C   UNL     1       1.448   0.368  23.146  0.00  0.00    +0.200 C 
BRANCH  28   4
ATOM      4  O   UNL     1       2.567   0.065  22.321  0.00  0.00    -0.380 OA
ATOM     29  C   UNL     1       3.718   0.797  22.717  0.00  0.00    +0.194 C 
ENDBRANCH  28   4
ENDBRANCH  27  28
ENDBRANCH   3  27
ENDBRANCH  23   3
ENDBRANCH  18  21
BRANCH  14   9
ATOM      5  N   UNL     1      -2.459   4.856  24.855  0.00  0.00    -0.287 NA
ATOM      9  C   UNL     1      -1.465   4.009  24.165  0.00  0.00    +0.146 C 
ATOM     10  C   UNL     1      -0.118   4.720  24.397  0.00  0.00    +0.030 C 
ATOM     11  C   UNL     1      -0.463   5.984  25.172  0.00  0.00    +0.017 C 
ATOM     12  C   UNL     1      -1.924   6.218  24.841  0.00  0.00    +0.085 C 
BRANCH   5  13
ATOM     13  C   UNL     1      -3.787   4.783  24.261  0.00  0.00    +0.123 C 
BRANCH  13  15
ATOM      1  F   UNL     1      -4.264   2.436  22.746  0.00  0.00    -0.205 F 
ATOM     15  C   UNL     1      -4.573   3.611  24.786  0.00  0.00    +0.002 A 
ATOM     16  C   UNL     1      -4.771   2.486  23.987  0.00  0.00    +0.128 A 
ATOM     17  C   UNL     1      -5.104   3.653  26.075  0.00  0.00    +0.008 A 
ATOM     19  C   UNL     1      -5.500   1.401  24.476  0.00  0.00    +0.038 A 
ATOM     20  C   UNL     1      -5.833   2.569  26.565  0.00  0.00    +0.000 A 
ATOM     22  C   UNL     1      -6.030   1.443  25.765  0.00  0.00    +0.003 A 
ENDBRANCH  13  15
ENDBRANCH   5  13
ENDBRANCH  14   9
TORSDOF 8
ENDMDL
MODEL 7
REMARK VINA RESULT:      -1.6      2.194      5.223
REMARK  Name = 45783412
REMARK  9 active torsions:
REMARK  status: ('A' for Active; 'I' for Inactive)
REMARK    1  A    between atoms: O_3  and  C_23
REMARK    2  A    between atoms: O_3  and  C_27
REMARK    3  A    between atoms: O_4  and  C_28
REMARK    4  A    between atoms: O_4  and  C_29
REMARK    5  A    between atoms: N_5  and  C_13
REMARK    6  A    between atoms: C_9  and  C_14
REMARK    7  A    between atoms: C_13  and  C_15
REMARK    8  A    between atoms: C_18  and  C_21
REMARK    9  A    between atoms: C_27  and  C_28
REMARK                            x       y       z     vdW  Elec       q    Type
REMARK                         _______ _______ _______ _____ _____    ______ ____
ROOT
ATOM      2  O   UNL     1      -1.321  -0.410  26.319  0.00  0.00    -0.336 OA
ATOM      6  N   UNL     1      -2.460   0.974  24.975  0.00  0.00    -0.190 NA
ATOM      7  N   UNL     1      -0.597   0.789  26.289  0.00  0.00    -0.056 NA
ATOM     14  C   UNL     1      -2.402  -0.216  25.519  0.00  0.00    +0.245 A 
ATOM     18  C   UNL     1      -1.331   1.554  25.476  0.00  0.00    +0.207 A 
ENDROOT
BRANCH  18  21
ATOM      8  N   UNL     1       0.546   4.449  24.067  0.00  0.00    -0.221 NA
ATOM     21  C   UNL     1      -0.966   2.901  25.145  0.00  0.00    +0.084 A 
ATOM     23  C   UNL     1       0.165   3.196  24.402  0.00  0.00    +0.226 A 
ATOM     24  C   UNL     1      -1.759   3.961  25.572  0.00  0.00    +0.018 A 
ATOM     25  C   UNL     1      -1.400   5.264  25.247  0.00  0.00    +0.021 A 
ATOM     26  C   UNL     1      -0.249   5.453  24.499  0.00  0.00    +0.114 A 
BRANCH  23   3
ATOM      3  O   UNL     1       0.979   2.184  23.959  0.00  0.00    -0.474 OA
BRANCH   3  27
ATOM     27  C   UNL     1       0.370   1.179  23.159  0.00  0.00    +0.258 C 
BRANCH  27  28
ATOM     28  C   UNL     1       1.256  -0.051  23.149  0.00  0.00    +0.200 C 
BRANCH  28   4
ATOM      4  O   UNL     1       2.229   0.085  22.118  0.00  0.00    -0.380 OA
ATOM     29  C   UNL     1       3.476   0.526  22.635  0.00  0.00    +0.194 C 
ENDBRANCH  28   4
ENDBRANCH  27  28
ENDBRANCH   3  27
ENDBRANCH  23   3
ENDBRANCH  18  21
BRANCH  14   9
ATOM      5  N   UNL     1      -4.332  -1.193  24.288  0.00  0.00    -0.287 NA
ATOM      9  C   UNL     1      -3.358  -1.382  25.382  0.00  0.00    +0.146 C 
ATOM     10  C   UNL     1      -2.641  -2.702  25.042  0.00  0.00    +0.030 C 
ATOM     11  C   UNL     1      -3.319  -3.210  23.778  0.00  0.00    +0.017 C 
ATOM     12  C   UNL     1      -4.673  -2.530  23.802  0.00  0.00    +0.085 C 
BRANCH   5  13
ATOM     13  C   UNL     1      -5.510  -0.439  24.692  0.00  0.00    +0.123 C 
BRANCH  13  15
ATOM      1  F   UNL     1      -6.429   1.311  26.724  0.00  0.00    -0.205 F 
ATOM     15  C   UNL     1      -5.260   1.046  24.673  0.00  0.00    +0.002 A 
ATOM     16  C   UNL     1      -5.742   1.850  25.706  0.00  0.00    +0.128 A 
ATOM     17  C   UNL     1      -4.547   1.617  23.620  0.00  0.00    +0.008 A 
ATOM     19  C   UNL     1      -5.509   3.226  25.687  0.00  0.00    +0.038 A 
ATOM     20  C   UNL     1      -4.313   2.992  23.599  0.00  0.00    +0.000 A 
ATOM     22  C   UNL     1      -4.794   3.796  24.634  0.00  0.00    +0.003 A 
ENDBRANCH  13  15
ENDBRANCH   5  13
ENDBRANCH  14   9
TORSDOF 8
ENDMDL
MODEL 8
REMARK VINA RESULT:      -0.4      1.381      2.814
REMARK  Name = 45783412
REMARK  9 active torsions:
REMARK  status: ('A' for Active; 'I' for Inactive)
REMARK    1  A    between atoms: O_3  and  C_23
REMARK    2  A    between atoms: O_3  and  C_27
REMARK    3  A    between atoms: O_4  and  C_28
REMARK    4  A    between atoms: O_4  and  C_29
REMARK    5  A    between atoms: N_5  and  C_13
REMARK    6  A    between atoms: C_9  and  C_14
REMARK    7  A    between atoms: C_13  and  C_15
REMARK    8  A    between atoms: C_18  and  C_21
REMARK    9  A    between atoms: C_27  and  C_28
REMARK                            x       y       z     vdW  Elec       q    Type
REMARK                         _______ _______ _______ _____ _____    ______ ____
ROOT
ATOM      2  O   UNL     1       0.827   2.373  25.779  0.00  0.00    -0.336 OA
ATOM      6  N   UNL     1      -0.898   1.893  24.433  0.00  0.00    -0.190 NA
ATOM      7  N   UNL     1      -0.208   3.243  26.145  0.00  0.00    -0.056 NA
ATOM     14  C   UNL     1       0.338   1.613  24.764  0.00  0.00    +0.245 A 
ATOM     18  C   UNL     1      -1.190   2.899  25.307  0.00  0.00    +0.207 A 
ENDROOT
BRANCH  18  21
ATOM      8  N   UNL     1      -4.619   3.929  24.273  0.00  0.00    -0.221 NA
ATOM     21  C   UNL     1      -2.473   3.539  25.316  0.00  0.00    +0.084 A 
ATOM     23  C   UNL     1      -3.400   3.347  24.304  0.00  0.00    +0.226 A 
ATOM     24  C   UNL     1      -2.822   4.383  26.365  0.00  0.00    +0.018 A 
ATOM     25  C   UNL     1      -4.067   5.000  26.368  0.00  0.00    +0.021 A 
ATOM     26  C   UNL     1      -4.923   4.743  25.309  0.00  0.00    +0.114 A 
BRANCH  23   3
ATOM      3  O   UNL     1      -3.102   2.523  23.248  0.00  0.00    -0.474 OA
BRANCH   3  27
ATOM     27  C   UNL     1      -3.712   1.239  23.248  0.00  0.00    +0.258 C 
BRANCH  27  28
ATOM     28  C   UNL     1      -4.296   0.967  24.620  0.00  0.00    +0.200 C 
BRANCH  28   4
ATOM      4  O   UNL     1      -5.712   1.099  24.556  0.00  0.00    -0.380 OA
ATOM     29  C   UNL     1      -6.260   1.445  25.820  0.00  0.00    +0.194 C 
ENDBRANCH  28   4
ENDBRANCH  27  28
ENDBRANCH   3  27
ENDBRANCH  23   3
ENDBRANCH  18  21
BRANCH  14   9
ATOM      5  N   UNL     1       0.564  -0.596  23.642  0.00  0.00    -0.287 NA
ATOM      9  C   UNL     1       1.277   0.579  24.183  0.00  0.00    +0.146 C 
ATOM     10  C   UNL     1       2.097   1.118  22.995  0.00  0.00    +0.030 C 
ATOM     11  C   UNL     1       1.828   0.150  21.853  0.00  0.00    +0.017 C 
ATOM     12  C   UNL     1       1.394  -1.120  22.557  0.00  0.00    +0.085 C 
BRANCH   5  13
ATOM     13  C   UNL     1       0.277  -1.608  24.650  0.00  0.00    +0.123 C 
BRANCH  13  15
ATOM      1  F   UNL     1      -1.160  -0.414  26.781  0.00  0.00    -0.205 F 
ATOM     15  C   UNL     1      -1.203  -1.796  24.850  0.00  0.00    +0.002 A 
ATOM     16  C   UNL     1      -1.849  -1.179  25.921  0.00  0.00    +0.128 A 
ATOM     17  C   UNL     1      -1.929  -2.590  23.962  0.00  0.00    +0.008 A 
ATOM     19  C   UNL     1      -3.221  -1.355  26.104  0.00  0.00    +0.038 A 
ATOM     20  C   UNL     1      -3.300  -2.767  24.144  0.00  0.00    +0.000 A 
ATOM     22  C   UNL     1      -3.947  -2.148  25.216  0.00  0.00    +0.003 A 
ENDBRANCH  13  15
ENDBRANCH   5  13
ENDBRANCH  14   9
TORSDOF 8
ENDMDL
