MODEL 1
REMARK VINA RESULT:      -1.7      0.000      0.000
REMARK  Name = 26744154
REMARK  7 active torsions:
REMARK  status: ('A' for Active; 'I' for Inactive)
REMARK    1  A    between atoms: O_1  and  C_10
REMARK    2  A    between atoms: O_3  and  C_28
REMARK    3  A    between atoms: O_3  and  C_29
REMARK    4  A    between atoms: N_4  and  C_12
REMARK    5  A    between atoms: C_8  and  C_13
REMARK    6  A    between atoms: C_12  and  C_14
REMARK    7  A    between atoms: C_18  and  C_22
REMARK                            x       y       z     vdW  Elec       q    Type
REMARK                         _______ _______ _______ _____ _____    ______ ____
ROOT
ATOM      4  N   UNL     1      -4.821   2.239  25.461  0.00  0.00    -0.285 NA
ATOM      8  C   UNL     1      -4.203   2.978  24.343  0.00  0.00    +0.149 C 
ATOM      9  C   UNL     1      -4.658   4.437  24.535  0.00  0.00    +0.061 C 
ATOM     10  C   UNL     1      -5.565   4.408  25.760  0.00  0.00    +0.130 C 
ATOM     11  C   UNL     1      -6.037   2.968  25.819  0.00  0.00    +0.116 C 
ENDROOT
BRANCH   8  13
ATOM      2  O   UNL     1      -1.982   3.805  24.939  0.00  0.00    -0.336 OA
ATOM      5  N   UNL     1      -1.963   1.901  23.758  0.00  0.00    -0.190 NA
ATOM      7  N   UNL     1      -0.633   3.460  24.775  0.00  0.00    -0.056 NA
ATOM     13  C   UNL     1      -2.696   2.835  24.310  0.00  0.00    +0.245 A 
ATOM     18  C   UNL     1      -0.705   2.328  24.070  0.00  0.00    +0.202 A 
BRANCH  18  22
ATOM     22  C   UNL     1       0.460   1.598  23.662  0.00  0.00    +0.023 A 
ATOM     24  C   UNL     1       0.356   0.249  23.324  0.00  0.00    +0.015 A 
ATOM     25  C   UNL     1       1.699   2.237  23.605  0.00  0.00    +0.015 A 
ATOM     26  C   UNL     1       1.491  -0.460  22.929  0.00  0.00    +0.046 A 
ATOM     27  C   UNL     1       2.833   1.528  23.210  0.00  0.00    +0.046 A 
ATOM     28  C   UNL     1       2.729   0.179  22.871  0.00  0.00    +0.120 A 
BRANCH  28   3
ATOM      3  O   UNL     1       3.835  -0.512  22.486  0.00  0.00    -0.495 OA
ATOM     29  C   UNL     1       5.056  -0.209  23.158  0.00  0.00    +0.277 C 
ENDBRANCH  28   3
ENDBRANCH  18  22
ENDBRANCH   8  13
BRANCH  10   1
ATOM      1  O   UNL     1      -6.645   5.308  25.606  0.00  0.00    -0.390 OA
ATOM     30  H   UNL     1      -6.307   6.093  25.142  0.00  0.00    +0.210 HD
ENDBRANCH  10   1
BRANCH   4  12
ATOM     12  C   UNL     1      -5.093   0.842  25.146  0.00  0.00    +0.122 C 
BRANCH  12  14
ATOM      6  N   UNL     1      -1.848  -0.732  25.872  0.00  0.00    -0.360 N 
ATOM     14  C   UNL     1      -3.858  -0.011  25.271  0.00  0.00    -0.008 A 
ATOM     15  C   UNL     1      -3.628  -1.265  24.639  0.00  0.00    +0.004 A 
ATOM     16  C   UNL     1      -2.745   0.290  26.021  0.00  0.00    +0.088 A 
ATOM     17  C   UNL     1      -2.360  -1.696  25.033  0.00  0.00    +0.047 A 
ATOM     19  C   UNL     1      -4.381  -2.078  23.768  0.00  0.00    +0.010 A 
ATOM     20  C   UNL     1      -1.803  -2.903  24.598  0.00  0.00    +0.026 A 
ATOM     21  C   UNL     1      -3.836  -3.288  23.324  0.00  0.00    +0.001 A 
ATOM     23  C   UNL     1      -2.567  -3.694  23.734  0.00  0.00    +0.002 A 
ATOM     31  H   UNL     1      -0.939  -0.775  26.315  0.00  0.00    +0.165 HD
ENDBRANCH  12  14
ENDBRANCH   4  12
TORSDOF 6
ENDMDL
MODEL 2
REMARK VINA RESULT:      -1.6      2.327      4.991
REMARK  Name = 26744154
REMARK  7 active torsions:
REMARK  status: ('A' for Active; 'I' for Inactive)
REMARK    1  A    between atoms: O_1  and  C_10
REMARK    2  A    between atoms: O_3  and  C_28
REMARK    3  A    between atoms: O_3  and  C_29
REMARK    4  A    between atoms: N_4  and  C_12
REMARK    5  A    between atoms: C_8  and  C_13
REMARK    6  A    between atoms: C_12  and  C_14
REMARK    7  A    between atoms: C_18  and  C_22
REMARK                            x       y       z     vdW  Elec       q    Type
REMARK                         _______ _______ _______ _____ _____    ______ ____
ROOT
ATOM      4  N   UNL     1      -3.327  -0.561  24.616  0.00  0.00    -0.285 NA
ATOM      8  C   UNL     1      -2.136  -1.429  24.703  0.00  0.00    +0.149 C 
ATOM      9  C   UNL     1      -2.537  -2.723  23.970  0.00  0.00    +0.061 C 
ATOM     10  C   UNL     1      -3.985  -2.503  23.547  0.00  0.00    +0.130 C 
ATOM     11  C   UNL     1      -4.483  -1.451  24.519  0.00  0.00    +0.116 C 
ENDROOT
BRANCH   8  13
ATOM      2  O   UNL     1      -1.103   0.258  23.269  0.00  0.00    -0.336 OA
ATOM      5  N   UNL     1       0.362  -1.082  24.305  0.00  0.00    -0.190 NA
ATOM      7  N   UNL     1       0.169   0.682  22.863  0.00  0.00    -0.056 NA
ATOM     13  C   UNL     1      -0.899  -0.784  24.117  0.00  0.00    +0.245 A 
ATOM     18  C   UNL     1       0.978  -0.156  23.516  0.00  0.00    +0.202 A 
BRANCH  18  22
ATOM     22  C   UNL     1       2.407  -0.094  23.402  0.00  0.00    +0.023 A 
ATOM     24  C   UNL     1       3.186  -1.179  23.805  0.00  0.00    +0.015 A 
ATOM     25  C   UNL     1       3.017   1.050  22.889  0.00  0.00    +0.015 A 
ATOM     26  C   UNL     1       4.575  -1.117  23.696  0.00  0.00    +0.046 A 
ATOM     27  C   UNL     1       4.406   1.112  22.779  0.00  0.00    +0.046 A 
ATOM     28  C   UNL     1       5.186   0.028  23.183  0.00  0.00    +0.120 A 
BRANCH  28   3
ATOM      3  O   UNL     1       6.540   0.088  23.076  0.00  0.00    -0.495 OA
ATOM     29  C   UNL     1       7.208  -1.086  22.616  0.00  0.00    +0.277 C 
ENDBRANCH  28   3
ENDBRANCH  18  22
ENDBRANCH   8  13
BRANCH  10   1
ATOM      1  O   UNL     1      -4.726  -3.704  23.649  0.00  0.00    -0.390 OA
ATOM     30  H   UNL     1      -5.637  -3.508  23.373  0.00  0.00    +0.210 HD
ENDBRANCH  10   1
BRANCH   4  12
ATOM     12  C   UNL     1      -3.443   0.368  25.733  0.00  0.00    +0.122 C 
BRANCH  12  14
ATOM      6  N   UNL     1      -4.259   3.726  24.470  0.00  0.00    -0.360 N 
ATOM     14  C   UNL     1      -3.501   1.799  25.268  0.00  0.00    -0.008 A 
ATOM     15  C   UNL     1      -2.423   2.727  25.248  0.00  0.00    +0.004 A 
ATOM     16  C   UNL     1      -4.616   2.443  24.784  0.00  0.00    +0.088 A 
ATOM     17  C   UNL     1      -2.925   3.929  24.743  0.00  0.00    +0.047 A 
ATOM     19  C   UNL     1      -1.062   2.660  25.613  0.00  0.00    +0.010 A 
ATOM     20  C   UNL     1      -2.133   5.071  24.584  0.00  0.00    +0.026 A 
ATOM     21  C   UNL     1      -0.259   3.795  25.459  0.00  0.00    +0.001 A 
ATOM     23  C   UNL     1      -0.787   4.981  24.952  0.00  0.00    +0.002 A 
ATOM     31  H   UNL     1      -4.884   4.426  24.094  0.00  0.00    +0.165 HD
ENDBRANCH  12  14
ENDBRANCH   4  12
TORSDOF 6
ENDMDL
MODEL 3
REMARK VINA RESULT:      -1.1      1.107      1.782
REMARK  Name = 26744154
REMARK  7 active torsions:
REMARK  status: ('A' for Active; 'I' for Inactive)
REMARK    1  A    between atoms: O_1  and  C_10
REMARK    2  A    between atoms: O_3  and  C_28
REMARK    3  A    between atoms: O_3  and  C_29
REMARK    4  A    between atoms: N_4  and  C_12
REMARK    5  A    between atoms: C_8  and  C_13
REMARK    6  A    between atoms: C_12  and  C_14
REMARK    7  A    between atoms: C_18  and  C_22
REMARK                            x       y       z     vdW  Elec       q    Type
REMARK                         _______ _______ _______ _____ _____    ______ ____
ROOT
ATOM      4  N   UNL     1      -4.528   1.503  24.564  0.00  0.00    -0.285 NA
ATOM      8  C   UNL     1      -3.875   2.720  24.043  0.00  0.00    +0.149 C 
ATOM      9  C   UNL     1      -4.418   3.865  24.919  0.00  0.00    +0.061 C 
ATOM     10  C   UNL     1      -5.403   3.198  25.872  0.00  0.00    +0.130 C 
ATOM     11  C   UNL     1      -5.802   1.931  25.140  0.00  0.00    +0.116 C 
ENDROOT
BRANCH   8  13
ATOM      2  O   UNL     1      -1.713   3.571  24.802  0.00  0.00    -0.336 OA
ATOM      5  N   UNL     1      -1.574   1.765  23.483  0.00  0.00    -0.190 NA
ATOM      7  N   UNL     1      -0.348   3.284  24.676  0.00  0.00    -0.056 NA
ATOM     13  C   UNL     1      -2.364   2.629  24.070  0.00  0.00    +0.245 A 
ATOM     18  C   UNL     1      -0.348   2.208  23.885  0.00  0.00    +0.202 A 
BRANCH  18  22
ATOM     22  C   UNL     1       0.861   1.550  23.477  0.00  0.00    +0.023 A 
ATOM     24  C   UNL     1       0.825   0.217  23.067  0.00  0.00    +0.015 A 
ATOM     25  C   UNL     1       2.071   2.243  23.493  0.00  0.00    +0.015 A 
ATOM     26  C   UNL     1       2.001  -0.421  22.673  0.00  0.00    +0.046 A 
ATOM     27  C   UNL     1       3.246   1.604  23.098  0.00  0.00    +0.046 A 
ATOM     28  C   UNL     1       3.211   0.271  22.688  0.00  0.00    +0.120 A 
BRANCH  28   3
ATOM      3  O   UNL     1       4.358  -0.351  22.303  0.00  0.00    -0.495 OA
ATOM     29  C   UNL     1       5.495  -0.198  23.151  0.00  0.00    +0.277 C 
ENDBRANCH  28   3
ENDBRANCH  18  22
ENDBRANCH   8  13
BRANCH  10   1
ATOM      1  O   UNL     1      -6.516   4.037  26.112  0.00  0.00    -0.390 OA
ATOM     30  H   UNL     1      -7.301   3.467  26.185  0.00  0.00    +0.210 HD
ENDBRANCH  10   1
BRANCH   4  12
ATOM     12  C   UNL     1      -4.704   0.469  23.553  0.00  0.00    +0.122 C 
BRANCH  12  14
ATOM      6  N   UNL     1      -3.580  -2.983  24.156  0.00  0.00    -0.360 N 
ATOM     14  C   UNL     1      -4.031  -0.820  23.946  0.00  0.00    -0.008 A 
ATOM     15  C   UNL     1      -2.849  -0.954  24.726  0.00  0.00    +0.004 A 
ATOM     16  C   UNL     1      -4.457  -2.084  23.611  0.00  0.00    +0.088 A 
ATOM     17  C   UNL     1      -2.588  -2.321  24.843  0.00  0.00    +0.047 A 
ATOM     19  C   UNL     1      -1.972  -0.040  25.346  0.00  0.00    +0.010 A 
ATOM     20  C   UNL     1      -1.490  -2.823  25.551  0.00  0.00    +0.026 A 
ATOM     21  C   UNL     1      -0.871  -0.528  26.058  0.00  0.00    +0.001 A 
ATOM     23  C   UNL     1      -0.634  -1.898  26.158  0.00  0.00    +0.002 A 
ATOM     31  H   UNL     1      -3.650  -3.988  24.067  0.00  0.00    +0.165 HD
ENDBRANCH  12  14
ENDBRANCH   4  12
TORSDOF 6
ENDMDL
MODEL 4
REMARK VINA RESULT:      -1.1     14.412     17.623
REMARK  Name = 26744154
REMARK  7 active torsions:
REMARK  status: ('A' for Active; 'I' for Inactive)
REMARK    1  A    between atoms: O_1  and  C_10
REMARK    2  A    between atoms: O_3  and  C_28
REMARK    3  A    between atoms: O_3  and  C_29
REMARK    4  A    between atoms: N_4  and  C_12
REMARK    5  A    between atoms: C_8  and  C_13
REMARK    6  A    between atoms: C_12  and  C_14
REMARK    7  A    between atoms: C_18  and  C_22
REMARK                            x       y       z     vdW  Elec       q    Type
REMARK                         _______ _______ _______ _____ _____    ______ ____
ROOT
ATOM      4  N   UNL     1      -2.501 -10.306  11.756  0.00  0.00    -0.285 NA
ATOM      8  C   UNL     1      -2.696  -8.879  11.435  0.00  0.00    +0.149 C 
ATOM      9  C   UNL     1      -1.331  -8.404  10.902  0.00  0.00    +0.061 C 
ATOM     10  C   UNL     1      -0.423  -9.624  11.006  0.00  0.00    +0.130 C 
ATOM     11  C   UNL     1      -1.084 -10.469  12.077  0.00  0.00    +0.116 C 
ENDROOT
BRANCH   8  13
ATOM      2  O   UNL     1      -3.688  -9.243   9.231  0.00  0.00    -0.336 OA
ATOM      5  N   UNL     1      -4.922  -7.957  10.588  0.00  0.00    -0.190 NA
ATOM      7  N   UNL     1      -4.833  -8.893   8.503  0.00  0.00    -0.056 NA
ATOM     13  C   UNL     1      -3.821  -8.651  10.447  0.00  0.00    +0.245 A 
ATOM     18  C   UNL     1      -5.510  -8.136   9.370  0.00  0.00    +0.202 A 
BRANCH  18  22
ATOM     22  C   UNL     1      -6.777  -7.543   9.051  0.00  0.00    +0.023 A 
ATOM     24  C   UNL     1      -7.935  -8.320   9.069  0.00  0.00    +0.015 A 
ATOM     25  C   UNL     1      -6.851  -6.190   8.722  0.00  0.00    +0.015 A 
ATOM     26  C   UNL     1      -9.166  -7.743   8.758  0.00  0.00    +0.046 A 
ATOM     27  C   UNL     1      -8.082  -5.613   8.410  0.00  0.00    +0.046 A 
ATOM     28  C   UNL     1      -9.240  -6.390   8.428  0.00  0.00    +0.120 A 
BRANCH  28   3
ATOM      3  O   UNL     1     -10.441  -5.827   8.124  0.00  0.00    -0.495 OA
ATOM     29  C   UNL     1     -10.719  -4.548   8.690  0.00  0.00    +0.277 C 
ENDBRANCH  28   3
ENDBRANCH  18  22
ENDBRANCH   8  13
BRANCH  10   1
ATOM      1  O   UNL     1       0.889  -9.243  11.374  0.00  0.00    -0.390 OA
ATOM     30  H   UNL     1       1.428  -9.236  10.564  0.00  0.00    +0.210 HD
ENDBRANCH  10   1
BRANCH   4  12
ATOM     12  C   UNL     1      -3.365 -10.775  12.832  0.00  0.00    +0.122 C 
BRANCH  12  14
ATOM      6  N   UNL     1      -1.072 -10.689  15.708  0.00  0.00    -0.360 N 
ATOM     14  C   UNL     1      -2.666 -10.743  14.166  0.00  0.00    -0.008 A 
ATOM     15  C   UNL     1      -3.286 -10.742  15.446  0.00  0.00    +0.004 A 
ATOM     16  C   UNL     1      -1.305 -10.711  14.360  0.00  0.00    +0.088 A 
ATOM     17  C   UNL     1      -2.264 -10.708  16.397  0.00  0.00    +0.047 A 
ATOM     19  C   UNL     1      -4.624 -10.766  15.890  0.00  0.00    +0.010 A 
ATOM     20  C   UNL     1      -2.512 -10.696  17.774  0.00  0.00    +0.026 A 
ATOM     21  C   UNL     1      -4.887 -10.755  17.264  0.00  0.00    +0.001 A 
ATOM     23  C   UNL     1      -3.847 -10.721  18.190  0.00  0.00    +0.002 A 
ATOM     31  H   UNL     1      -0.156 -10.662  16.138  0.00  0.00    +0.165 HD
ENDBRANCH  12  14
ENDBRANCH   4  12
TORSDOF 6
ENDMDL
MODEL 5
REMARK VINA RESULT:      -1.0      1.965      2.947
REMARK  Name = 26744154
REMARK  7 active torsions:
REMARK  status: ('A' for Active; 'I' for Inactive)
REMARK    1  A    between atoms: O_1  and  C_10
REMARK    2  A    between atoms: O_3  and  C_28
REMARK    3  A    between atoms: O_3  and  C_29
REMARK    4  A    between atoms: N_4  and  C_12
REMARK    5  A    between atoms: C_8  and  C_13
REMARK    6  A    between atoms: C_12  and  C_14
REMARK    7  A    between atoms: C_18  and  C_22
REMARK                            x       y       z     vdW  Elec       q    Type
REMARK                         _______ _______ _______ _____ _____    ______ ____
ROOT
ATOM      4  N   UNL     1      -1.879   2.711  25.280  0.00  0.00    -0.285 NA
ATOM      8  C   UNL     1      -1.367   2.866  23.904  0.00  0.00    +0.149 C 
ATOM      9  C   UNL     1      -0.856   4.317  23.835  0.00  0.00    +0.061 C 
ATOM     10  C   UNL     1      -1.166   4.910  25.205  0.00  0.00    +0.130 C 
ATOM     11  C   UNL     1      -2.297   4.042  25.719  0.00  0.00    +0.116 C 
ENDROOT
BRANCH   8  13
ATOM      2  O   UNL     1      -0.683   0.801  22.791  0.00  0.00    -0.336 OA
ATOM      5  N   UNL     1       0.967   1.832  23.901  0.00  0.00    -0.190 NA
ATOM      7  N   UNL     1       0.461   0.012  22.612  0.00  0.00    -0.056 NA
ATOM     13  C   UNL     1      -0.297   1.852  23.561  0.00  0.00    +0.245 A 
ATOM     18  C   UNL     1       1.390   0.685  23.296  0.00  0.00    +0.202 A 
BRANCH  18  22
ATOM     22  C   UNL     1       2.750   0.239  23.392  0.00  0.00    +0.023 A 
ATOM     24  C   UNL     1       3.795   1.134  23.160  0.00  0.00    +0.015 A 
ATOM     25  C   UNL     1       3.028  -1.088  23.717  0.00  0.00    +0.015 A 
ATOM     26  C   UNL     1       5.118   0.699  23.253  0.00  0.00    +0.046 A 
ATOM     27  C   UNL     1       4.350  -1.523  23.810  0.00  0.00    +0.046 A 
ATOM     28  C   UNL     1       5.395  -0.628  23.578  0.00  0.00    +0.120 A 
BRANCH  28   3
ATOM      3  O   UNL     1       6.685  -1.052  23.668  0.00  0.00    -0.495 OA
ATOM     29  C   UNL     1       7.643  -0.397  22.840  0.00  0.00    +0.277 C 
ENDBRANCH  28   3
ENDBRANCH  18  22
ENDBRANCH   8  13
BRANCH  10   1
ATOM      1  O   UNL     1      -1.554   6.265  25.090  0.00  0.00    -0.390 OA
ATOM     30  H   UNL     1      -1.218   6.593  24.238  0.00  0.00    +0.210 HD
ENDBRANCH  10   1
BRANCH   4  12
ATOM     12  C   UNL     1      -2.956   1.735  25.385  0.00  0.00    +0.122 C 
BRANCH  12  14
ATOM      6  N   UNL     1      -1.139  -1.448  25.701  0.00  0.00    -0.360 N 
ATOM     14  C   UNL     1      -2.435   0.322  25.373  0.00  0.00    -0.008 A 
ATOM     15  C   UNL     1      -3.075  -0.810  24.796  0.00  0.00    +0.004 A 
ATOM     16  C   UNL     1      -1.247  -0.102  25.920  0.00  0.00    +0.088 A 
ATOM     17  C   UNL     1      -2.240  -1.908  25.016  0.00  0.00    +0.047 A 
ATOM     19  C   UNL     1      -4.288  -1.008  24.106  0.00  0.00    +0.010 A 
ATOM     20  C   UNL     1      -2.559  -3.199  24.579  0.00  0.00    +0.026 A 
ATOM     21  C   UNL     1      -4.619  -2.293  23.663  0.00  0.00    +0.001 A 
ATOM     23  C   UNL     1      -3.768  -3.371  23.897  0.00  0.00    +0.002 A 
ATOM     31  H   UNL     1      -0.362  -2.024  25.999  0.00  0.00    +0.165 HD
ENDBRANCH  12  14
ENDBRANCH   4  12
TORSDOF 6
ENDMDL
MODEL 6
REMARK VINA RESULT:      -0.6     15.443     18.172
REMARK  Name = 26744154
REMARK  7 active torsions:
REMARK  status: ('A' for Active; 'I' for Inactive)
REMARK    1  A    between atoms: O_1  and  C_10
REMARK    2  A    between atoms: O_3  and  C_28
REMARK    3  A    between atoms: O_3  and  C_29
REMARK    4  A    between atoms: N_4  and  C_12
REMARK    5  A    between atoms: C_8  and  C_13
REMARK    6  A    between atoms: C_12  and  C_14
REMARK    7  A    between atoms: C_18  and  C_22
REMARK                            x       y       z     vdW  Elec       q    Type
REMARK                         _______ _______ _______ _____ _____    ______ ____
ROOT
ATOM      4  N   UNL     1      -2.081 -10.200  11.991  0.00  0.00    -0.285 NA
ATOM      8  C   UNL     1      -2.373  -8.899  11.356  0.00  0.00    +0.149 C 
ATOM      9  C   UNL     1      -1.105  -8.562  10.548  0.00  0.00    +0.061 C 
ATOM     10  C   UNL     1      -0.142  -9.709  10.830  0.00  0.00    +0.130 C 
ATOM     11  C   UNL     1      -0.629 -10.265  12.154  0.00  0.00    +0.116 C 
ENDROOT
BRANCH   8  13
ATOM      2  O   UNL     1      -3.620  -9.819   9.466  0.00  0.00    -0.336 OA
ATOM      5  N   UNL     1      -4.719  -8.231  10.602  0.00  0.00    -0.190 NA
ATOM      7  N   UNL     1      -4.859  -9.670   8.829  0.00  0.00    -0.056 NA
ATOM     13  C   UNL     1      -3.620  -8.935  10.498  0.00  0.00    +0.245 A 
ATOM     18  C   UNL     1      -5.449  -8.718   9.557  0.00  0.00    +0.202 A 
BRANCH  18  22
ATOM     22  C   UNL     1      -6.766  -8.230   9.267  0.00  0.00    +0.023 A 
ATOM     24  C   UNL     1      -7.885  -8.920   9.735  0.00  0.00    +0.015 A 
ATOM     25  C   UNL     1      -6.930  -7.066   8.516  0.00  0.00    +0.015 A 
ATOM     26  C   UNL     1      -9.165  -8.446   9.451  0.00  0.00    +0.046 A 
ATOM     27  C   UNL     1      -8.210  -6.592   8.232  0.00  0.00    +0.046 A 
ATOM     28  C   UNL     1      -9.328  -7.282   8.700  0.00  0.00    +0.120 A 
BRANCH  28   3
ATOM      3  O   UNL     1     -10.577  -6.819   8.423  0.00  0.00    -0.495 OA
ATOM     29  C   UNL     1     -10.709  -5.423   8.163  0.00  0.00    +0.277 C 
ENDBRANCH  28   3
ENDBRANCH  18  22
ENDBRANCH   8  13
BRANCH  10   1
ATOM      1  O   UNL     1       1.189  -9.238  10.917  0.00  0.00    -0.390 OA
ATOM     30  H   UNL     1       1.335  -8.636  10.167  0.00  0.00    +0.210 HD
ENDBRANCH  10   1
BRANCH   4  12
ATOM     12  C   UNL     1      -2.783 -10.391  13.253  0.00  0.00    +0.122 C 
BRANCH  12  14
ATOM      6  N   UNL     1      -6.257 -10.778  12.102  0.00  0.00    -0.360 N 
ATOM     14  C   UNL     1      -4.272 -10.497  13.056  0.00  0.00    -0.008 A 
ATOM     15  C   UNL     1      -5.273 -10.337  14.055  0.00  0.00    +0.004 A 
ATOM     16  C   UNL     1      -4.908 -10.767  11.866  0.00  0.00    +0.088 A 
ATOM     17  C   UNL     1      -6.509 -10.518  13.430  0.00  0.00    +0.047 A 
ATOM     19  C   UNL     1      -5.245 -10.055  15.436  0.00  0.00    +0.010 A 
ATOM     20  C   UNL     1      -7.723 -10.431  14.119  0.00  0.00    +0.026 A 
ATOM     21  C   UNL     1      -6.452  -9.964  16.137  0.00  0.00    +0.001 A 
ATOM     23  C   UNL     1      -7.672 -10.150  15.488  0.00  0.00    +0.002 A 
ATOM     31  H   UNL     1      -6.966 -10.953  11.403  0.00  0.00    +0.165 HD
ENDBRANCH  12  14
ENDBRANCH   4  12
TORSDOF 6
ENDMDL
MODEL 7
REMARK VINA RESULT:       1.4      1.720      6.548
REMARK  Name = 26744154
REMARK  7 active torsions:
REMARK  status: ('A' for Active; 'I' for Inactive)
REMARK    1  A    between atoms: O_1  and  C_10
REMARK    2  A    between atoms: O_3  and  C_28
REMARK    3  A    between atoms: O_3  and  C_29
REMARK    4  A    between atoms: N_4  and  C_12
REMARK    5  A    between atoms: C_8  and  C_13
REMARK    6  A    between atoms: C_12  and  C_14
REMARK    7  A    between atoms: C_18  and  C_22
REMARK                            x       y       z     vdW  Elec       q    Type
REMARK                         _______ _______ _______ _____ _____    ______ ____
ROOT
ATOM      4  N   UNL     1       1.013  -0.060  22.425  0.00  0.00    -0.285 NA
ATOM      8  C   UNL     1       1.466   0.425  23.744  0.00  0.00    +0.149 C 
ATOM      9  C   UNL     1       2.852   1.042  23.483  0.00  0.00    +0.061 C 
ATOM     10  C   UNL     1       3.111   0.815  21.999  0.00  0.00    +0.130 C 
ATOM     11  C   UNL     1       2.221  -0.365  21.659  0.00  0.00    +0.116 C 
ENDROOT
BRANCH   8  13
ATOM      2  O   UNL     1       1.032   2.349  25.188  0.00  0.00    -0.336 OA
ATOM      5  N   UNL     1      -0.804   1.486  24.239  0.00  0.00    -0.190 NA
ATOM      7  N   UNL     1      -0.042   3.127  25.639  0.00  0.00    -0.056 NA
ATOM     13  C   UNL     1       0.496   1.406  24.369  0.00  0.00    +0.245 A 
ATOM     18  C   UNL     1      -1.089   2.556  25.036  0.00  0.00    +0.202 A 
BRANCH  18  22
ATOM     22  C   UNL     1      -2.431   3.031  25.207  0.00  0.00    +0.023 A 
ATOM     24  C   UNL     1      -2.740   3.883  26.268  0.00  0.00    +0.015 A 
ATOM     25  C   UNL     1      -3.429   2.640  24.314  0.00  0.00    +0.015 A 
ATOM     26  C   UNL     1      -4.047   4.342  26.435  0.00  0.00    +0.046 A 
ATOM     27  C   UNL     1      -4.735   3.099  24.481  0.00  0.00    +0.046 A 
ATOM     28  C   UNL     1      -5.044   3.951  25.542  0.00  0.00    +0.120 A 
BRANCH  28   3
ATOM      3  O   UNL     1      -6.318   4.400  25.704  0.00  0.00    -0.495 OA
ATOM     29  C   UNL     1      -6.594   5.735  25.286  0.00  0.00    +0.277 C 
ENDBRANCH  28   3
ENDBRANCH  18  22
ENDBRANCH   8  13
BRANCH  10   1
ATOM      1  O   UNL     1       4.476   0.526  21.765  0.00  0.00    -0.390 OA
ATOM     30  H   UNL     1       4.956   1.372  21.760  0.00  0.00    +0.210 HD
ENDBRANCH  10   1
BRANCH   4  12
ATOM     12  C   UNL     1       0.115  -1.204  22.511  0.00  0.00    +0.122 C 
BRANCH  12  14
ATOM      6  N   UNL     1      -0.792  -1.642  26.050  0.00  0.00    -0.360 N 
ATOM     14  C   UNL     1      -0.521  -1.316  23.872  0.00  0.00    -0.008 A 
ATOM     15  C   UNL     1      -1.892  -1.105  24.185  0.00  0.00    +0.004 A 
ATOM     16  C   UNL     1       0.130  -1.645  25.038  0.00  0.00    +0.088 A 
ATOM     17  C   UNL     1      -2.036  -1.315  25.559  0.00  0.00    +0.047 A 
ATOM     19  C   UNL     1      -3.029  -0.753  23.430  0.00  0.00    +0.010 A 
ATOM     20  C   UNL     1      -3.264  -1.191  26.218  0.00  0.00    +0.026 A 
ATOM     21  C   UNL     1      -4.264  -0.626  24.076  0.00  0.00    +0.001 A 
ATOM     23  C   UNL     1      -4.378  -0.841  25.448  0.00  0.00    +0.002 A 
ATOM     31  H   UNL     1      -0.590  -1.848  27.019  0.00  0.00    +0.165 HD
ENDBRANCH  12  14
ENDBRANCH   4  12
TORSDOF 6
ENDMDL
MODEL 8
REMARK VINA RESULT:       1.4      2.372      5.127
REMARK  Name = 26744154
REMARK  7 active torsions:
REMARK  status: ('A' for Active; 'I' for Inactive)
REMARK    1  A    between atoms: O_1  and  C_10
REMARK    2  A    between atoms: O_3  and  C_28
REMARK    3  A    between atoms: O_3  and  C_29
REMARK    4  A    between atoms: N_4  and  C_12
REMARK    5  A    between atoms: C_8  and  C_13
REMARK    6  A    between atoms: C_12  and  C_14
REMARK    7  A    between atoms: C_18  and  C_22
REMARK                            x       y       z     vdW  Elec       q    Type
REMARK                         _______ _______ _______ _____ _____    ______ ____
ROOT
ATOM      4  N   UNL     1      -2.719  -0.487  24.748  0.00  0.00    -0.285 NA
ATOM      8  C   UNL     1      -1.660  -1.514  24.691  0.00  0.00    +0.149 C 
ATOM      9  C   UNL     1      -2.305  -2.707  23.961  0.00  0.00    +0.061 C 
ATOM     10  C   UNL     1      -3.740  -2.272  23.689  0.00  0.00    +0.130 C 
ATOM     11  C   UNL     1      -3.993  -1.205  24.737  0.00  0.00    +0.116 C 
ENDROOT
BRANCH   8  13
ATOM      2  O   UNL     1      -0.570  -0.401  22.808  0.00  0.00    -0.336 OA
ATOM      5  N   UNL     1       0.843  -1.099  24.400  0.00  0.00    -0.190 NA
ATOM      7  N   UNL     1       0.713  -0.038  22.378  0.00  0.00    -0.056 NA
ATOM     13  C   UNL     1      -0.403  -1.019  24.006  0.00  0.00    +0.245 A 
ATOM     18  C   UNL     1       1.490  -0.484  23.369  0.00  0.00    +0.202 A 
BRANCH  18  22
ATOM     22  C   UNL     1       2.916  -0.329  23.360  0.00  0.00    +0.023 A 
ATOM     24  C   UNL     1       3.488   0.844  22.866  0.00  0.00    +0.015 A 
ATOM     25  C   UNL     1       3.732  -1.352  23.844  0.00  0.00    +0.015 A 
ATOM     26  C   UNL     1       4.875   0.993  22.856  0.00  0.00    +0.046 A 
ATOM     27  C   UNL     1       5.119  -1.203  23.834  0.00  0.00    +0.046 A 
ATOM     28  C   UNL     1       5.690  -0.030  23.340  0.00  0.00    +0.120 A 
BRANCH  28   3
ATOM      3  O   UNL     1       7.043   0.115  23.331  0.00  0.00    -0.495 OA
ATOM     29  C   UNL     1       7.800  -0.900  22.674  0.00  0.00    +0.277 C 
ENDBRANCH  28   3
ENDBRANCH  18  22
ENDBRANCH   8  13
BRANCH  10   1
ATOM      1  O   UNL     1      -4.630  -3.362  23.825  0.00  0.00    -0.390 OA
ATOM     30  H   UNL     1      -4.494  -3.947  23.061  0.00  0.00    +0.210 HD
ENDBRANCH  10   1
BRANCH   4  12
ATOM     12  C   UNL     1      -2.598   0.398  25.899  0.00  0.00    +0.122 C 
BRANCH  12  14
ATOM      6  N   UNL     1      -2.239   3.903  24.839  0.00  0.00    -0.360 N 
ATOM     14  C   UNL     1      -2.734   1.846  25.509  0.00  0.00    -0.008 A 
ATOM     15  C   UNL     1      -3.934   2.610  25.496  0.00  0.00    +0.004 A 
ATOM     16  C   UNL     1      -1.710   2.668  25.101  0.00  0.00    +0.088 A 
ATOM     17  C   UNL     1      -3.596   3.897  25.072  0.00  0.00    +0.047 A 
ATOM     19  C   UNL     1      -5.281   2.330  25.805  0.00  0.00    +0.010 A 
ATOM     20  C   UNL     1      -4.539   4.922  24.940  0.00  0.00    +0.026 A 
ATOM     21  C   UNL     1      -6.235   3.346  25.678  0.00  0.00    +0.001 A 
ATOM     23  C   UNL     1      -5.869   4.621  25.252  0.00  0.00    +0.002 A 
ATOM     31  H   UNL     1      -1.711   4.704  24.519  0.00  0.00    +0.165 HD
ENDBRANCH  12  14
ENDBRANCH   4  12
TORSDOF 6
ENDMDL
