MODEL 1
REMARK VINA RESULT:      -5.0      0.000      0.000
REMARK  Name = 26743242
REMARK  9 active torsions:
REMARK  status: ('A' for Active; 'I' for Inactive)
REMARK    1  A    between atoms: N_5  and  C_24
REMARK    2  A    between atoms: N_5  and  C_25
REMARK    3  A    between atoms: C_6  and  C_10
REMARK    4  A    between atoms: C_7  and  C_13
REMARK    5  A    between atoms: C_10  and  C_20
REMARK    6  A    between atoms: C_11  and  C_16
REMARK    7  A    between atoms: C_13  and  C_22
REMARK    8  A    between atoms: C_16  and  C_21
REMARK    9  A    between atoms: C_24  and  C_26
REMARK                            x       y       z     vdW  Elec       q    Type
REMARK                         _______ _______ _______ _____ _____    ______ ____
ROOT
ATOM      3  N   UNL     1       0.281   4.819  24.187  0.00  0.00    -0.316 NA
ATOM      6  C   UNL     1      -1.022   3.182  25.523  0.00  0.00    +0.012 C 
ATOM      7  C   UNL     1      -2.222   4.156  25.601  0.00  0.00    +0.004 C 
ATOM      8  C   UNL     1      -1.713   5.595  25.422  0.00  0.00    +0.019 C 
ATOM      9  C   UNL     1      -0.170   3.430  24.267  0.00  0.00    +0.085 C 
ATOM     12  C   UNL     1      -0.841   5.756  24.178  0.00  0.00    +0.081 C 
ATOM     32  H   UNL     1       0.834   4.947  23.340  0.00  0.00    +0.122 HD
ENDROOT
BRANCH   6  10
ATOM     10  C   UNL     1      -1.436   1.712  25.609  0.00  0.00    +0.064 C 
BRANCH  10  20
ATOM      1  O   UNL     1       0.397  -0.933  23.996  0.00  0.00    -0.359 OA
ATOM      4  N   UNL     1      -0.429  -0.445  25.002  0.00  0.00    -0.083 NA
ATOM     20  C   UNL     1      -0.586   0.852  24.719  0.00  0.00    +0.084 A 
ATOM     21  C   UNL     1       0.710   0.076  23.144  0.00  0.00    +0.138 A 
ATOM     23  C   UNL     1       0.110   1.234  23.559  0.00  0.00    +0.071 A 
BRANCH  21  16
ATOM     16  C   UNL     1       1.582  -0.269  22.014  0.00  0.00    +0.080 C 
BRANCH  16  11
ATOM     11  C   UNL     1       3.060  -0.337  22.394  0.00  0.00    -0.004 C 
ATOM     14  C   UNL     1       3.573   1.042  22.830  0.00  0.00    +0.004 C 
ATOM     15  C   UNL     1       3.288  -1.378  23.499  0.00  0.00    +0.004 C 
ATOM     17  C   UNL     1       5.035   0.988  23.266  0.00  0.00    +0.000 C 
ATOM     18  C   UNL     1       4.750  -1.428  23.935  0.00  0.00    +0.000 C 
ATOM     19  C   UNL     1       5.258  -0.053  24.358  0.00  0.00    +0.000 C 
ENDBRANCH  16  11
ENDBRANCH  21  16
ENDBRANCH  10  20
ENDBRANCH   6  10
BRANCH   7  13
ATOM     13  C   UNL     1      -3.343   3.846  24.601  0.00  0.00    +0.100 C 
BRANCH  13  22
ATOM      2  O   UNL     1      -4.920   2.905  26.142  0.00  0.00    -0.276 OA
ATOM      5  N   UNL     1      -4.353   1.606  24.306  0.00  0.00    -0.300 N 
ATOM     22  C   UNL     1      -4.278   2.757  25.099  0.00  0.00    +0.216 C 
ATOM     25  C   UNL     1      -3.586   1.453  23.076  0.00  0.00    +0.132 C 
BRANCH   5  24
ATOM     24  C   UNL     1      -5.207   0.472  24.649  0.00  0.00    +0.142 C 
BRANCH  24  26
ATOM     26  C   UNL     1      -4.423  -0.802  24.779  0.00  0.00    -0.030 A 
ATOM     27  C   UNL     1      -4.434  -1.736  23.743  0.00  0.00    +0.005 A 
ATOM     28  C   UNL     1      -3.685  -1.052  25.936  0.00  0.00    +0.005 A 
ATOM     29  C   UNL     1      -3.706  -2.920  23.863  0.00  0.00    +0.000 A 
ATOM     30  C   UNL     1      -2.957  -2.236  26.056  0.00  0.00    +0.000 A 
ATOM     31  C   UNL     1      -2.967  -3.170  25.020  0.00  0.00    +0.000 A 
ENDBRANCH  24  26
ENDBRANCH   5  24
ENDBRANCH  13  22
ENDBRANCH   7  13
TORSDOF 8
ENDMDL
MODEL 2
REMARK VINA RESULT:      -4.0      1.493      4.812
REMARK  Name = 26743242
REMARK  9 active torsions:
REMARK  status: ('A' for Active; 'I' for Inactive)
REMARK    1  A    between atoms: N_5  and  C_24
REMARK    2  A    between atoms: N_5  and  C_25
REMARK    3  A    between atoms: C_6  and  C_10
REMARK    4  A    between atoms: C_7  and  C_13
REMARK    5  A    between atoms: C_10  and  C_20
REMARK    6  A    between atoms: C_11  and  C_16
REMARK    7  A    between atoms: C_13  and  C_22
REMARK    8  A    between atoms: C_16  and  C_21
REMARK    9  A    between atoms: C_24  and  C_26
REMARK                            x       y       z     vdW  Elec       q    Type
REMARK                         _______ _______ _______ _____ _____    ______ ____
ROOT
ATOM      3  N   UNL     1      -3.506  -3.593  24.955  0.00  0.00    -0.316 NA
ATOM      6  C   UNL     1      -2.365  -1.416  24.598  0.00  0.00    +0.012 C 
ATOM      7  C   UNL     1      -3.561  -0.891  23.769  0.00  0.00    +0.004 C 
ATOM      8  C   UNL     1      -4.323  -2.087  23.175  0.00  0.00    +0.019 C 
ATOM      9  C   UNL     1      -2.802  -2.490  25.609  0.00  0.00    +0.085 C 
ATOM     12  C   UNL     1      -4.688  -3.130  24.230  0.00  0.00    +0.081 C 
ATOM     32  H   UNL     1      -3.786  -4.278  25.655  0.00  0.00    +0.122 HD
ENDROOT
BRANCH   6  10
ATOM     10  C   UNL     1      -1.587  -0.303  25.301  0.00  0.00    +0.064 C 
BRANCH  10  20
ATOM      1  O   UNL     1       1.224   1.406  23.839  0.00  0.00    -0.359 OA
ATOM      4  N   UNL     1       0.208   1.292  24.779  0.00  0.00    -0.083 NA
ATOM     20  C   UNL     1      -0.416   0.149  24.477  0.00  0.00    +0.084 A 
ATOM     21  C   UNL     1       1.183   0.337  23.003  0.00  0.00    +0.138 A 
ATOM     23  C   UNL     1       0.157  -0.494  23.365  0.00  0.00    +0.071 A 
BRANCH  21  16
ATOM     16  C   UNL     1       2.195   0.297  21.940  0.00  0.00    +0.080 C 
BRANCH  16  11
ATOM     11  C   UNL     1       3.563  -0.176  22.430  0.00  0.00    -0.004 C 
ATOM     14  C   UNL     1       4.377   1.001  22.986  0.00  0.00    +0.004 C 
ATOM     15  C   UNL     1       3.408  -1.279  23.486  0.00  0.00    +0.004 C 
ATOM     17  C   UNL     1       5.728   0.544  23.531  0.00  0.00    +0.000 C 
ATOM     18  C   UNL     1       4.760  -1.731  24.031  0.00  0.00    +0.000 C 
ATOM     19  C   UNL     1       5.571  -0.558  24.573  0.00  0.00    +0.000 C 
ENDBRANCH  16  11
ENDBRANCH  21  16
ENDBRANCH  10  20
ENDBRANCH   6  10
BRANCH   7  13
ATOM     13  C   UNL     1      -4.509   0.024  24.553  0.00  0.00    +0.100 C 
BRANCH  13  22
ATOM      2  O   UNL     1      -3.398   1.856  23.477  0.00  0.00    -0.276 OA
ATOM      5  N   UNL     1      -4.844   2.386  25.212  0.00  0.00    -0.300 N 
ATOM     22  C   UNL     1      -4.190   1.496  24.352  0.00  0.00    +0.216 C 
ATOM     25  C   UNL     1      -5.776   1.938  26.239  0.00  0.00    +0.132 C 
BRANCH   5  24
ATOM     24  C   UNL     1      -4.643   3.831  25.144  0.00  0.00    +0.142 C 
BRANCH  24  26
ATOM     26  C   UNL     1      -3.187   4.197  25.164  0.00  0.00    -0.030 A 
ATOM     27  C   UNL     1      -2.729   5.276  24.408  0.00  0.00    +0.005 A 
ATOM     28  C   UNL     1      -2.292   3.458  25.939  0.00  0.00    +0.005 A 
ATOM     29  C   UNL     1      -1.376   5.616  24.426  0.00  0.00    +0.000 A 
ATOM     30  C   UNL     1      -0.939   3.799  25.957  0.00  0.00    +0.000 A 
ATOM     31  C   UNL     1      -0.481   4.878  25.201  0.00  0.00    +0.000 A 
ENDBRANCH  24  26
ENDBRANCH   5  24
ENDBRANCH  13  22
ENDBRANCH   7  13
TORSDOF 8
ENDMDL
MODEL 3
REMARK VINA RESULT:      -2.3      1.512      7.143
REMARK  Name = 26743242
REMARK  9 active torsions:
REMARK  status: ('A' for Active; 'I' for Inactive)
REMARK    1  A    between atoms: N_5  and  C_24
REMARK    2  A    between atoms: N_5  and  C_25
REMARK    3  A    between atoms: C_6  and  C_10
REMARK    4  A    between atoms: C_7  and  C_13
REMARK    5  A    between atoms: C_10  and  C_20
REMARK    6  A    between atoms: C_11  and  C_16
REMARK    7  A    between atoms: C_13  and  C_22
REMARK    8  A    between atoms: C_16  and  C_21
REMARK    9  A    between atoms: C_24  and  C_26
REMARK                            x       y       z     vdW  Elec       q    Type
REMARK                         _______ _______ _______ _____ _____    ______ ____
ROOT
ATOM      3  N   UNL     1      -2.079  -3.519  25.027  0.00  0.00    -0.316 NA
ATOM      6  C   UNL     1      -3.169  -1.306  24.745  0.00  0.00    +0.012 C 
ATOM      7  C   UNL     1      -1.804  -0.586  24.858  0.00  0.00    +0.004 C 
ATOM      8  C   UNL     1      -0.829  -1.479  25.642  0.00  0.00    +0.019 C 
ATOM      9  C   UNL     1      -3.012  -2.741  24.213  0.00  0.00    +0.085 C 
ATOM     12  C   UNL     1      -0.756  -2.898  25.081  0.00  0.00    +0.081 C 
ATOM     32  H   UNL     1      -1.995  -4.459  24.639  0.00  0.00    +0.122 HD
ENDROOT
BRANCH   6  10
ATOM     10  C   UNL     1      -4.189  -0.532  23.908  0.00  0.00    +0.064 C 
BRANCH  10  20
ATOM      1  O   UNL     1      -5.762   2.150  25.722  0.00  0.00    -0.359 OA
ATOM      4  N   UNL     1      -5.722   0.846  25.243  0.00  0.00    -0.083 NA
ATOM     20  C   UNL     1      -4.571   0.760  24.571  0.00  0.00    +0.084 A 
ATOM     21  C   UNL     1      -4.641   2.807  25.326  0.00  0.00    +0.138 A 
ATOM     23  C   UNL     1      -3.849   1.967  24.590  0.00  0.00    +0.071 A 
BRANCH  21  16
ATOM     16  C   UNL     1      -4.520   4.208  25.749  0.00  0.00    +0.080 C 
BRANCH  16  11
ATOM     11  C   UNL     1      -3.070   4.682  25.846  0.00  0.00    -0.004 C 
ATOM     14  C   UNL     1      -2.119   3.489  26.008  0.00  0.00    +0.004 C 
ATOM     15  C   UNL     1      -2.692   5.521  24.617  0.00  0.00    +0.004 C 
ATOM     17  C   UNL     1      -0.659   3.935  26.053  0.00  0.00    +0.000 C 
ATOM     18  C   UNL     1      -1.231   5.962  24.665  0.00  0.00    +0.000 C 
ATOM     19  C   UNL     1      -0.289   4.775  24.836  0.00  0.00    +0.000 C 
ENDBRANCH  16  11
ENDBRANCH  21  16
ENDBRANCH  10  20
ENDBRANCH   6  10
BRANCH   7  13
ATOM     13  C   UNL     1      -1.202  -0.176  23.508  0.00  0.00    +0.100 C 
BRANCH  13  22
ATOM      2  O   UNL     1       0.083   1.563  24.543  0.00  0.00    -0.276 OA
ATOM      5  N   UNL     1       1.074   0.450  22.765  0.00  0.00    -0.300 N 
ATOM     22  C   UNL     1       0.031   0.697  23.666  0.00  0.00    +0.216 C 
ATOM     25  C   UNL     1       0.991  -0.578  21.736  0.00  0.00    +0.132 C 
BRANCH   5  24
ATOM     24  C   UNL     1       2.324   1.204  22.789  0.00  0.00    +0.142 C 
BRANCH  24  26
ATOM     26  C   UNL     1       3.491   0.346  23.186  0.00  0.00    -0.030 A 
ATOM     27  C   UNL     1       3.286  -0.987  23.542  0.00  0.00    +0.005 A 
ATOM     28  C   UNL     1       4.779   0.882  23.200  0.00  0.00    +0.005 A 
ATOM     29  C   UNL     1       4.369  -1.785  23.911  0.00  0.00    +0.000 A 
ATOM     30  C   UNL     1       5.862   0.084  23.569  0.00  0.00    +0.000 A 
ATOM     31  C   UNL     1       5.658  -1.249  23.925  0.00  0.00    +0.000 A 
ENDBRANCH  24  26
ENDBRANCH   5  24
ENDBRANCH  13  22
ENDBRANCH   7  13
TORSDOF 8
ENDMDL
MODEL 4
REMARK VINA RESULT:      -1.6      1.492      6.044
REMARK  Name = 26743242
REMARK  9 active torsions:
REMARK  status: ('A' for Active; 'I' for Inactive)
REMARK    1  A    between atoms: N_5  and  C_24
REMARK    2  A    between atoms: N_5  and  C_25
REMARK    3  A    between atoms: C_6  and  C_10
REMARK    4  A    between atoms: C_7  and  C_13
REMARK    5  A    between atoms: C_10  and  C_20
REMARK    6  A    between atoms: C_11  and  C_16
REMARK    7  A    between atoms: C_13  and  C_22
REMARK    8  A    between atoms: C_16  and  C_21
REMARK    9  A    between atoms: C_24  and  C_26
REMARK                            x       y       z     vdW  Elec       q    Type
REMARK                         _______ _______ _______ _____ _____    ______ ____
ROOT
ATOM      3  N   UNL     1      -2.182   5.373  25.547  0.00  0.00    -0.316 NA
ATOM      6  C   UNL     1      -3.040   4.060  23.622  0.00  0.00    +0.012 C 
ATOM      7  C   UNL     1      -1.641   3.441  23.383  0.00  0.00    +0.004 C 
ATOM      8  C   UNL     1      -0.571   4.383  23.957  0.00  0.00    +0.019 C 
ATOM      9  C   UNL     1      -3.237   4.468  25.092  0.00  0.00    +0.085 C 
ATOM     12  C   UNL     1      -0.855   4.776  25.406  0.00  0.00    +0.081 C 
ATOM     32  H   UNL     1      -2.342   5.613  26.525  0.00  0.00    +0.122 HD
ENDROOT
BRANCH   6  10
ATOM     10  C   UNL     1      -4.183   3.157  23.157  0.00  0.00    +0.064 C 
BRANCH  10  20
ATOM      1  O   UNL     1      -5.581   1.204  25.837  0.00  0.00    -0.359 OA
ATOM      4  N   UNL     1      -5.546   2.332  25.026  0.00  0.00    -0.083 NA
ATOM     20  C   UNL     1      -4.521   2.126  24.194  0.00  0.00    +0.084 A 
ATOM     21  C   UNL     1      -4.584   0.359  25.474  0.00  0.00    +0.138 A 
ATOM     23  C   UNL     1      -3.879   0.898  24.431  0.00  0.00    +0.071 A 
BRANCH  21  16
ATOM     16  C   UNL     1      -4.476  -0.892  26.234  0.00  0.00    +0.080 C 
BRANCH  16  11
ATOM     11  C   UNL     1      -3.244  -1.717  25.864  0.00  0.00    -0.004 C 
ATOM     14  C   UNL     1      -3.412  -2.350  24.477  0.00  0.00    +0.004 C 
ATOM     15  C   UNL     1      -1.977  -0.851  25.919  0.00  0.00    +0.004 C 
ATOM     17  C   UNL     1      -2.171  -3.136  24.061  0.00  0.00    +0.000 C 
ATOM     18  C   UNL     1      -0.738  -1.639  25.501  0.00  0.00    +0.000 C 
ATOM     19  C   UNL     1      -0.913  -2.276  24.126  0.00  0.00    +0.000 C 
ENDBRANCH  16  11
ENDBRANCH  21  16
ENDBRANCH  10  20
ENDBRANCH   6  10
BRANCH   7  13
ATOM     13  C   UNL     1      -1.481   2.025  23.949  0.00  0.00    +0.100 C 
BRANCH  13  22
ATOM      2  O   UNL     1      -1.388   0.607  22.019  0.00  0.00    -0.276 OA
ATOM      5  N   UNL     1       0.567   0.825  23.249  0.00  0.00    -0.300 N 
ATOM     22  C   UNL     1      -0.781   1.090  22.978  0.00  0.00    +0.216 C 
ATOM     25  C   UNL     1       1.264   1.407  24.389  0.00  0.00    +0.132 C 
BRANCH   5  24
ATOM     24  C   UNL     1       1.376  -0.053  22.409  0.00  0.00    +0.142 C 
BRANCH  24  26
ATOM     26  C   UNL     1       2.802  -0.119  22.875  0.00  0.00    -0.030 A 
ATOM     27  C   UNL     1       3.281  -1.275  23.491  0.00  0.00    +0.005 A 
ATOM     28  C   UNL     1       3.648   0.975  22.692  0.00  0.00    +0.005 A 
ATOM     29  C   UNL     1       4.606  -1.337  23.925  0.00  0.00    +0.000 A 
ATOM     30  C   UNL     1       4.972   0.913  23.125  0.00  0.00    +0.000 A 
ATOM     31  C   UNL     1       5.452  -0.242  23.741  0.00  0.00    +0.000 A 
ENDBRANCH  24  26
ENDBRANCH   5  24
ENDBRANCH  13  22
ENDBRANCH   7  13
TORSDOF 8
ENDMDL
