MODEL 1
REMARK VINA RESULT:      -5.1      0.000      0.000
REMARK  Name = 11941977
REMARK  7 active torsions:
REMARK  status: ('A' for Active; 'I' for Inactive)
REMARK    1  A    between atoms: N_5  and  C_15
REMARK    2  A    between atoms: C_9  and  C_16
REMARK    3  A    between atoms: C_10  and  C_15
REMARK    4  A    between atoms: C_22  and  C_23
REMARK    5  A    between atoms: C_23  and  C_24
REMARK    6  A    between atoms: C_24  and  C_25
REMARK    7  A    between atoms: C_25  and  C_26
REMARK                            x       y       z     vdW  Elec       q    Type
REMARK                         _______ _______ _______ _____ _____    ______ ____
ROOT
ATOM      3  N   UNL     1      -2.310  -0.811  23.895  0.00  0.00    -0.297 NA
ATOM      8  C   UNL     1      -4.532  -1.036  25.230  0.00  0.00    +0.005 C 
ATOM      9  C   UNL     1      -4.539   0.224  24.342  0.00  0.00    +0.092 C 
ATOM     10  C   UNL     1      -2.016  -0.994  25.341  0.00  0.00    +0.078 C 
ATOM     11  C   UNL     1      -3.316  -0.977  26.176  0.00  0.00    +0.025 C 
ATOM     12  C   UNL     1      -4.326  -2.239  24.291  0.00  0.00    +0.020 C 
ATOM     13  C   UNL     1      -3.157   0.391  23.689  0.00  0.00    +0.097 C 
ATOM     14  C   UNL     1      -3.072  -1.997  23.431  0.00  0.00    +0.085 C 
ENDROOT
BRANCH   9  16
ATOM      1  O   UNL     1      -5.902   1.383  25.897  0.00  0.00    -0.275 OA
ATOM      2  O   UNL     1      -2.258   4.649  25.182  0.00  0.00    -0.377 OA
ATOM      4  N   UNL     1      -4.164   2.589  24.939  0.00  0.00    -0.297 N 
ATOM     16  C   UNL     1      -4.936   1.445  25.132  0.00  0.00    +0.220 C 
ATOM     17  C   UNL     1      -3.094   2.735  23.948  0.00  0.00    +0.136 C 
ATOM     18  C   UNL     1      -4.479   3.816  25.670  0.00  0.00    +0.136 C 
ATOM     20  C   UNL     1      -1.881   3.410  24.576  0.00  0.00    +0.179 C 
ATOM     21  C   UNL     1      -3.208   4.441  26.230  0.00  0.00    +0.179 C 
ENDBRANCH   9  16
BRANCH  10  15
ATOM     15  C   UNL     1      -0.994   0.019  25.861  0.00  0.00    +0.164 C 
BRANCH  15   5
ATOM      5  N   UNL     1      -0.010   0.363  24.848  0.00  0.00    -0.250 N 
ATOM      6  N   UNL     1       0.445   1.616  24.752  0.00  0.00    -0.065 NA
ATOM      7  N   UNL     1       1.316   1.630  23.748  0.00  0.00    -0.135 NA
ATOM     19  C   UNL     1       0.540  -0.462  23.927  0.00  0.00    +0.133 A 
ATOM     22  C   UNL     1       1.385   0.366  23.233  0.00  0.00    +0.083 A 
BRANCH  22  23
ATOM     23  C   UNL     1       2.268   0.052  22.102  0.00  0.00    +0.059 C 
BRANCH  23  24
ATOM     24  C   UNL     1       3.728   0.504  22.320  0.00  0.00    +0.006 C 
BRANCH  24  25
ATOM     25  C   UNL     1       4.424  -0.286  23.428  0.00  0.00    -0.003 C 
ATOM     26  C   UNL     1       5.784   0.303  23.764  0.00  0.00    +0.004 C 
ENDBRANCH  24  25
ENDBRANCH  23  24
ENDBRANCH  22  23
ENDBRANCH  15   5
ENDBRANCH  10  15
TORSDOF 6
ENDMDL
MODEL 2
REMARK VINA RESULT:      -5.0      1.744      4.171
REMARK  Name = 11941977
REMARK  7 active torsions:
REMARK  status: ('A' for Active; 'I' for Inactive)
REMARK    1  A    between atoms: N_5  and  C_15
REMARK    2  A    between atoms: C_9  and  C_16
REMARK    3  A    between atoms: C_10  and  C_15
REMARK    4  A    between atoms: C_22  and  C_23
REMARK    5  A    between atoms: C_23  and  C_24
REMARK    6  A    between atoms: C_24  and  C_25
REMARK    7  A    between atoms: C_25  and  C_26
REMARK                            x       y       z     vdW  Elec       q    Type
REMARK                         _______ _______ _______ _____ _____    ______ ____
ROOT
ATOM      3  N   UNL     1      -2.936   3.393  26.226  0.00  0.00    -0.297 NA
ATOM      8  C   UNL     1      -3.126   3.508  23.633  0.00  0.00    +0.005 C 
ATOM      9  C   UNL     1      -3.827   2.253  24.188  0.00  0.00    +0.092 C 
ATOM     10  C   UNL     1      -1.589   3.584  25.626  0.00  0.00    +0.078 C 
ATOM     11  C   UNL     1      -1.653   3.503  24.085  0.00  0.00    +0.025 C 
ATOM     12  C   UNL     1      -3.804   4.723  24.293  0.00  0.00    +0.020 C 
ATOM     13  C   UNL     1      -3.563   2.154  25.700  0.00  0.00    +0.097 C 
ATOM     14  C   UNL     1      -3.782   4.544  25.822  0.00  0.00    +0.085 C 
ENDROOT
BRANCH   9  16
ATOM      1  O   UNL     1      -2.808   1.122  22.372  0.00  0.00    -0.275 OA
ATOM      2  O   UNL     1      -3.472  -2.590  25.572  0.00  0.00    -0.377 OA
ATOM      4  N   UNL     1      -3.649  -0.206  24.081  0.00  0.00    -0.297 N 
ATOM     16  C   UNL     1      -3.380   1.012  23.459  0.00  0.00    +0.220 C 
ATOM     17  C   UNL     1      -4.436  -0.379  25.306  0.00  0.00    +0.136 C 
ATOM     18  C   UNL     1      -3.245  -1.459  23.443  0.00  0.00    +0.136 C 
ATOM     20  C   UNL     1      -3.742  -1.357  26.245  0.00  0.00    +0.179 C 
ATOM     21  C   UNL     1      -2.596  -2.386  24.460  0.00  0.00    +0.179 C 
ENDBRANCH   9  16
BRANCH  10  15
ATOM     15  C   UNL     1      -0.552   2.618  26.204  0.00  0.00    +0.164 C 
BRANCH  15   5
ATOM      5  N   UNL     1      -0.152   1.611  25.235  0.00  0.00    -0.250 N 
ATOM      6  N   UNL     1      -0.599   0.357  25.346  0.00  0.00    -0.065 NA
ATOM      7  N   UNL     1      -0.071  -0.329  24.338  0.00  0.00    -0.135 NA
ATOM     19  C   UNL     1       0.666   1.779  24.170  0.00  0.00    +0.133 A 
ATOM     22  C   UNL     1       0.707   0.527  23.609  0.00  0.00    +0.083 A 
BRANCH  22  23
ATOM     23  C   UNL     1       1.434   0.070  22.418  0.00  0.00    +0.059 C 
BRANCH  23  24
ATOM     24  C   UNL     1       2.880  -0.380  22.719  0.00  0.00    +0.006 C 
BRANCH  24  25
ATOM     25  C   UNL     1       3.858   0.793  22.764  0.00  0.00    -0.003 C 
ATOM     26  C   UNL     1       5.146   0.419  23.480  0.00  0.00    +0.004 C 
ENDBRANCH  24  25
ENDBRANCH  23  24
ENDBRANCH  22  23
ENDBRANCH  15   5
ENDBRANCH  10  15
TORSDOF 6
ENDMDL
MODEL 3
REMARK VINA RESULT:      -4.8      1.804      4.049
REMARK  Name = 11941977
REMARK  7 active torsions:
REMARK  status: ('A' for Active; 'I' for Inactive)
REMARK    1  A    between atoms: N_5  and  C_15
REMARK    2  A    between atoms: C_9  and  C_16
REMARK    3  A    between atoms: C_10  and  C_15
REMARK    4  A    between atoms: C_22  and  C_23
REMARK    5  A    between atoms: C_23  and  C_24
REMARK    6  A    between atoms: C_24  and  C_25
REMARK    7  A    between atoms: C_25  and  C_26
REMARK                            x       y       z     vdW  Elec       q    Type
REMARK                         _______ _______ _______ _____ _____    ______ ____
ROOT
ATOM      3  N   UNL     1      -0.588   1.966  25.405  0.00  0.00    -0.297 NA
ATOM      8  C   UNL     1      -2.641   3.165  24.346  0.00  0.00    +0.005 C 
ATOM      9  C   UNL     1      -3.080   2.145  25.414  0.00  0.00    +0.092 C 
ATOM     10  C   UNL     1      -0.521   1.872  23.923  0.00  0.00    +0.078 C 
ATOM     11  C   UNL     1      -1.802   2.441  23.274  0.00  0.00    +0.025 C 
ATOM     12  C   UNL     1      -1.713   4.172  25.051  0.00  0.00    +0.020 C 
ATOM     13  C   UNL     1      -1.850   1.362  25.903  0.00  0.00    +0.097 C 
ATOM     14  C   UNL     1      -0.590   3.404  25.772  0.00  0.00    +0.085 C 
ENDROOT
BRANCH   9  16
ATOM      1  O   UNL     1      -5.175   1.713  24.391  0.00  0.00    -0.275 OA
ATOM      2  O   UNL     1      -3.183  -2.813  24.462  0.00  0.00    -0.377 OA
ATOM      4  N   UNL     1      -3.907  -0.140  24.982  0.00  0.00    -0.297 N 
ATOM     16  C   UNL     1      -4.153   1.227  24.882  0.00  0.00    +0.220 C 
ATOM     17  C   UNL     1      -2.766  -0.751  25.671  0.00  0.00    +0.136 C 
ATOM     18  C   UNL     1      -4.894  -1.100  24.485  0.00  0.00    +0.136 C 
ATOM     20  C   UNL     1      -2.172  -1.867  24.820  0.00  0.00    +0.179 C 
ATOM     21  C   UNL     1      -4.210  -2.196  23.681  0.00  0.00    +0.179 C 
ENDBRANCH   9  16
BRANCH  10  15
ATOM     15  C   UNL     1      -0.224   0.450  23.441  0.00  0.00    +0.164 C 
BRANCH  15   5
ATOM      5  N   UNL     1       1.104   0.342  22.861  0.00  0.00    -0.250 N 
ATOM      6  N   UNL     1       1.278  -0.287  21.695  0.00  0.00    -0.065 NA
ATOM      7  N   UNL     1       2.578  -0.233  21.421  0.00  0.00    -0.135 NA
ATOM     19  C   UNL     1       2.262   0.818  23.373  0.00  0.00    +0.133 A 
ATOM     22  C   UNL     1       3.194   0.440  22.438  0.00  0.00    +0.083 A 
BRANCH  22  23
ATOM     23  C   UNL     1       4.645   0.670  22.432  0.00  0.00    +0.059 C 
BRANCH  23  24
ATOM     24  C   UNL     1       5.270   0.673  23.843  0.00  0.00    +0.006 C 
BRANCH  24  25
ATOM     25  C   UNL     1       5.731  -0.718  24.280  0.00  0.00    -0.003 C 
ATOM     26  C   UNL     1       4.714  -1.784  23.908  0.00  0.00    +0.004 C 
ENDBRANCH  24  25
ENDBRANCH  23  24
ENDBRANCH  22  23
ENDBRANCH  15   5
ENDBRANCH  10  15
TORSDOF 6
ENDMDL
MODEL 4
REMARK VINA RESULT:      -3.1      2.070      5.190
REMARK  Name = 11941977
REMARK  7 active torsions:
REMARK  status: ('A' for Active; 'I' for Inactive)
REMARK    1  A    between atoms: N_5  and  C_15
REMARK    2  A    between atoms: C_9  and  C_16
REMARK    3  A    between atoms: C_10  and  C_15
REMARK    4  A    between atoms: C_22  and  C_23
REMARK    5  A    between atoms: C_23  and  C_24
REMARK    6  A    between atoms: C_24  and  C_25
REMARK    7  A    between atoms: C_25  and  C_26
REMARK                            x       y       z     vdW  Elec       q    Type
REMARK                         _______ _______ _______ _____ _____    ______ ____
ROOT
ATOM      3  N   UNL     1      -3.632  -1.607  25.931  0.00  0.00    -0.297 NA
ATOM      8  C   UNL     1      -2.049  -1.408  23.874  0.00  0.00    +0.005 C 
ATOM      9  C   UNL     1      -1.337  -0.977  25.171  0.00  0.00    +0.092 C 
ATOM     10  C   UNL     1      -4.290  -0.814  24.859  0.00  0.00    +0.078 C 
ATOM     11  C   UNL     1      -3.317  -0.550  23.689  0.00  0.00    +0.025 C 
ATOM     12  C   UNL     1      -2.507  -2.863  24.083  0.00  0.00    +0.020 C 
ATOM     13  C   UNL     1      -2.350  -0.972  26.328  0.00  0.00    +0.097 C 
ATOM     14  C   UNL     1      -3.329  -2.952  25.381  0.00  0.00    +0.085 C 
ENDROOT
BRANCH   9  16
ATOM      1  O   UNL     1      -0.951   1.280  25.783  0.00  0.00    -0.275 OA
ATOM      2  O   UNL     1       2.596   0.576  22.410  0.00  0.00    -0.377 OA
ATOM      4  N   UNL     1       0.246   0.481  23.962  0.00  0.00    -0.297 N 
ATOM     16  C   UNL     1      -0.669   0.365  25.006  0.00  0.00    +0.220 C 
ATOM     17  C   UNL     1       0.510  -0.542  22.945  0.00  0.00    +0.136 C 
ATOM     18  C   UNL     1       0.942   1.748  23.735  0.00  0.00    +0.136 C 
ATOM     20  C   UNL     1       2.010  -0.691  22.723  0.00  0.00    +0.179 C 
ATOM     21  C   UNL     1       2.423   1.502  23.486  0.00  0.00    +0.179 C 
ENDBRANCH   9  16
BRANCH  10  15
ATOM     15  C   UNL     1      -4.906   0.483  25.389  0.00  0.00    +0.164 C 
BRANCH  15   5
ATOM      5  N   UNL     1      -4.299   1.657  24.784  0.00  0.00    -0.250 N 
ATOM      6  N   UNL     1      -3.821   1.599  23.537  0.00  0.00    -0.065 NA
ATOM      7  N   UNL     1      -3.330   2.802  23.260  0.00  0.00    -0.135 NA
ATOM     19  C   UNL     1      -4.137   2.876  25.347  0.00  0.00    +0.133 A 
ATOM     22  C   UNL     1      -3.515   3.596  24.357  0.00  0.00    +0.083 A 
BRANCH  22  23
ATOM     23  C   UNL     1      -3.075   4.997  24.368  0.00  0.00    +0.059 C 
BRANCH  23  24
ATOM     24  C   UNL     1      -1.959   5.281  25.396  0.00  0.00    +0.006 C 
BRANCH  24  25
ATOM     25  C   UNL     1      -0.645   4.589  25.036  0.00  0.00    -0.003 C 
ATOM     26  C   UNL     1      -0.201   4.934  23.624  0.00  0.00    +0.004 C 
ENDBRANCH  24  25
ENDBRANCH  23  24
ENDBRANCH  22  23
ENDBRANCH  15   5
ENDBRANCH  10  15
TORSDOF 6
ENDMDL
MODEL 5
REMARK VINA RESULT:      -3.1      1.898      4.075
REMARK  Name = 11941977
REMARK  7 active torsions:
REMARK  status: ('A' for Active; 'I' for Inactive)
REMARK    1  A    between atoms: N_5  and  C_15
REMARK    2  A    between atoms: C_9  and  C_16
REMARK    3  A    between atoms: C_10  and  C_15
REMARK    4  A    between atoms: C_22  and  C_23
REMARK    5  A    between atoms: C_23  and  C_24
REMARK    6  A    between atoms: C_24  and  C_25
REMARK    7  A    between atoms: C_25  and  C_26
REMARK                            x       y       z     vdW  Elec       q    Type
REMARK                         _______ _______ _______ _____ _____    ______ ____
ROOT
ATOM      3  N   UNL     1      -2.838   3.043  25.112  0.00  0.00    -0.297 NA
ATOM      8  C   UNL     1      -5.212   1.980  25.166  0.00  0.00    +0.005 C 
ATOM      9  C   UNL     1      -4.146   0.990  25.672  0.00  0.00    +0.092 C 
ATOM     10  C   UNL     1      -3.491   3.193  23.784  0.00  0.00    +0.078 C 
ATOM     11  C   UNL     1      -4.838   2.438  23.742  0.00  0.00    +0.025 C 
ATOM     12  C   UNL     1      -5.138   3.217  26.080  0.00  0.00    +0.020 C 
ATOM     13  C   UNL     1      -2.750   1.609  25.484  0.00  0.00    +0.097 C 
ATOM     14  C   UNL     1      -3.686   3.730  26.117  0.00  0.00    +0.085 C 
ENDROOT
BRANCH   9  16
ATOM      1  O   UNL     1      -5.230  -0.554  24.236  0.00  0.00    -0.275 OA
ATOM      2  O   UNL     1      -0.931  -2.856  25.062  0.00  0.00    -0.377 OA
ATOM      4  N   UNL     1      -3.252  -1.266  25.222  0.00  0.00    -0.297 N 
ATOM     16  C   UNL     1      -4.266  -0.343  24.976  0.00  0.00    +0.220 C 
ATOM     17  C   UNL     1      -2.164  -1.097  26.190  0.00  0.00    +0.136 C 
ATOM     18  C   UNL     1      -3.289  -2.582  24.583  0.00  0.00    +0.136 C 
ATOM     20  C   UNL     1      -0.838  -1.524  25.573  0.00  0.00    +0.179 C 
ATOM     21  C   UNL     1      -1.918  -2.942  24.030  0.00  0.00    +0.179 C 
ENDBRANCH   9  16
BRANCH  10  15
ATOM     15  C   UNL     1      -2.572   2.780  22.632  0.00  0.00    +0.164 C 
BRANCH  15   5
ATOM      5  N   UNL     1      -1.299   2.269  23.112  0.00  0.00    -0.250 N 
ATOM      6  N   UNL     1      -0.513   3.034  23.875  0.00  0.00    -0.065 NA
ATOM      7  N   UNL     1       0.569   2.314  24.153  0.00  0.00    -0.135 NA
ATOM     19  C   UNL     1      -0.765   1.049  22.875  0.00  0.00    +0.133 A 
ATOM     22  C   UNL     1       0.430   1.096  23.548  0.00  0.00    +0.083 A 
BRANCH  22  23
ATOM     23  C   UNL     1       1.468   0.063  23.667  0.00  0.00    +0.059 C 
BRANCH  23  24
ATOM     24  C   UNL     1       2.625   0.240  22.661  0.00  0.00    +0.006 C 
BRANCH  24  25
ATOM     25  C   UNL     1       3.894  -0.493  23.097  0.00  0.00    -0.003 C 
ATOM     26  C   UNL     1       5.004   0.480  23.459  0.00  0.00    +0.004 C 
ENDBRANCH  24  25
ENDBRANCH  23  24
ENDBRANCH  22  23
ENDBRANCH  15   5
ENDBRANCH  10  15
TORSDOF 6
ENDMDL
MODEL 6
REMARK VINA RESULT:      -3.1      2.335      3.643
REMARK  Name = 11941977
REMARK  7 active torsions:
REMARK  status: ('A' for Active; 'I' for Inactive)
REMARK    1  A    between atoms: N_5  and  C_15
REMARK    2  A    between atoms: C_9  and  C_16
REMARK    3  A    between atoms: C_10  and  C_15
REMARK    4  A    between atoms: C_22  and  C_23
REMARK    5  A    between atoms: C_23  and  C_24
REMARK    6  A    between atoms: C_24  and  C_25
REMARK    7  A    between atoms: C_25  and  C_26
REMARK                            x       y       z     vdW  Elec       q    Type
REMARK                         _______ _______ _______ _____ _____    ______ ____
ROOT
ATOM      3  N   UNL     1      -2.440  -2.406  23.818  0.00  0.00    -0.297 NA
ATOM      8  C   UNL     1      -3.458  -0.936  25.708  0.00  0.00    +0.005 C 
ATOM      9  C   UNL     1      -3.944  -0.475  24.321  0.00  0.00    +0.092 C 
ATOM     10  C   UNL     1      -1.359  -1.895  24.701  0.00  0.00    +0.078 C 
ATOM     11  C   UNL     1      -1.917  -0.897  25.739  0.00  0.00    +0.025 C 
ATOM     12  C   UNL     1      -3.883  -2.408  25.861  0.00  0.00    +0.020 C 
ATOM     13  C   UNL     1      -3.206  -1.276  23.234  0.00  0.00    +0.097 C 
ATOM     14  C   UNL     1      -3.368  -3.210  24.652  0.00  0.00    +0.085 C 
ENDROOT
BRANCH   9  16
ATOM      1  O   UNL     1      -3.022   1.426  23.247  0.00  0.00    -0.275 OA
ATOM      2  O   UNL     1      -6.357   3.526  26.234  0.00  0.00    -0.377 OA
ATOM      4  N   UNL     1      -4.455   1.833  25.027  0.00  0.00    -0.297 N 
ATOM     16  C   UNL     1      -3.760   1.011  24.144  0.00  0.00    +0.220 C 
ATOM     17  C   UNL     1      -5.237   1.375  26.180  0.00  0.00    +0.136 C 
ATOM     18  C   UNL     1      -4.336   3.288  24.922  0.00  0.00    +0.136 C 
ATOM     20  C   UNL     1      -6.569   2.112  26.242  0.00  0.00    +0.179 C 
ATOM     21  C   UNL     1      -5.706   3.941  25.030  0.00  0.00    +0.179 C 
ENDBRANCH   9  16
BRANCH  10  15
ATOM     15  C   UNL     1      -0.193  -1.298  23.909  0.00  0.00    +0.164 C 
BRANCH  15   5
ATOM      5  N   UNL     1       0.017   0.104  24.230  0.00  0.00    -0.250 N 
ATOM      6  N   UNL     1       0.686   0.893  23.384  0.00  0.00    -0.065 NA
ATOM      7  N   UNL     1       0.724   2.101  23.937  0.00  0.00    -0.135 NA
ATOM     19  C   UNL     1      -0.395   0.761  25.339  0.00  0.00    +0.133 A 
ATOM     22  C   UNL     1       0.067   2.037  25.134  0.00  0.00    +0.083 A 
BRANCH  22  23
ATOM     23  C   UNL     1      -0.067   3.219  25.995  0.00  0.00    +0.059 C 
BRANCH  23  24
ATOM     24  C   UNL     1      -1.525   3.706  26.144  0.00  0.00    +0.006 C 
BRANCH  24  25
ATOM     25  C   UNL     1      -1.885   4.788  25.126  0.00  0.00    -0.003 C 
ATOM     26  C   UNL     1      -0.653   5.540  24.651  0.00  0.00    +0.004 C 
ENDBRANCH  24  25
ENDBRANCH  23  24
ENDBRANCH  22  23
ENDBRANCH  15   5
ENDBRANCH  10  15
TORSDOF 6
ENDMDL
MODEL 7
REMARK VINA RESULT:      -2.5      2.645      5.167
REMARK  Name = 11941977
REMARK  7 active torsions:
REMARK  status: ('A' for Active; 'I' for Inactive)
REMARK    1  A    between atoms: N_5  and  C_15
REMARK    2  A    between atoms: C_9  and  C_16
REMARK    3  A    between atoms: C_10  and  C_15
REMARK    4  A    between atoms: C_22  and  C_23
REMARK    5  A    between atoms: C_23  and  C_24
REMARK    6  A    between atoms: C_24  and  C_25
REMARK    7  A    between atoms: C_25  and  C_26
REMARK                            x       y       z     vdW  Elec       q    Type
REMARK                         _______ _______ _______ _____ _____    ______ ____
ROOT
ATOM      3  N   UNL     1      -0.871   4.045  25.802  0.00  0.00    -0.297 NA
ATOM      8  C   UNL     1      -1.416   3.669  23.285  0.00  0.00    +0.005 C 
ATOM      9  C   UNL     1      -2.702   3.869  24.110  0.00  0.00    +0.092 C 
ATOM     10  C   UNL     1      -0.196   2.813  25.316  0.00  0.00    +0.078 C 
ATOM     11  C   UNL     1      -0.624   2.482  23.869  0.00  0.00    +0.025 C 
ATOM     12  C   UNL     1      -0.560   4.933  23.484  0.00  0.00    +0.020 C 
ATOM     13  C   UNL     1      -2.339   3.941  25.604  0.00  0.00    +0.097 C 
ATOM     14  C   UNL     1      -0.377   5.186  24.992  0.00  0.00    +0.085 C 
ENDROOT
BRANCH   9  16
ATOM      1  O   UNL     1      -3.490   1.979  22.915  0.00  0.00    -0.275 OA
ATOM      2  O   UNL     1      -6.707   2.160  26.667  0.00  0.00    -0.377 OA
ATOM      4  N   UNL     1      -4.834   2.747  24.645  0.00  0.00    -0.297 N 
ATOM     16  C   UNL     1      -3.705   2.779  23.830  0.00  0.00    +0.220 C 
ATOM     17  C   UNL     1      -5.183   3.753  25.654  0.00  0.00    +0.136 C 
ATOM     18  C   UNL     1      -5.855   1.719  24.444  0.00  0.00    +0.136 C 
ATOM     20  C   UNL     1      -5.642   3.075  26.939  0.00  0.00    +0.179 C 
ATOM     21  C   UNL     1      -6.280   1.124  25.779  0.00  0.00    +0.179 C 
ENDBRANCH   9  16
BRANCH  10  15
ATOM     15  C   UNL     1      -0.405   1.624  26.256  0.00  0.00    +0.164 C 
BRANCH  15   5
ATOM      5  N   UNL     1      -0.573   0.379  25.526  0.00  0.00    -0.250 N 
ATOM      6  N   UNL     1       0.141   0.147  24.420  0.00  0.00    -0.065 NA
ATOM      7  N   UNL     1      -0.224  -1.050  23.972  0.00  0.00    -0.135 NA
ATOM     19  C   UNL     1      -1.410  -0.640  25.827  0.00  0.00    +0.133 A 
ATOM     22  C   UNL     1      -1.173  -1.545  24.822  0.00  0.00    +0.083 A 
BRANCH  22  23
ATOM     23  C   UNL     1      -1.783  -2.862  24.599  0.00  0.00    +0.059 C 
BRANCH  23  24
ATOM     24  C   UNL     1      -3.264  -2.932  25.031  0.00  0.00    +0.006 C 
BRANCH  24  25
ATOM     25  C   UNL     1      -4.221  -2.599  23.887  0.00  0.00    -0.003 C 
ATOM     26  C   UNL     1      -4.360  -1.098  23.695  0.00  0.00    +0.004 C 
ENDBRANCH  24  25
ENDBRANCH  23  24
ENDBRANCH  22  23
ENDBRANCH  15   5
ENDBRANCH  10  15
TORSDOF 6
ENDMDL
MODEL 8
REMARK VINA RESULT:      -2.3      1.130      1.879
REMARK  Name = 11941977
REMARK  7 active torsions:
REMARK  status: ('A' for Active; 'I' for Inactive)
REMARK    1  A    between atoms: N_5  and  C_15
REMARK    2  A    between atoms: C_9  and  C_16
REMARK    3  A    between atoms: C_10  and  C_15
REMARK    4  A    between atoms: C_22  and  C_23
REMARK    5  A    between atoms: C_23  and  C_24
REMARK    6  A    between atoms: C_24  and  C_25
REMARK    7  A    between atoms: C_25  and  C_26
REMARK                            x       y       z     vdW  Elec       q    Type
REMARK                         _______ _______ _______ _____ _____    ______ ____
ROOT
ATOM      3  N   UNL     1      -2.200  -1.879  24.062  0.00  0.00    -0.297 NA
ATOM      8  C   UNL     1      -4.340  -0.505  24.616  0.00  0.00    +0.005 C 
ATOM      9  C   UNL     1      -3.526   0.160  23.489  0.00  0.00    +0.092 C 
ATOM     10  C   UNL     1      -2.264  -1.607  25.522  0.00  0.00    +0.078 C 
ATOM     11  C   UNL     1      -3.441  -0.664  25.859  0.00  0.00    +0.025 C 
ATOM     12  C   UNL     1      -4.701  -1.920  24.127  0.00  0.00    +0.020 C 
ATOM     13  C   UNL     1      -2.205  -0.605  23.300  0.00  0.00    +0.097 C 
ATOM     14  C   UNL     1      -3.415  -2.645  23.688  0.00  0.00    +0.085 C 
ENDROOT
BRANCH   9  16
ATOM      1  O   UNL     1      -2.388   2.216  23.182  0.00  0.00    -0.275 OA
ATOM      2  O   UNL     1      -6.208   3.635  25.986  0.00  0.00    -0.377 OA
ATOM      4  N   UNL     1      -4.132   2.215  24.715  0.00  0.00    -0.297 N 
ATOM     16  C   UNL     1      -3.291   1.621  23.776  0.00  0.00    +0.220 C 
ATOM     17  C   UNL     1      -5.128   1.511  25.530  0.00  0.00    +0.136 C 
ATOM     18  C   UNL     1      -3.975   3.630  25.048  0.00  0.00    +0.136 C 
ATOM     20  C   UNL     1      -6.436   2.291  25.554  0.00  0.00    +0.179 C 
ATOM     21  C   UNL     1      -5.331   4.320  25.087  0.00  0.00    +0.179 C 
ENDBRANCH   9  16
BRANCH  10  15
ATOM     15  C   UNL     1      -0.938  -1.079  26.076  0.00  0.00    +0.164 C 
BRANCH  15   5
ATOM      5  N   UNL     1      -0.155  -0.407  25.053  0.00  0.00    -0.250 N 
ATOM      6  N   UNL     1      -0.156   0.927  24.973  0.00  0.00    -0.065 NA
ATOM      7  N   UNL     1       0.634   1.250  23.955  0.00  0.00    -0.135 NA
ATOM     19  C   UNL     1       0.623  -0.984  24.107  0.00  0.00    +0.133 A 
ATOM     22  C   UNL     1       1.119   0.092  23.414  0.00  0.00    +0.083 A 
BRANCH  22  23
ATOM     23  C   UNL     1       2.030   0.112  22.262  0.00  0.00    +0.059 C 
BRANCH  23  24
ATOM     24  C   UNL     1       3.394   0.765  22.572  0.00  0.00    +0.006 C 
BRANCH  24  25
ATOM     25  C   UNL     1       4.417  -0.242  23.099  0.00  0.00    -0.003 C 
ATOM     26  C   UNL     1       5.487   0.437  23.938  0.00  0.00    +0.004 C 
ENDBRANCH  24  25
ENDBRANCH  23  24
ENDBRANCH  22  23
ENDBRANCH  15   5
ENDBRANCH  10  15
TORSDOF 6
ENDMDL
MODEL 9
REMARK VINA RESULT:      -2.0      2.435      6.283
REMARK  Name = 11941977
REMARK  7 active torsions:
REMARK  status: ('A' for Active; 'I' for Inactive)
REMARK    1  A    between atoms: N_5  and  C_15
REMARK    2  A    between atoms: C_9  and  C_16
REMARK    3  A    between atoms: C_10  and  C_15
REMARK    4  A    between atoms: C_22  and  C_23
REMARK    5  A    between atoms: C_23  and  C_24
REMARK    6  A    between atoms: C_24  and  C_25
REMARK    7  A    between atoms: C_25  and  C_26
REMARK                            x       y       z     vdW  Elec       q    Type
REMARK                         _______ _______ _______ _____ _____    ______ ____
ROOT
ATOM      3  N   UNL     1      -2.007  -0.335  25.583  0.00  0.00    -0.297 NA
ATOM      8  C   UNL     1      -0.254  -1.932  24.511  0.00  0.00    +0.005 C 
ATOM      9  C   UNL     1       0.255  -0.478  24.531  0.00  0.00    +0.092 C 
ATOM     10  C   UNL     1      -2.644  -1.139  24.507  0.00  0.00    +0.078 C 
ATOM     11  C   UNL     1      -1.595  -1.984  23.752  0.00  0.00    +0.025 C 
ATOM     12  C   UNL     1      -0.539  -2.323  25.973  0.00  0.00    +0.020 C 
ATOM     13  C   UNL     1      -0.867   0.444  25.037  0.00  0.00    +0.097 C 
ATOM     14  C   UNL     1      -1.476  -1.275  26.601  0.00  0.00    +0.085 C 
ENDROOT
BRANCH   9  16
ATOM      1  O   UNL     1      -0.029   0.448  22.368  0.00  0.00    -0.275 OA
ATOM      2  O   UNL     1       4.894   0.030  22.601  0.00  0.00    -0.377 OA
ATOM      4  N   UNL     1       2.109  -0.271  22.916  0.00  0.00    -0.297 N 
ATOM     16  C   UNL     1       0.757  -0.057  23.173  0.00  0.00    +0.220 C 
ATOM     17  C   UNL     1       3.041  -0.982  23.798  0.00  0.00    +0.136 C 
ATOM     18  C   UNL     1       2.679   0.114  21.624  0.00  0.00    +0.136 C 
ATOM     20  C   UNL     1       4.355  -0.218  23.903  0.00  0.00    +0.179 C 
ATOM     21  C   UNL     1       4.004   0.835  21.823  0.00  0.00    +0.179 C 
ENDBRANCH   9  16
BRANCH  10  15
ATOM     15  C   UNL     1      -3.476  -0.280  23.552  0.00  0.00    +0.164 C 
BRANCH  15   5
ATOM      5  N   UNL     1      -3.955   0.932  24.194  0.00  0.00    -0.250 N 
ATOM      6  N   UNL     1      -5.081   0.912  24.914  0.00  0.00    -0.065 NA
ATOM      7  N   UNL     1      -5.268   2.147  25.367  0.00  0.00    -0.135 NA
ATOM     19  C   UNL     1      -3.385   2.159  24.156  0.00  0.00    +0.133 A 
ATOM     22  C   UNL     1      -4.239   2.923  24.912  0.00  0.00    +0.083 A 
BRANCH  22  23
ATOM     23  C   UNL     1      -4.157   4.351  25.243  0.00  0.00    +0.059 C 
BRANCH  23  24
ATOM     24  C   UNL     1      -2.896   4.720  26.054  0.00  0.00    +0.006 C 
BRANCH  24  25
ATOM     25  C   UNL     1      -1.777   5.275  25.173  0.00  0.00    -0.003 C 
ATOM     26  C   UNL     1      -0.659   4.263  24.987  0.00  0.00    +0.004 C 
ENDBRANCH  24  25
ENDBRANCH  23  24
ENDBRANCH  22  23
ENDBRANCH  15   5
ENDBRANCH  10  15
TORSDOF 6
ENDMDL
MODEL 10
REMARK VINA RESULT:      -1.3      1.753      2.892
REMARK  Name = 11941977
REMARK  7 active torsions:
REMARK  status: ('A' for Active; 'I' for Inactive)
REMARK    1  A    between atoms: N_5  and  C_15
REMARK    2  A    between atoms: C_9  and  C_16
REMARK    3  A    between atoms: C_10  and  C_15
REMARK    4  A    between atoms: C_22  and  C_23
REMARK    5  A    between atoms: C_23  and  C_24
REMARK    6  A    between atoms: C_24  and  C_25
REMARK    7  A    between atoms: C_25  and  C_26
REMARK                            x       y       z     vdW  Elec       q    Type
REMARK                         _______ _______ _______ _____ _____    ______ ____
ROOT
ATOM      3  N   UNL     1      -1.649  -1.454  23.944  0.00  0.00    -0.297 NA
ATOM      8  C   UNL     1      -1.393   0.365  25.787  0.00  0.00    +0.005 C 
ATOM      9  C   UNL     1      -2.667   0.594  24.951  0.00  0.00    +0.092 C 
ATOM     10  C   UNL     1      -0.297  -0.839  23.866  0.00  0.00    +0.078 C 
ATOM     11  C   UNL     1      -0.172   0.347  24.847  0.00  0.00    +0.025 C 
ATOM     12  C   UNL     1      -1.516  -1.038  26.407  0.00  0.00    +0.020 C 
ATOM     13  C   UNL     1      -2.697  -0.414  23.789  0.00  0.00    +0.097 C 
ATOM     14  C   UNL     1      -1.797  -2.060  25.290  0.00  0.00    +0.085 C 
ENDROOT
BRANCH   9  16
ATOM      1  O   UNL     1      -2.010   2.384  23.542  0.00  0.00    -0.275 OA
ATOM      2  O   UNL     1      -5.989   4.310  25.760  0.00  0.00    -0.377 OA
ATOM      4  N   UNL     1      -3.680   2.840  25.089  0.00  0.00    -0.297 N 
ATOM     16  C   UNL     1      -2.749   2.017  24.459  0.00  0.00    +0.220 C 
ATOM     17  C   UNL     1      -4.482   2.475  26.261  0.00  0.00    +0.136 C 
ATOM     18  C   UNL     1      -3.828   4.234  24.670  0.00  0.00    +0.136 C 
ATOM     20  C   UNL     1      -5.928   2.914  26.069  0.00  0.00    +0.179 C 
ATOM     21  C   UNL     1      -5.300   4.595  24.540  0.00  0.00    +0.179 C 
ENDBRANCH   9  16
BRANCH  10  15
ATOM     15  C   UNL     1       0.079  -0.438  22.438  0.00  0.00    +0.164 C 
BRANCH  15   5
ATOM      5  N   UNL     1       1.478  -0.059  22.333  0.00  0.00    -0.250 N 
ATOM      6  N   UNL     1       2.166  -0.330  21.220  0.00  0.00    -0.065 NA
ATOM      7  N   UNL     1       3.401   0.122  21.414  0.00  0.00    -0.135 NA
ATOM     19  C   UNL     1       2.229   0.567  23.269  0.00  0.00    +0.133 A 
ATOM     22  C   UNL     1       3.455   0.674  22.663  0.00  0.00    +0.083 A 
BRANCH  22  23
ATOM     23  C   UNL     1       4.695   1.267  23.181  0.00  0.00    +0.059 C 
BRANCH  23  24
ATOM     24  C   UNL     1       5.817   0.232  23.417  0.00  0.00    +0.006 C 
BRANCH  24  25
ATOM     25  C   UNL     1       5.453  -0.785  24.499  0.00  0.00    -0.003 C 
ATOM     26  C   UNL     1       4.737  -1.990  23.913  0.00  0.00    +0.004 C 
ENDBRANCH  24  25
ENDBRANCH  23  24
ENDBRANCH  22  23
ENDBRANCH  15   5
ENDBRANCH  10  15
TORSDOF 6
ENDMDL
