MODEL 1
REMARK VINA RESULT:      -6.2      0.000      0.000
REMARK  Name = 28962345
REMARK  12 active torsions:
REMARK  status: ('A' for Active; 'I' for Inactive)
REMARK    1  A    between atoms: O_2  and  C_8
REMARK    2  A    between atoms: O_3  and  C_11
REMARK    3  A    between atoms: N_4  and  C_6
REMARK    4  A    between atoms: N_4  and  C_12
REMARK    5  A    between atoms: N_4  and  C_13
REMARK    6  A    between atoms: N_5  and  C_10
REMARK    7  A    between atoms: N_5  and  C_14
REMARK    8  A    between atoms: C_7  and  C_10
REMARK    9  A    between atoms: C_9  and  C_11
REMARK   10  A    between atoms: C_12  and  C_15
REMARK   11  A    between atoms: C_14  and  C_16
REMARK   12  A    between atoms: C_14  and  C_17
REMARK                            x       y       z     vdW  Elec       q    Type
REMARK                         _______ _______ _______ _____ _____    ______ ____
ROOT
ATOM      1  O   UNL     1      -1.019   1.007  25.862  0.00  0.00    -0.366 OA
ATOM      6  C   UNL     1      -0.994   1.158  23.467  0.00  0.00    +0.118 C 
ATOM      7  C   UNL     1      -1.346   0.271  24.667  0.00  0.00    +0.152 C 
ATOM      8  C   UNL     1      -0.000   2.146  24.059  0.00  0.00    +0.165 C 
ATOM      9  C   UNL     1      -0.485   2.291  25.495  0.00  0.00    +0.174 C 
ENDROOT
BRANCH   8   2
ATOM      2  O   UNL     1       1.308   1.583  24.020  0.00  0.00    -0.388 OA
ATOM     24  H   UNL     1       1.258   0.767  23.493  0.00  0.00    +0.210 HD
ENDBRANCH   8   2
BRANCH   6   4
ATOM      4  N   UNL     1      -2.196   1.846  22.988  0.00  0.00    -0.293 NA
ATOM     13  C   UNL     1      -2.147   2.026  21.535  0.00  0.00    +0.105 C 
BRANCH   4  12
ATOM     12  C   UNL     1      -3.402   1.104  23.365  0.00  0.00    +0.119 C 
BRANCH  12  15
ATOM     15  C   UNL     1      -4.270   1.888  24.313  0.00  0.00    -0.033 A 
ATOM     18  C   UNL     1      -5.318   1.257  24.982  0.00  0.00    +0.005 A 
ATOM     19  C   UNL     1      -4.025   3.245  24.523  0.00  0.00    +0.005 A 
ATOM     20  C   UNL     1      -6.123   1.984  25.861  0.00  0.00    +0.000 A 
ATOM     21  C   UNL     1      -4.829   3.971  25.401  0.00  0.00    +0.000 A 
ATOM     22  C   UNL     1      -5.879   3.340  26.070  0.00  0.00    +0.000 A 
ENDBRANCH  12  15
ENDBRANCH   4  12
ENDBRANCH   6   4
BRANCH   7  10
ATOM     10  C   UNL     1      -0.553  -1.031  24.696  0.00  0.00    +0.114 C 
BRANCH  10   5
ATOM      5  N   UNL     1      -1.431  -2.181  24.877  0.00  0.00    -0.311 NA
ATOM     23  H   UNL     1      -1.258  -2.844  24.121  0.00  0.00    +0.122 HD
BRANCH   5  14
ATOM     14  C   UNL     1      -2.829  -1.772  24.870  0.00  0.00    +0.048 C 
ATOM     16  C   UNL     1      -3.332  -1.585  26.298  0.00  0.00    +0.023 C 
ATOM     17  C   UNL     1      -3.659  -2.815  24.128  0.00  0.00    +0.023 C 
ENDBRANCH   5  14
ENDBRANCH  10   5
ENDBRANCH   7  10
BRANCH   9  11
ATOM     11  C   UNL     1       0.574   2.698  26.504  0.00  0.00    +0.190 C 
BRANCH  11   3
ATOM      3  O   UNL     1       0.199   2.204  27.778  0.00  0.00    -0.392 OA
ATOM     25  H   UNL     1      -0.770   2.129  27.783  0.00  0.00    +0.210 HD
ENDBRANCH  11   3
ENDBRANCH   9  11
TORSDOF 9
ENDMDL
MODEL 2
REMARK VINA RESULT:      -5.9      2.512      4.353
REMARK  Name = 28962345
REMARK  12 active torsions:
REMARK  status: ('A' for Active; 'I' for Inactive)
REMARK    1  A    between atoms: O_2  and  C_8
REMARK    2  A    between atoms: O_3  and  C_11
REMARK    3  A    between atoms: N_4  and  C_6
REMARK    4  A    between atoms: N_4  and  C_12
REMARK    5  A    between atoms: N_4  and  C_13
REMARK    6  A    between atoms: N_5  and  C_10
REMARK    7  A    between atoms: N_5  and  C_14
REMARK    8  A    between atoms: C_7  and  C_10
REMARK    9  A    between atoms: C_9  and  C_11
REMARK   10  A    between atoms: C_12  and  C_15
REMARK   11  A    between atoms: C_14  and  C_16
REMARK   12  A    between atoms: C_14  and  C_17
REMARK                            x       y       z     vdW  Elec       q    Type
REMARK                         _______ _______ _______ _____ _____    ______ ____
ROOT
ATOM      1  O   UNL     1      -1.497  -0.568  23.425  0.00  0.00    -0.366 OA
ATOM      6  C   UNL     1      -0.270   0.549  25.161  0.00  0.00    +0.118 C 
ATOM      7  C   UNL     1      -0.448   0.397  23.645  0.00  0.00    +0.152 C 
ATOM      8  C   UNL     1      -0.881  -0.736  25.701  0.00  0.00    +0.165 C 
ATOM      9  C   UNL     1      -1.986  -1.032  24.695  0.00  0.00    +0.174 C 
ENDROOT
BRANCH   8   2
ATOM      2  O   UNL     1       0.101  -1.767  25.694  0.00  0.00    -0.388 OA
ATOM     24  H   UNL     1       0.262  -2.010  24.765  0.00  0.00    +0.210 HD
ENDBRANCH   8   2
BRANCH   6   4
ATOM      4  N   UNL     1      -1.011   1.721  25.633  0.00  0.00    -0.293 NA
ATOM     13  C   UNL     1      -0.104   2.694  26.247  0.00  0.00    +0.105 C 
BRANCH   4  12
ATOM     12  C   UNL     1      -1.750   2.345  24.532  0.00  0.00    +0.119 C 
BRANCH  12  15
ATOM     15  C   UNL     1      -3.215   2.482  24.847  0.00  0.00    -0.033 A 
ATOM     18  C   UNL     1      -3.708   3.683  25.358  0.00  0.00    +0.005 A 
ATOM     19  C   UNL     1      -4.080   1.410  24.629  0.00  0.00    +0.005 A 
ATOM     20  C   UNL     1      -5.067   3.811  25.651  0.00  0.00    +0.000 A 
ATOM     21  C   UNL     1      -5.438   1.538  24.920  0.00  0.00    +0.000 A 
ATOM     22  C   UNL     1      -5.931   2.739  25.432  0.00  0.00    +0.000 A 
ENDBRANCH  12  15
ENDBRANCH   4  12
ENDBRANCH   6   4
BRANCH   7  10
ATOM     10  C   UNL     1       0.806  -0.119  22.948  0.00  0.00    +0.114 C 
BRANCH  10   5
ATOM      5  N   UNL     1       1.958   0.726  23.241  0.00  0.00    -0.311 NA
ATOM     23  H   UNL     1       1.789   1.652  22.847  0.00  0.00    +0.122 HD
BRANCH   5  14
ATOM     14  C   UNL     1       3.175   0.158  22.678  0.00  0.00    +0.048 C 
ATOM     16  C   UNL     1       3.622  -1.050  23.496  0.00  0.00    +0.023 C 
ATOM     17  C   UNL     1       4.263   1.227  22.639  0.00  0.00    +0.023 C 
ENDBRANCH   5  14
ENDBRANCH  10   5
ENDBRANCH   7  10
BRANCH   9  11
ATOM     11  C   UNL     1      -2.383  -2.492  24.574  0.00  0.00    +0.190 C 
BRANCH  11   3
ATOM      3  O   UNL     1      -3.617  -2.682  25.243  0.00  0.00    -0.392 OA
ATOM     25  H   UNL     1      -4.221  -1.985  24.936  0.00  0.00    +0.210 HD
ENDBRANCH  11   3
ENDBRANCH   9  11
TORSDOF 9
ENDMDL
MODEL 3
REMARK VINA RESULT:      -5.7      1.799      3.912
REMARK  Name = 28962345
REMARK  12 active torsions:
REMARK  status: ('A' for Active; 'I' for Inactive)
REMARK    1  A    between atoms: O_2  and  C_8
REMARK    2  A    between atoms: O_3  and  C_11
REMARK    3  A    between atoms: N_4  and  C_6
REMARK    4  A    between atoms: N_4  and  C_12
REMARK    5  A    between atoms: N_4  and  C_13
REMARK    6  A    between atoms: N_5  and  C_10
REMARK    7  A    between atoms: N_5  and  C_14
REMARK    8  A    between atoms: C_7  and  C_10
REMARK    9  A    between atoms: C_9  and  C_11
REMARK   10  A    between atoms: C_12  and  C_15
REMARK   11  A    between atoms: C_14  and  C_16
REMARK   12  A    between atoms: C_14  and  C_17
REMARK                            x       y       z     vdW  Elec       q    Type
REMARK                         _______ _______ _______ _____ _____    ______ ____
ROOT
ATOM      1  O   UNL     1      -0.416   1.056  23.809  0.00  0.00    -0.366 OA
ATOM      6  C   UNL     1      -1.724  -0.505  25.080  0.00  0.00    +0.118 C 
ATOM      7  C   UNL     1      -1.325   0.967  24.925  0.00  0.00    +0.152 C 
ATOM      8  C   UNL     1      -0.602  -1.236  24.358  0.00  0.00    +0.165 C 
ATOM      9  C   UNL     1      -0.217  -0.257  23.257  0.00  0.00    +0.174 C 
ENDROOT
BRANCH   8   2
ATOM      2  O   UNL     1       0.484  -1.441  25.256  0.00  0.00    -0.388 OA
ATOM     24  H   UNL     1       0.450  -0.733  25.922  0.00  0.00    +0.210 HD
ENDBRANCH   8   2
BRANCH   6   4
ATOM      4  N   UNL     1      -3.013  -0.741  24.424  0.00  0.00    -0.293 NA
ATOM     13  C   UNL     1      -3.195  -2.166  24.137  0.00  0.00    +0.105 C 
BRANCH   4  12
ATOM     12  C   UNL     1      -4.115  -0.247  25.253  0.00  0.00    +0.119 C 
BRANCH  12  15
ATOM     15  C   UNL     1      -4.438   1.192  24.957  0.00  0.00    -0.033 A 
ATOM     18  C   UNL     1      -3.879   1.817  23.842  0.00  0.00    +0.005 A 
ATOM     19  C   UNL     1      -5.297   1.902  25.796  0.00  0.00    +0.005 A 
ATOM     20  C   UNL     1      -4.179   3.152  23.566  0.00  0.00    +0.000 A 
ATOM     21  C   UNL     1      -5.598   3.236  25.520  0.00  0.00    +0.000 A 
ATOM     22  C   UNL     1      -5.038   3.861  24.405  0.00  0.00    +0.000 A 
ENDBRANCH  12  15
ENDBRANCH   4  12
ENDBRANCH   6   4
BRANCH   7  10
ATOM     10  C   UNL     1      -0.604   1.519  26.151  0.00  0.00    +0.114 C 
BRANCH  10   5
ATOM      5  N   UNL     1      -0.204   2.907  25.948  0.00  0.00    -0.311 NA
ATOM     23  H   UNL     1       0.125   3.283  26.837  0.00  0.00    +0.122 HD
BRANCH   5  14
ATOM     14  C   UNL     1      -1.319   3.701  25.452  0.00  0.00    +0.048 C 
ATOM     16  C   UNL     1      -0.811   5.010  24.855  0.00  0.00    +0.023 C 
ATOM     17  C   UNL     1      -2.303   3.961  26.589  0.00  0.00    +0.023 C 
ENDBRANCH   5  14
ENDBRANCH  10   5
ENDBRANCH   7  10
BRANCH   9  11
ATOM     11  C   UNL     1       1.208  -0.374  22.749  0.00  0.00    +0.190 C 
BRANCH  11   3
ATOM      3  O   UNL     1       1.964   0.704  23.270  0.00  0.00    -0.392 OA
ATOM     25  H   UNL     1       2.183   0.483  24.191  0.00  0.00    +0.210 HD
ENDBRANCH  11   3
ENDBRANCH   9  11
TORSDOF 9
ENDMDL
MODEL 4
REMARK VINA RESULT:      -5.4      1.916      3.982
REMARK  Name = 28962345
REMARK  12 active torsions:
REMARK  status: ('A' for Active; 'I' for Inactive)
REMARK    1  A    between atoms: O_2  and  C_8
REMARK    2  A    between atoms: O_3  and  C_11
REMARK    3  A    between atoms: N_4  and  C_6
REMARK    4  A    between atoms: N_4  and  C_12
REMARK    5  A    between atoms: N_4  and  C_13
REMARK    6  A    between atoms: N_5  and  C_10
REMARK    7  A    between atoms: N_5  and  C_14
REMARK    8  A    between atoms: C_7  and  C_10
REMARK    9  A    between atoms: C_9  and  C_11
REMARK   10  A    between atoms: C_12  and  C_15
REMARK   11  A    between atoms: C_14  and  C_16
REMARK   12  A    between atoms: C_14  and  C_17
REMARK                            x       y       z     vdW  Elec       q    Type
REMARK                         _______ _______ _______ _____ _____    ______ ____
ROOT
ATOM      1  O   UNL     1      -0.242   1.138  25.612  0.00  0.00    -0.366 OA
ATOM      6  C   UNL     1      -1.929   2.366  24.425  0.00  0.00    +0.118 C 
ATOM      7  C   UNL     1      -1.079   1.090  24.439  0.00  0.00    +0.152 C 
ATOM      8  C   UNL     1      -1.140   3.305  25.324  0.00  0.00    +0.165 C 
ATOM      9  C   UNL     1      -0.507   2.355  26.331  0.00  0.00    +0.174 C 
ENDROOT
BRANCH   8   2
ATOM      2  O   UNL     1      -0.141   3.969  24.556  0.00  0.00    -0.388 OA
ATOM     24  H   UNL     1      -0.377   4.912  24.523  0.00  0.00    +0.210 HD
ENDBRANCH   8   2
BRANCH   6   4
ATOM      4  N   UNL     1      -3.252   2.087  24.989  0.00  0.00    -0.293 NA
ATOM     13  C   UNL     1      -3.983   3.332  25.239  0.00  0.00    +0.105 C 
BRANCH   4  12
ATOM     12  C   UNL     1      -4.024   1.219  24.096  0.00  0.00    +0.119 C 
BRANCH  12  15
ATOM     15  C   UNL     1      -3.853  -0.236  24.443  0.00  0.00    -0.033 A 
ATOM     18  C   UNL     1      -4.118  -1.216  23.487  0.00  0.00    +0.005 A 
ATOM     19  C   UNL     1      -3.429  -0.604  25.720  0.00  0.00    +0.005 A 
ATOM     20  C   UNL     1      -3.959  -2.565  23.808  0.00  0.00    +0.000 A 
ATOM     21  C   UNL     1      -3.270  -1.952  26.041  0.00  0.00    +0.000 A 
ATOM     22  C   UNL     1      -3.536  -2.933  25.085  0.00  0.00    +0.000 A 
ENDBRANCH  12  15
ENDBRANCH   4  12
ENDBRANCH   6   4
BRANCH   7  10
ATOM     10  C   UNL     1      -0.164   0.973  23.224  0.00  0.00    +0.114 C 
BRANCH  10   5
ATOM      5  N   UNL     1       1.228   1.209  23.587  0.00  0.00    -0.311 NA
ATOM     23  H   UNL     1       1.496   2.137  23.259  0.00  0.00    +0.122 HD
BRANCH   5  14
ATOM     14  C   UNL     1       2.097   0.200  22.996  0.00  0.00    +0.048 C 
ATOM     16  C   UNL     1       3.458   0.805  22.664  0.00  0.00    +0.023 C 
ATOM     17  C   UNL     1       1.432  -0.374  21.749  0.00  0.00    +0.023 C 
ENDBRANCH   5  14
ENDBRANCH  10   5
ENDBRANCH   7  10
BRANCH   9  11
ATOM     11  C   UNL     1       0.779   2.845  26.973  0.00  0.00    +0.190 C 
BRANCH  11   3
ATOM      3  O   UNL     1       0.812   2.399  28.317  0.00  0.00    -0.392 OA
ATOM     25  H   UNL     1       1.738   2.434  28.608  0.00  0.00    +0.210 HD
ENDBRANCH  11   3
ENDBRANCH   9  11
TORSDOF 9
ENDMDL
MODEL 5
REMARK VINA RESULT:      -5.4      2.165      4.318
REMARK  Name = 28962345
REMARK  12 active torsions:
REMARK  status: ('A' for Active; 'I' for Inactive)
REMARK    1  A    between atoms: O_2  and  C_8
REMARK    2  A    between atoms: O_3  and  C_11
REMARK    3  A    between atoms: N_4  and  C_6
REMARK    4  A    between atoms: N_4  and  C_12
REMARK    5  A    between atoms: N_4  and  C_13
REMARK    6  A    between atoms: N_5  and  C_10
REMARK    7  A    between atoms: N_5  and  C_14
REMARK    8  A    between atoms: C_7  and  C_10
REMARK    9  A    between atoms: C_9  and  C_11
REMARK   10  A    between atoms: C_12  and  C_15
REMARK   11  A    between atoms: C_14  and  C_16
REMARK   12  A    between atoms: C_14  and  C_17
REMARK                            x       y       z     vdW  Elec       q    Type
REMARK                         _______ _______ _______ _____ _____    ______ ____
ROOT
ATOM      1  O   UNL     1      -1.584   2.958  25.323  0.00  0.00    -0.366 OA
ATOM      6  C   UNL     1      -3.693   2.311  24.375  0.00  0.00    +0.118 C 
ATOM      7  C   UNL     1      -2.248   1.873  24.645  0.00  0.00    +0.152 C 
ATOM      8  C   UNL     1      -3.604   3.828  24.458  0.00  0.00    +0.165 C 
ATOM      9  C   UNL     1      -2.510   4.045  25.494  0.00  0.00    +0.174 C 
ENDROOT
BRANCH   8   2
ATOM      2  O   UNL     1      -3.214   4.350  23.191  0.00  0.00    -0.388 OA
ATOM     24  H   UNL     1      -2.701   5.160  23.356  0.00  0.00    +0.210 HD
ENDBRANCH   8   2
BRANCH   6   4
ATOM      4  N   UNL     1      -4.576   1.779  25.415  0.00  0.00    -0.293 NA
ATOM     13  C   UNL     1      -5.502   2.811  25.887  0.00  0.00    +0.105 C 
BRANCH   4  12
ATOM     12  C   UNL     1      -5.321   0.619  24.918  0.00  0.00    +0.119 C 
BRANCH  12  15
ATOM     15  C   UNL     1      -4.479  -0.628  24.914  0.00  0.00    -0.033 A 
ATOM     18  C   UNL     1      -3.682  -0.936  26.016  0.00  0.00    +0.005 A 
ATOM     19  C   UNL     1      -4.496  -1.478  23.807  0.00  0.00    +0.005 A 
ATOM     20  C   UNL     1      -2.901  -2.092  26.012  0.00  0.00    +0.000 A 
ATOM     21  C   UNL     1      -3.717  -2.634  23.803  0.00  0.00    +0.000 A 
ATOM     22  C   UNL     1      -2.919  -2.941  24.906  0.00  0.00    +0.000 A 
ENDBRANCH  12  15
ENDBRANCH   4  12
ENDBRANCH   6   4
BRANCH   7  10
ATOM     10  C   UNL     1      -1.467   1.580  23.368  0.00  0.00    +0.114 C 
BRANCH  10   5
ATOM      5  N   UNL     1      -0.061   1.328  23.656  0.00  0.00    -0.311 NA
ATOM     23  H   UNL     1       0.499   2.046  23.196  0.00  0.00    +0.122 HD
BRANCH   5  14
ATOM     14  C   UNL     1       0.337   0.008  23.185  0.00  0.00    +0.048 C 
ATOM     16  C   UNL     1       0.084  -1.037  24.266  0.00  0.00    +0.023 C 
ATOM     17  C   UNL     1       1.808   0.036  22.782  0.00  0.00    +0.023 C 
ENDBRANCH   5  14
ENDBRANCH  10   5
ENDBRANCH   7  10
BRANCH   9  11
ATOM     11  C   UNL     1      -1.760   5.360  25.386  0.00  0.00    +0.190 C 
BRANCH  11   3
ATOM      3  O   UNL     1      -0.573   5.145  24.642  0.00  0.00    -0.392 OA
ATOM     25  H   UNL     1      -0.821   5.136  23.702  0.00  0.00    +0.210 HD
ENDBRANCH  11   3
ENDBRANCH   9  11
TORSDOF 9
ENDMDL
MODEL 6
REMARK VINA RESULT:      -5.3      1.859      4.492
REMARK  Name = 28962345
REMARK  12 active torsions:
REMARK  status: ('A' for Active; 'I' for Inactive)
REMARK    1  A    between atoms: O_2  and  C_8
REMARK    2  A    between atoms: O_3  and  C_11
REMARK    3  A    between atoms: N_4  and  C_6
REMARK    4  A    between atoms: N_4  and  C_12
REMARK    5  A    between atoms: N_4  and  C_13
REMARK    6  A    between atoms: N_5  and  C_10
REMARK    7  A    between atoms: N_5  and  C_14
REMARK    8  A    between atoms: C_7  and  C_10
REMARK    9  A    between atoms: C_9  and  C_11
REMARK   10  A    between atoms: C_12  and  C_15
REMARK   11  A    between atoms: C_14  and  C_16
REMARK   12  A    between atoms: C_14  and  C_17
REMARK                            x       y       z     vdW  Elec       q    Type
REMARK                         _______ _______ _______ _____ _____    ______ ____
ROOT
ATOM      1  O   UNL     1      -1.700   3.354  23.382  0.00  0.00    -0.366 OA
ATOM      6  C   UNL     1      -1.106   1.321  24.511  0.00  0.00    +0.118 C 
ATOM      7  C   UNL     1      -2.091   1.975  23.535  0.00  0.00    +0.152 C 
ATOM      8  C   UNL     1      -0.527   2.515  25.255  0.00  0.00    +0.165 C 
ATOM      9  C   UNL     1      -0.543   3.610  24.197  0.00  0.00    +0.174 C 
ENDROOT
BRANCH   8   2
ATOM      2  O   UNL     1      -1.378   2.852  26.346  0.00  0.00    -0.388 OA
ATOM     24  H   UNL     1      -1.661   2.020  26.763  0.00  0.00    +0.210 HD
ENDBRANCH   8   2
BRANCH   6   4
ATOM      4  N   UNL     1      -0.064   0.611  23.765  0.00  0.00    -0.293 NA
ATOM     13  C   UNL     1       1.217   1.313  23.869  0.00  0.00    +0.105 C 
BRANCH   4  12
ATOM     12  C   UNL     1       0.072  -0.765  24.248  0.00  0.00    +0.119 C 
BRANCH  12  15
ATOM     15  C   UNL     1      -1.251  -1.347  24.665  0.00  0.00    -0.033 A 
ATOM     18  C   UNL     1      -1.837  -2.361  23.907  0.00  0.00    +0.005 A 
ATOM     19  C   UNL     1      -1.893  -0.873  25.809  0.00  0.00    +0.005 A 
ATOM     20  C   UNL     1      -3.065  -2.901  24.293  0.00  0.00    +0.000 A 
ATOM     21  C   UNL     1      -3.119  -1.413  26.196  0.00  0.00    +0.000 A 
ATOM     22  C   UNL     1      -3.705  -2.427  25.437  0.00  0.00    +0.000 A 
ENDBRANCH  12  15
ENDBRANCH   4  12
ENDBRANCH   6   4
BRANCH   7  10
ATOM     10  C   UNL     1      -3.530   1.956  24.040  0.00  0.00    +0.114 C 
BRANCH  10   5
ATOM      5  N   UNL     1      -3.945   3.275  24.501  0.00  0.00    -0.311 NA
ATOM     23  H   UNL     1      -3.116   3.789  24.803  0.00  0.00    +0.122 HD
BRANCH   5  14
ATOM     14  C   UNL     1      -4.892   3.166  25.602  0.00  0.00    +0.048 C 
ATOM     16  C   UNL     1      -5.673   1.859  25.499  0.00  0.00    +0.023 C 
ATOM     17  C   UNL     1      -5.831   4.368  25.584  0.00  0.00    +0.023 C 
ENDBRANCH   5  14
ENDBRANCH  10   5
ENDBRANCH   7  10
BRANCH   9  11
ATOM     11  C   UNL     1      -0.611   5.031  24.728  0.00  0.00    +0.190 C 
BRANCH  11   3
ATOM      3  O   UNL     1      -1.911   5.259  25.244  0.00  0.00    -0.392 OA
ATOM     25  H   UNL     1      -2.174   4.456  25.725  0.00  0.00    +0.210 HD
ENDBRANCH  11   3
ENDBRANCH   9  11
TORSDOF 9
ENDMDL
MODEL 7
REMARK VINA RESULT:      -5.2      2.409      4.865
REMARK  Name = 28962345
REMARK  12 active torsions:
REMARK  status: ('A' for Active; 'I' for Inactive)
REMARK    1  A    between atoms: O_2  and  C_8
REMARK    2  A    between atoms: O_3  and  C_11
REMARK    3  A    between atoms: N_4  and  C_6
REMARK    4  A    between atoms: N_4  and  C_12
REMARK    5  A    between atoms: N_4  and  C_13
REMARK    6  A    between atoms: N_5  and  C_10
REMARK    7  A    between atoms: N_5  and  C_14
REMARK    8  A    between atoms: C_7  and  C_10
REMARK    9  A    between atoms: C_9  and  C_11
REMARK   10  A    between atoms: C_12  and  C_15
REMARK   11  A    between atoms: C_14  and  C_16
REMARK   12  A    between atoms: C_14  and  C_17
REMARK                            x       y       z     vdW  Elec       q    Type
REMARK                         _______ _______ _______ _____ _____    ______ ____
ROOT
ATOM      1  O   UNL     1      -1.714   2.498  26.116  0.00  0.00    -0.366 OA
ATOM      6  C   UNL     1       0.022   1.920  24.563  0.00  0.00    +0.118 C 
ATOM      7  C   UNL     1      -0.417   1.875  26.032  0.00  0.00    +0.152 C 
ATOM      8  C   UNL     1      -0.835   3.038  23.990  0.00  0.00    +0.165 C 
ATOM      9  C   UNL     1      -2.116   2.932  24.806  0.00  0.00    +0.174 C 
ENDROOT
BRANCH   8   2
ATOM      2  O   UNL     1      -0.192   4.290  24.215  0.00  0.00    -0.388 OA
ATOM     24  H   UNL     1       0.700   4.102  24.555  0.00  0.00    +0.210 HD
ENDBRANCH   8   2
BRANCH   6   4
ATOM      4  N   UNL     1      -0.281   0.641  23.915  0.00  0.00    -0.293 NA
ATOM     13  C   UNL     1       0.849   0.193  23.097  0.00  0.00    +0.105 C 
BRANCH   4  12
ATOM     12  C   UNL     1      -0.619  -0.378  24.912  0.00  0.00    +0.119 C 
BRANCH  12  15
ATOM     15  C   UNL     1      -1.931  -1.048  24.607  0.00  0.00    -0.033 A 
ATOM     18  C   UNL     1      -2.018  -2.440  24.600  0.00  0.00    +0.005 A 
ATOM     19  C   UNL     1      -3.061  -0.278  24.332  0.00  0.00    +0.005 A 
ATOM     20  C   UNL     1      -3.235  -3.062  24.317  0.00  0.00    +0.000 A 
ATOM     21  C   UNL     1      -4.278  -0.899  24.050  0.00  0.00    +0.000 A 
ATOM     22  C   UNL     1      -4.364  -2.292  24.042  0.00  0.00    +0.000 A 
ENDBRANCH  12  15
ENDBRANCH   4  12
ENDBRANCH   6   4
BRANCH   7  10
ATOM     10  C   UNL     1       0.524   2.640  26.957  0.00  0.00    +0.114 C 
BRANCH  10   5
ATOM      5  N   UNL     1       0.556   2.044  28.287  0.00  0.00    -0.311 NA
ATOM     23  H   UNL     1      -0.391   2.044  28.666  0.00  0.00    +0.122 HD
BRANCH   5  14
ATOM     14  C   UNL     1       1.447   2.788  29.167  0.00  0.00    +0.048 C 
ATOM     16  C   UNL     1       2.819   2.947  28.519  0.00  0.00    +0.023 C 
ATOM     17  C   UNL     1       1.553   2.067  30.508  0.00  0.00    +0.023 C 
ENDBRANCH   5  14
ENDBRANCH  10   5
ENDBRANCH   7  10
BRANCH   9  11
ATOM     11  C   UNL     1      -2.919   4.215  24.929  0.00  0.00    +0.190 C 
BRANCH  11   3
ATOM      3  O   UNL     1      -4.161   3.913  25.540  0.00  0.00    -0.392 OA
ATOM     25  H   UNL     1      -4.068   4.101  26.489  0.00  0.00    +0.210 HD
ENDBRANCH  11   3
ENDBRANCH   9  11
TORSDOF 9
ENDMDL
MODEL 8
REMARK VINA RESULT:      -4.5      1.706      2.537
REMARK  Name = 28962345
REMARK  12 active torsions:
REMARK  status: ('A' for Active; 'I' for Inactive)
REMARK    1  A    between atoms: O_2  and  C_8
REMARK    2  A    between atoms: O_3  and  C_11
REMARK    3  A    between atoms: N_4  and  C_6
REMARK    4  A    between atoms: N_4  and  C_12
REMARK    5  A    between atoms: N_4  and  C_13
REMARK    6  A    between atoms: N_5  and  C_10
REMARK    7  A    between atoms: N_5  and  C_14
REMARK    8  A    between atoms: C_7  and  C_10
REMARK    9  A    between atoms: C_9  and  C_11
REMARK   10  A    between atoms: C_12  and  C_15
REMARK   11  A    between atoms: C_14  and  C_16
REMARK   12  A    between atoms: C_14  and  C_17
REMARK                            x       y       z     vdW  Elec       q    Type
REMARK                         _______ _______ _______ _____ _____    ______ ____
ROOT
ATOM      1  O   UNL     1      -0.111   0.812  25.417  0.00  0.00    -0.366 OA
ATOM      6  C   UNL     1      -1.817   2.418  24.892  0.00  0.00    +0.118 C 
ATOM      7  C   UNL     1      -1.437   1.236  25.793  0.00  0.00    +0.152 C 
ATOM      8  C   UNL     1      -0.879   2.252  23.707  0.00  0.00    +0.165 C 
ATOM      9  C   UNL     1       0.363   1.642  24.343  0.00  0.00    +0.174 C 
ENDROOT
BRANCH   8   2
ATOM      2  O   UNL     1      -1.459   1.353  22.765  0.00  0.00    -0.388 OA
ATOM     24  H   UNL     1      -1.707   1.874  21.981  0.00  0.00    +0.210 HD
ENDBRANCH   8   2
BRANCH   6   4
ATOM      4  N   UNL     1      -1.561   3.679  25.593  0.00  0.00    -0.293 NA
ATOM     13  C   UNL     1      -0.738   4.570  24.771  0.00  0.00    +0.105 C 
BRANCH   4  12
ATOM     12  C   UNL     1      -2.819   4.338  25.949  0.00  0.00    +0.119 C 
BRANCH  12  15
ATOM     15  C   UNL     1      -4.015   3.506  25.572  0.00  0.00    -0.033 A 
ATOM     18  C   UNL     1      -4.901   3.069  26.558  0.00  0.00    +0.005 A 
ATOM     19  C   UNL     1      -4.240   3.171  24.236  0.00  0.00    +0.005 A 
ATOM     20  C   UNL     1      -6.009   2.298  26.208  0.00  0.00    +0.000 A 
ATOM     21  C   UNL     1      -5.348   2.401  23.886  0.00  0.00    +0.000 A 
ATOM     22  C   UNL     1      -6.233   1.964  24.873  0.00  0.00    +0.000 A 
ENDBRANCH  12  15
ENDBRANCH   4  12
ENDBRANCH   6   4
BRANCH   7  10
ATOM     10  C   UNL     1      -2.368   0.040  25.628  0.00  0.00    +0.114 C 
BRANCH  10   5
ATOM      5  N   UNL     1      -1.783  -0.968  24.753  0.00  0.00    -0.311 NA
ATOM     23  H   UNL     1      -1.242  -0.494  24.029  0.00  0.00    +0.122 HD
BRANCH   5  14
ATOM     14  C   UNL     1      -2.818  -1.791  24.143  0.00  0.00    +0.048 C 
ATOM     16  C   UNL     1      -4.051  -0.946  23.835  0.00  0.00    +0.023 C 
ATOM     17  C   UNL     1      -3.164  -2.946  25.078  0.00  0.00    +0.023 C 
ENDBRANCH   5  14
ENDBRANCH  10   5
ENDBRANCH   7  10
BRANCH   9  11
ATOM     11  C   UNL     1       1.231   0.811  23.416  0.00  0.00    +0.190 C 
BRANCH  11   3
ATOM      3  O   UNL     1       0.814  -0.541  23.497  0.00  0.00    -0.392 OA
ATOM     25  H   UNL     1       0.233  -0.708  22.736  0.00  0.00    +0.210 HD
ENDBRANCH  11   3
ENDBRANCH   9  11
TORSDOF 9
ENDMDL
MODEL 9
REMARK VINA RESULT:      -4.2      2.162      4.483
REMARK  Name = 28962345
REMARK  12 active torsions:
REMARK  status: ('A' for Active; 'I' for Inactive)
REMARK    1  A    between atoms: O_2  and  C_8
REMARK    2  A    between atoms: O_3  and  C_11
REMARK    3  A    between atoms: N_4  and  C_6
REMARK    4  A    between atoms: N_4  and  C_12
REMARK    5  A    between atoms: N_4  and  C_13
REMARK    6  A    between atoms: N_5  and  C_10
REMARK    7  A    between atoms: N_5  and  C_14
REMARK    8  A    between atoms: C_7  and  C_10
REMARK    9  A    between atoms: C_9  and  C_11
REMARK   10  A    between atoms: C_12  and  C_15
REMARK   11  A    between atoms: C_14  and  C_16
REMARK   12  A    between atoms: C_14  and  C_17
REMARK                            x       y       z     vdW  Elec       q    Type
REMARK                         _______ _______ _______ _____ _____    ______ ____
ROOT
ATOM      1  O   UNL     1      -3.603  -0.290  23.157  0.00  0.00    -0.366 OA
ATOM      6  C   UNL     1      -3.904   1.240  24.983  0.00  0.00    +0.118 C 
ATOM      7  C   UNL     1      -3.340   1.067  23.567  0.00  0.00    +0.152 C 
ATOM      8  C   UNL     1      -3.990  -0.193  25.487  0.00  0.00    +0.165 C 
ATOM      9  C   UNL     1      -4.288  -0.979  24.217  0.00  0.00    +0.174 C 
ENDROOT
BRANCH   8   2
ATOM      2  O   UNL     1      -2.735  -0.578  26.039  0.00  0.00    -0.388 OA
ATOM     24  H   UNL     1      -2.736  -1.548  26.117  0.00  0.00    +0.210 HD
ENDBRANCH   8   2
BRANCH   6   4
ATOM      4  N   UNL     1      -5.232   1.854  24.917  0.00  0.00    -0.293 NA
ATOM     13  C   UNL     1      -6.187   1.116  25.746  0.00  0.00    +0.105 C 
BRANCH   4  12
ATOM     12  C   UNL     1      -5.175   3.256  25.337  0.00  0.00    +0.119 C 
BRANCH  12  15
ATOM     15  C   UNL     1      -3.777   3.808  25.262  0.00  0.00    -0.033 A 
ATOM     18  C   UNL     1      -3.390   4.581  24.167  0.00  0.00    +0.005 A 
ATOM     19  C   UNL     1      -2.867   3.549  26.287  0.00  0.00    +0.005 A 
ATOM     20  C   UNL     1      -2.093   5.092  24.096  0.00  0.00    +0.000 A 
ATOM     21  C   UNL     1      -1.572   4.061  26.218  0.00  0.00    +0.000 A 
ATOM     22  C   UNL     1      -1.185   4.832  25.121  0.00  0.00    +0.000 A 
ENDBRANCH  12  15
ENDBRANCH   4  12
ENDBRANCH   6   4
BRANCH   7  10
ATOM     10  C   UNL     1      -1.833   1.286  23.497  0.00  0.00    +0.114 C 
BRANCH  10   5
ATOM      5  N   UNL     1      -1.109   0.028  23.638  0.00  0.00    -0.311 NA
ATOM     23  H   UNL     1      -1.548  -0.517  24.380  0.00  0.00    +0.122 HD
BRANCH   5  14
ATOM     14  C   UNL     1       0.292   0.268  23.958  0.00  0.00    +0.048 C 
ATOM     16  C   UNL     1       0.514   1.742  24.285  0.00  0.00    +0.023 C 
ATOM     17  C   UNL     1       1.162  -0.170  22.784  0.00  0.00    +0.023 C 
ENDBRANCH   5  14
ENDBRANCH  10   5
ENDBRANCH   7  10
BRANCH   9  11
ATOM     11  C   UNL     1      -3.851  -2.433  24.231  0.00  0.00    +0.190 C 
BRANCH  11   3
ATOM      3  O   UNL     1      -2.438  -2.481  24.142  0.00  0.00    -0.392 OA
ATOM     25  H   UNL     1      -2.085  -1.991  24.903  0.00  0.00    +0.210 HD
ENDBRANCH  11   3
ENDBRANCH   9  11
TORSDOF 9
ENDMDL
MODEL 10
REMARK VINA RESULT:      -4.2      3.200      6.681
REMARK  Name = 28962345
REMARK  12 active torsions:
REMARK  status: ('A' for Active; 'I' for Inactive)
REMARK    1  A    between atoms: O_2  and  C_8
REMARK    2  A    between atoms: O_3  and  C_11
REMARK    3  A    between atoms: N_4  and  C_6
REMARK    4  A    between atoms: N_4  and  C_12
REMARK    5  A    between atoms: N_4  and  C_13
REMARK    6  A    between atoms: N_5  and  C_10
REMARK    7  A    between atoms: N_5  and  C_14
REMARK    8  A    between atoms: C_7  and  C_10
REMARK    9  A    between atoms: C_9  and  C_11
REMARK   10  A    between atoms: C_12  and  C_15
REMARK   11  A    between atoms: C_14  and  C_16
REMARK   12  A    between atoms: C_14  and  C_17
REMARK                            x       y       z     vdW  Elec       q    Type
REMARK                         _______ _______ _______ _____ _____    ______ ____
ROOT
ATOM      1  O   UNL     1      -1.860   0.923  25.717  0.00  0.00    -0.366 OA
ATOM      6  C   UNL     1      -0.280   1.018  23.912  0.00  0.00    +0.118 C 
ATOM      7  C   UNL     1      -0.558   1.429  25.363  0.00  0.00    +0.152 C 
ATOM      8  C   UNL     1      -1.675   0.749  23.367  0.00  0.00    +0.165 C 
ATOM      9  C   UNL     1      -2.419   0.227  24.589  0.00  0.00    +0.174 C 
ENDROOT
BRANCH   8   2
ATOM      2  O   UNL     1      -2.248   1.969  22.907  0.00  0.00    -0.388 OA
ATOM     24  H   UNL     1      -1.757   2.697  23.326  0.00  0.00    +0.210 HD
ENDBRANCH   8   2
BRANCH   6   4
ATOM      4  N   UNL     1       0.537  -0.197  23.887  0.00  0.00    -0.293 NA
ATOM     13  C   UNL     1      -0.309  -1.392  23.946  0.00  0.00    +0.105 C 
BRANCH   4  12
ATOM     12  C   UNL     1       1.379  -0.231  22.689  0.00  0.00    +0.119 C 
BRANCH  12  15
ATOM     15  C   UNL     1       2.844  -0.211  23.032  0.00  0.00    -0.033 A 
ATOM     18  C   UNL     1       3.602   0.934  22.787  0.00  0.00    +0.005 A 
ATOM     19  C   UNL     1       3.445  -1.336  23.596  0.00  0.00    +0.005 A 
ATOM     20  C   UNL     1       4.960   0.954  23.104  0.00  0.00    +0.000 A 
ATOM     21  C   UNL     1       4.803  -1.317  23.915  0.00  0.00    +0.000 A 
ATOM     22  C   UNL     1       5.561  -0.171  23.668  0.00  0.00    +0.000 A 
ENDBRANCH  12  15
ENDBRANCH   4  12
ENDBRANCH   6   4
BRANCH   7  10
ATOM     10  C   UNL     1      -0.582   2.941  25.558  0.00  0.00    +0.114 C 
BRANCH  10   5
ATOM      5  N   UNL     1      -1.745   3.355  26.333  0.00  0.00    -0.311 NA
ATOM     23  H   UNL     1      -2.402   2.576  26.373  0.00  0.00    +0.122 HD
BRANCH   5  14
ATOM     14  C   UNL     1      -2.385   4.516  25.730  0.00  0.00    +0.048 C 
ATOM     16  C   UNL     1      -3.557   4.079  24.856  0.00  0.00    +0.023 C 
ATOM     17  C   UNL     1      -1.356   5.297  24.917  0.00  0.00    +0.023 C 
ENDBRANCH   5  14
ENDBRANCH  10   5
ENDBRANCH   7  10
BRANCH   9  11
ATOM     11  C   UNL     1      -3.923   0.430  24.573  0.00  0.00    +0.190 C 
BRANCH  11   3
ATOM      3  O   UNL     1      -4.539  -0.782  24.174  0.00  0.00    -0.392 OA
ATOM     25  H   UNL     1      -3.829  -1.391  23.909  0.00  0.00    +0.210 HD
ENDBRANCH  11   3
ENDBRANCH   9  11
TORSDOF 9
ENDMDL
