MODEL 1
REMARK VINA RESULT:      -6.7      0.000      0.000
REMARK  Name = 56775651
REMARK  8 active torsions:
REMARK  status: ('A' for Active; 'I' for Inactive)
REMARK    1  A    between atoms: O_4  and  C_17
REMARK    2  A    between atoms: O_4  and  C_20
REMARK    3  A    between atoms: N_5  and  C_7
REMARK    4  A    between atoms: N_5  and  C_12
REMARK    5  A    between atoms: C_7  and  C_10
REMARK    6  A    between atoms: C_10  and  C_11
REMARK    7  A    between atoms: C_12  and  C_14
REMARK    8  A    between atoms: C_15  and  C_17
REMARK                            x       y       z     vdW  Elec       q    Type
REMARK                         _______ _______ _______ _____ _____    ______ ____
ROOT
ATOM     10  C   UNL     1      -1.894   2.940  25.378  0.00  0.00    +0.085 C 
ENDROOT
BRANCH  10  11
ATOM      2  O   UNL     1      -0.269  -0.213  24.964  0.00  0.00    -0.356 OA
ATOM      6  N   UNL     1      -1.002   0.703  25.709  0.00  0.00    -0.083 NA
ATOM     11  C   UNL     1      -1.152   1.760  24.906  0.00  0.00    +0.086 A 
ATOM     13  C   UNL     1      -0.540   1.570  23.655  0.00  0.00    +0.074 A 
ATOM     15  C   UNL     1       0.000   0.315  23.744  0.00  0.00    +0.175 A 
BRANCH  15  17
ATOM     17  C   UNL     1       0.791  -0.545  22.802  0.00  0.00    +0.306 C 
BRANCH  17   4
ATOM      4  O   UNL     1       1.887   0.211  22.290  0.00  0.00    -0.484 OA
BRANCH   4  20
ATOM     20  C   UNL     1       3.107  -0.008  22.854  0.00  0.00    +0.121 A 
ATOM     21  C   UNL     1       4.042   1.024  22.918  0.00  0.00    +0.045 A 
ATOM     22  C   UNL     1       3.420  -1.267  23.369  0.00  0.00    +0.045 A 
ATOM     23  C   UNL     1       5.291   0.799  23.497  0.00  0.00    +0.004 A 
ATOM     24  C   UNL     1       4.669  -1.492  23.947  0.00  0.00    +0.004 A 
ATOM     25  C   UNL     1       5.605  -0.460  24.011  0.00  0.00    +0.000 A 
ENDBRANCH   4  20
ENDBRANCH  17   4
ENDBRANCH  15  17
ENDBRANCH  10  11
BRANCH  10   7
ATOM      1  O   UNL     1      -5.033   4.184  25.216  0.00  0.00    -0.376 OA
ATOM      7  C   UNL     1      -3.362   2.885  24.937  0.00  0.00    +0.072 C 
ATOM      8  C   UNL     1      -4.454   3.099  25.978  0.00  0.00    +0.184 C 
ATOM      9  C   UNL     1      -3.970   4.096  24.238  0.00  0.00    +0.184 C 
BRANCH   7   5
ATOM      5  N   UNL     1      -3.678   1.691  24.165  0.00  0.00    -0.300 NA
ATOM     26  H   UNL     1      -2.872   1.171  23.823  0.00  0.00    +0.123 HD
BRANCH   5  12
ATOM     12  C   UNL     1      -4.538   0.809  24.950  0.00  0.00    +0.156 C 
BRANCH  12  14
ATOM      3  O   UNL     1      -3.590  -1.201  25.944  0.00  0.00    -0.467 OA
ATOM     14  C   UNL     1      -4.123  -0.633  24.830  0.00  0.00    +0.119 A 
ATOM     16  C   UNL     1      -4.167  -1.542  23.798  0.00  0.00    +0.046 A 
ATOM     18  C   UNL     1      -3.627  -2.746  24.311  0.00  0.00    +0.041 A 
ATOM     19  C   UNL     1      -3.290  -2.486  25.618  0.00  0.00    +0.195 A 
ENDBRANCH  12  14
ENDBRANCH   5  12
ENDBRANCH   7   5
ENDBRANCH  10   7
TORSDOF 8
ENDMDL
MODEL 2
REMARK VINA RESULT:      -5.4      1.561      6.953
REMARK  Name = 56775651
REMARK  8 active torsions:
REMARK  status: ('A' for Active; 'I' for Inactive)
REMARK    1  A    between atoms: O_4  and  C_17
REMARK    2  A    between atoms: O_4  and  C_20
REMARK    3  A    between atoms: N_5  and  C_7
REMARK    4  A    between atoms: N_5  and  C_12
REMARK    5  A    between atoms: C_7  and  C_10
REMARK    6  A    between atoms: C_10  and  C_11
REMARK    7  A    between atoms: C_12  and  C_14
REMARK    8  A    between atoms: C_15  and  C_17
REMARK                            x       y       z     vdW  Elec       q    Type
REMARK                         _______ _______ _______ _____ _____    ______ ____
ROOT
ATOM     10  C   UNL     1      -1.672  -1.150  24.162  0.00  0.00    +0.085 C 
ENDROOT
BRANCH  10  11
ATOM      2  O   UNL     1      -4.587  -0.071  25.920  0.00  0.00    -0.356 OA
ATOM      6  N   UNL     1      -3.450  -0.861  25.794  0.00  0.00    -0.083 NA
ATOM     11  C   UNL     1      -2.911  -0.505  24.624  0.00  0.00    +0.086 A 
ATOM     13  C   UNL     1      -3.656   0.495  23.976  0.00  0.00    +0.074 A 
ATOM     15  C   UNL     1      -4.698   0.732  24.832  0.00  0.00    +0.175 A 
BRANCH  15  17
ATOM     17  C   UNL     1      -5.878   1.658  24.801  0.00  0.00    +0.306 C 
BRANCH  17   4
ATOM      4  O   UNL     1      -5.603   2.790  25.626  0.00  0.00    -0.484 OA
BRANCH   4  20
ATOM     20  C   UNL     1      -4.411   3.419  25.436  0.00  0.00    +0.121 A 
ATOM     21  C   UNL     1      -4.064   3.889  24.170  0.00  0.00    +0.045 A 
ATOM     22  C   UNL     1      -3.537   3.594  26.510  0.00  0.00    +0.045 A 
ATOM     23  C   UNL     1      -2.843   4.534  23.976  0.00  0.00    +0.004 A 
ATOM     24  C   UNL     1      -2.316   4.239  26.315  0.00  0.00    +0.004 A 
ATOM     25  C   UNL     1      -1.967   4.709  25.049  0.00  0.00    +0.000 A 
ENDBRANCH   4  20
ENDBRANCH  17   4
ENDBRANCH  15  17
ENDBRANCH  10  11
BRANCH  10   7
ATOM      1  O   UNL     1      -0.373   1.966  24.332  0.00  0.00    -0.376 OA
ATOM      7  C   UNL     1      -0.504  -0.156  24.136  0.00  0.00    +0.072 C 
ATOM      8  C   UNL     1      -0.592   1.062  23.224  0.00  0.00    +0.184 C 
ATOM      9  C   UNL     1      -0.374   0.861  25.265  0.00  0.00    +0.184 C 
BRANCH   7   5
ATOM      5  N   UNL     1       0.786  -0.801  23.934  0.00  0.00    -0.300 NA
ATOM     26  H   UNL     1       0.749  -1.810  23.802  0.00  0.00    +0.123 HD
BRANCH   5  12
ATOM     12  C   UNL     1       1.477  -0.179  22.808  0.00  0.00    +0.156 C 
BRANCH  12  14
ATOM      3  O   UNL     1       3.556  -1.181  23.585  0.00  0.00    -0.467 OA
ATOM     14  C   UNL     1       2.962  -0.085  23.043  0.00  0.00    +0.119 A 
ATOM     16  C   UNL     1       3.889   0.905  22.818  0.00  0.00    +0.046 A 
ATOM     18  C   UNL     1       5.133   0.386  23.250  0.00  0.00    +0.041 A 
ATOM     19  C   UNL     1       4.876  -0.885  23.709  0.00  0.00    +0.195 A 
ENDBRANCH  12  14
ENDBRANCH   5  12
ENDBRANCH   7   5
ENDBRANCH  10   7
TORSDOF 8
ENDMDL
MODEL 3
REMARK VINA RESULT:      -5.3      1.908      7.283
REMARK  Name = 56775651
REMARK  8 active torsions:
REMARK  status: ('A' for Active; 'I' for Inactive)
REMARK    1  A    between atoms: O_4  and  C_17
REMARK    2  A    between atoms: O_4  and  C_20
REMARK    3  A    between atoms: N_5  and  C_7
REMARK    4  A    between atoms: N_5  and  C_12
REMARK    5  A    between atoms: C_7  and  C_10
REMARK    6  A    between atoms: C_10  and  C_11
REMARK    7  A    between atoms: C_12  and  C_14
REMARK    8  A    between atoms: C_15  and  C_17
REMARK                            x       y       z     vdW  Elec       q    Type
REMARK                         _______ _______ _______ _____ _____    ______ ____
ROOT
ATOM     10  C   UNL     1       0.957   1.407  24.319  0.00  0.00    +0.085 C 
ENDROOT
BRANCH  10  11
ATOM      2  O   UNL     1      -1.245   3.272  26.422  0.00  0.00    -0.356 OA
ATOM      6  N   UNL     1      -0.301   2.274  26.209  0.00  0.00    -0.083 NA
ATOM     11  C   UNL     1      -0.023   2.336  24.904  0.00  0.00    +0.086 A 
ATOM     13  C   UNL     1      -0.754   3.342  24.249  0.00  0.00    +0.074 A 
ATOM     15  C   UNL     1      -1.506   3.900  25.248  0.00  0.00    +0.175 A 
BRANCH  15  17
ATOM     17  C   UNL     1      -2.511   5.013  25.294  0.00  0.00    +0.306 C 
BRANCH  17   4
ATOM      4  O   UNL     1      -3.624   4.670  24.469  0.00  0.00    -0.484 OA
BRANCH   4  20
ATOM     20  C   UNL     1      -4.289   3.522  24.773  0.00  0.00    +0.121 A 
ATOM     21  C   UNL     1      -5.288   3.530  25.745  0.00  0.00    +0.045 A 
ATOM     22  C   UNL     1      -3.969   2.336  24.111  0.00  0.00    +0.045 A 
ATOM     23  C   UNL     1      -5.969   2.353  26.056  0.00  0.00    +0.004 A 
ATOM     24  C   UNL     1      -4.649   1.159  24.423  0.00  0.00    +0.004 A 
ATOM     25  C   UNL     1      -5.649   1.167  25.395  0.00  0.00    +0.000 A 
ENDBRANCH   4  20
ENDBRANCH  17   4
ENDBRANCH  15  17
ENDBRANCH  10  11
BRANCH  10   7
ATOM      1  O   UNL     1      -1.612  -0.790  24.262  0.00  0.00    -0.376 OA
ATOM      7  C   UNL     1       0.285   0.106  23.863  0.00  0.00    +0.072 C 
ATOM      8  C   UNL     1      -0.320  -0.820  24.912  0.00  0.00    +0.184 C 
ATOM      9  C   UNL     1      -1.127   0.164  23.289  0.00  0.00    +0.184 C 
BRANCH   7   5
ATOM      5  N   UNL     1       1.121  -0.683  22.968  0.00  0.00    -0.300 NA
ATOM     26  H   UNL     1       0.617  -1.207  22.254  0.00  0.00    +0.123 HD
BRANCH   5  12
ATOM     12  C   UNL     1       2.118   0.179  22.338  0.00  0.00    +0.156 C 
BRANCH  12  14
ATOM      3  O   UNL     1       3.715  -1.223  23.525  0.00  0.00    -0.467 OA
ATOM     14  C   UNL     1       3.488  -0.024  22.927  0.00  0.00    +0.119 A 
ATOM     16  C   UNL     1       4.610   0.770  22.995  0.00  0.00    +0.046 A 
ATOM     18  C   UNL     1       5.589   0.010  23.679  0.00  0.00    +0.041 A 
ATOM     19  C   UNL     1       4.995  -1.194  23.980  0.00  0.00    +0.195 A 
ENDBRANCH  12  14
ENDBRANCH   5  12
ENDBRANCH   7   5
ENDBRANCH  10   7
TORSDOF 8
ENDMDL
MODEL 4
REMARK VINA RESULT:      -5.0      2.191      7.030
REMARK  Name = 56775651
REMARK  8 active torsions:
REMARK  status: ('A' for Active; 'I' for Inactive)
REMARK    1  A    between atoms: O_4  and  C_17
REMARK    2  A    between atoms: O_4  and  C_20
REMARK    3  A    between atoms: N_5  and  C_7
REMARK    4  A    between atoms: N_5  and  C_12
REMARK    5  A    between atoms: C_7  and  C_10
REMARK    6  A    between atoms: C_10  and  C_11
REMARK    7  A    between atoms: C_12  and  C_14
REMARK    8  A    between atoms: C_15  and  C_17
REMARK                            x       y       z     vdW  Elec       q    Type
REMARK                         _______ _______ _______ _____ _____    ______ ____
ROOT
ATOM     10  C   UNL     1       0.802  -1.184  24.244  0.00  0.00    +0.085 C 
ENDROOT
BRANCH  10  11
ATOM      2  O   UNL     1      -2.591  -2.282  24.440  0.00  0.00    -0.356 OA
ATOM      6  N   UNL     1      -1.288  -2.394  23.968  0.00  0.00    -0.083 NA
ATOM     11  C   UNL     1      -0.629  -1.375  24.527  0.00  0.00    +0.086 A 
ATOM     13  C   UNL     1      -1.457  -0.594  25.352  0.00  0.00    +0.074 A 
ATOM     15  C   UNL     1      -2.678  -1.206  25.263  0.00  0.00    +0.175 A 
BRANCH  15  17
ATOM     17  C   UNL     1      -4.024  -0.933  25.866  0.00  0.00    +0.306 C 
BRANCH  17   4
ATOM      4  O   UNL     1      -4.859  -0.318  24.886  0.00  0.00    -0.484 OA
BRANCH   4  20
ATOM     20  C   UNL     1      -4.803   1.039  24.790  0.00  0.00    +0.121 A 
ATOM     21  C   UNL     1      -5.562   1.831  25.651  0.00  0.00    +0.045 A 
ATOM     22  C   UNL     1      -3.987   1.637  23.829  0.00  0.00    +0.045 A 
ATOM     23  C   UNL     1      -5.505   3.221  25.553  0.00  0.00    +0.004 A 
ATOM     24  C   UNL     1      -3.931   3.027  23.730  0.00  0.00    +0.004 A 
ATOM     25  C   UNL     1      -4.689   3.820  24.591  0.00  0.00    +0.000 A 
ENDBRANCH   4  20
ENDBRANCH  17   4
ENDBRANCH  15  17
ENDBRANCH  10  11
BRANCH  10   7
ATOM      1  O   UNL     1       2.268  -0.121  21.389  0.00  0.00    -0.376 OA
ATOM      7  C   UNL     1       1.013  -0.166  23.116  0.00  0.00    +0.072 C 
ATOM      8  C   UNL     1       2.432   0.271  22.772  0.00  0.00    +0.184 C 
ATOM      9  C   UNL     1       0.947  -0.641  21.669  0.00  0.00    +0.184 C 
BRANCH   7   5
ATOM      5  N   UNL     1       0.180   1.020  23.258  0.00  0.00    -0.300 NA
ATOM     26  H   UNL     1      -0.768   0.845  23.590  0.00  0.00    +0.123 HD
BRANCH   5  12
ATOM     12  C   UNL     1       0.840   1.985  24.134  0.00  0.00    +0.156 C 
BRANCH  12  14
ATOM      3  O   UNL     1      -0.334   4.111  24.312  0.00  0.00    -0.467 OA
ATOM     14  C   UNL     1      -0.151   2.872  24.840  0.00  0.00    +0.119 A 
ATOM     16  C   UNL     1      -0.948   2.696  25.947  0.00  0.00    +0.046 A 
ATOM     18  C   UNL     1      -1.667   3.905  26.111  0.00  0.00    +0.041 A 
ATOM     19  C   UNL     1      -1.257   4.733  25.092  0.00  0.00    +0.195 A 
ENDBRANCH  12  14
ENDBRANCH   5  12
ENDBRANCH   7   5
ENDBRANCH  10   7
TORSDOF 8
ENDMDL
MODEL 5
REMARK VINA RESULT:      -4.6      1.348      3.710
REMARK  Name = 56775651
REMARK  8 active torsions:
REMARK  status: ('A' for Active; 'I' for Inactive)
REMARK    1  A    between atoms: O_4  and  C_17
REMARK    2  A    between atoms: O_4  and  C_20
REMARK    3  A    between atoms: N_5  and  C_7
REMARK    4  A    between atoms: N_5  and  C_12
REMARK    5  A    between atoms: C_7  and  C_10
REMARK    6  A    between atoms: C_10  and  C_11
REMARK    7  A    between atoms: C_12  and  C_14
REMARK    8  A    between atoms: C_15  and  C_17
REMARK                            x       y       z     vdW  Elec       q    Type
REMARK                         _______ _______ _______ _____ _____    ______ ____
ROOT
ATOM     10  C   UNL     1      -1.823  -1.002  26.133  0.00  0.00    +0.085 C 
ENDROOT
BRANCH  10  11
ATOM      2  O   UNL     1      -0.068   1.798  24.779  0.00  0.00    -0.356 OA
ATOM      6  N   UNL     1      -0.960   1.225  25.678  0.00  0.00    -0.083 NA
ATOM     11  C   UNL     1      -0.973  -0.075  25.368  0.00  0.00    +0.086 A 
ATOM     13  C   UNL     1      -0.119  -0.376  24.294  0.00  0.00    +0.074 A 
ATOM     15  C   UNL     1       0.425   0.835  23.961  0.00  0.00    +0.175 A 
BRANCH  15  17
ATOM     17  C   UNL     1       1.410   1.281  22.921  0.00  0.00    +0.306 C 
BRANCH  17   4
ATOM      4  O   UNL     1       2.117   0.143  22.430  0.00  0.00    -0.484 OA
BRANCH   4  20
ATOM     20  C   UNL     1       3.343  -0.104  22.968  0.00  0.00    +0.121 A 
ATOM     21  C   UNL     1       3.630  -1.359  23.504  0.00  0.00    +0.045 A 
ATOM     22  C   UNL     1       4.312   0.900  22.984  0.00  0.00    +0.045 A 
ATOM     23  C   UNL     1       4.887  -1.611  24.055  0.00  0.00    +0.004 A 
ATOM     24  C   UNL     1       5.567   0.648  23.535  0.00  0.00    +0.004 A 
ATOM     25  C   UNL     1       5.856  -0.607  24.071  0.00  0.00    +0.000 A 
ENDBRANCH   4  20
ENDBRANCH  17   4
ENDBRANCH  15  17
ENDBRANCH  10  11
BRANCH  10   7
ATOM      1  O   UNL     1      -3.578  -2.815  23.882  0.00  0.00    -0.376 OA
ATOM      7  C   UNL     1      -3.102  -1.348  25.359  0.00  0.00    +0.072 C 
ATOM      8  C   UNL     1      -3.035  -1.475  23.842  0.00  0.00    +0.184 C 
ATOM      9  C   UNL     1      -3.579  -2.796  25.329  0.00  0.00    +0.184 C 
BRANCH   7   5
ATOM      5  N   UNL     1      -4.227  -0.491  25.709  0.00  0.00    -0.300 NA
ATOM     26  H   UNL     1      -4.070   0.125  26.505  0.00  0.00    +0.123 HD
BRANCH   5  12
ATOM     12  C   UNL     1      -4.628   0.295  24.545  0.00  0.00    +0.156 C 
BRANCH  12  14
ATOM      3  O   UNL     1      -3.644   2.500  24.231  0.00  0.00    -0.467 OA
ATOM     14  C   UNL     1      -4.620   1.772  24.837  0.00  0.00    +0.119 A 
ATOM     16  C   UNL     1      -5.416   2.583  25.612  0.00  0.00    +0.046 A 
ATOM     18  C   UNL     1      -4.897   3.893  25.474  0.00  0.00    +0.041 A 
ATOM     19  C   UNL     1      -3.820   3.788  24.626  0.00  0.00    +0.195 A 
ENDBRANCH  12  14
ENDBRANCH   5  12
ENDBRANCH   7   5
ENDBRANCH  10   7
TORSDOF 8
ENDMDL
MODEL 6
REMARK VINA RESULT:      -4.5      2.015      6.432
REMARK  Name = 56775651
REMARK  8 active torsions:
REMARK  status: ('A' for Active; 'I' for Inactive)
REMARK    1  A    between atoms: O_4  and  C_17
REMARK    2  A    between atoms: O_4  and  C_20
REMARK    3  A    between atoms: N_5  and  C_7
REMARK    4  A    between atoms: N_5  and  C_12
REMARK    5  A    between atoms: C_7  and  C_10
REMARK    6  A    between atoms: C_10  and  C_11
REMARK    7  A    between atoms: C_12  and  C_14
REMARK    8  A    between atoms: C_15  and  C_17
REMARK                            x       y       z     vdW  Elec       q    Type
REMARK                         _______ _______ _______ _____ _____    ______ ____
ROOT
ATOM     10  C   UNL     1       1.387   1.884  23.846  0.00  0.00    +0.085 C 
ENDROOT
BRANCH  10  11
ATOM      2  O   UNL     1      -0.834   3.023  26.400  0.00  0.00    -0.356 OA
ATOM      6  N   UNL     1       0.236   2.255  25.955  0.00  0.00    -0.083 NA
ATOM     11  C   UNL     1       0.340   2.532  24.651  0.00  0.00    +0.086 A 
ATOM     13  C   UNL     1      -0.628   3.457  24.224  0.00  0.00    +0.074 A 
ATOM     15  C   UNL     1      -1.339   3.734  25.361  0.00  0.00    +0.175 A 
BRANCH  15  17
ATOM     17  C   UNL     1      -2.508   4.624  25.664  0.00  0.00    +0.306 C 
BRANCH  17   4
ATOM      4  O   UNL     1      -3.529   4.400  24.693  0.00  0.00    -0.484 OA
BRANCH   4  20
ATOM     20  C   UNL     1      -4.310   3.297  24.859  0.00  0.00    +0.121 A 
ATOM     21  C   UNL     1      -4.011   2.120  24.175  0.00  0.00    +0.045 A 
ATOM     22  C   UNL     1      -5.411   3.346  25.716  0.00  0.00    +0.045 A 
ATOM     23  C   UNL     1      -4.811   0.990  24.346  0.00  0.00    +0.004 A 
ATOM     24  C   UNL     1      -6.211   2.217  25.886  0.00  0.00    +0.004 A 
ATOM     25  C   UNL     1      -5.912   1.039  25.202  0.00  0.00    +0.000 A 
ENDBRANCH   4  20
ENDBRANCH  17   4
ENDBRANCH  15  17
ENDBRANCH  10  11
BRANCH  10   7
ATOM      1  O   UNL     1       1.143  -0.671  21.645  0.00  0.00    -0.376 OA
ATOM      7  C   UNL     1       0.981   0.459  23.450  0.00  0.00    +0.072 C 
ATOM      8  C   UNL     1       0.164   0.250  22.181  0.00  0.00    +0.184 C 
ATOM      9  C   UNL     1       2.011  -0.445  22.781  0.00  0.00    +0.184 C 
BRANCH   7   5
ATOM      5  N   UNL     1       0.351  -0.275  24.539  0.00  0.00    -0.300 NA
ATOM     26  H   UNL     1      -0.308   0.263  25.099  0.00  0.00    +0.123 HD
BRANCH   5  12
ATOM     12  C   UNL     1      -0.305  -1.469  24.014  0.00  0.00    +0.156 C 
BRANCH  12  14
ATOM      3  O   UNL     1      -1.923  -0.963  25.762  0.00  0.00    -0.467 OA
ATOM     14  C   UNL     1      -1.652  -1.694  24.649  0.00  0.00    +0.119 A 
ATOM     16  C   UNL     1      -2.715  -2.509  24.336  0.00  0.00    +0.046 A 
ATOM     18  C   UNL     1      -3.703  -2.264  25.320  0.00  0.00    +0.041 A 
ATOM     19  C   UNL     1      -3.172  -1.316  26.164  0.00  0.00    +0.195 A 
ENDBRANCH  12  14
ENDBRANCH   5  12
ENDBRANCH   7   5
ENDBRANCH  10   7
TORSDOF 8
ENDMDL
MODEL 7
REMARK VINA RESULT:      -4.5      1.817      7.199
REMARK  Name = 56775651
REMARK  8 active torsions:
REMARK  status: ('A' for Active; 'I' for Inactive)
REMARK    1  A    between atoms: O_4  and  C_17
REMARK    2  A    between atoms: O_4  and  C_20
REMARK    3  A    between atoms: N_5  and  C_7
REMARK    4  A    between atoms: N_5  and  C_12
REMARK    5  A    between atoms: C_7  and  C_10
REMARK    6  A    between atoms: C_10  and  C_11
REMARK    7  A    between atoms: C_12  and  C_14
REMARK    8  A    between atoms: C_15  and  C_17
REMARK                            x       y       z     vdW  Elec       q    Type
REMARK                         _______ _______ _______ _____ _____    ______ ____
ROOT
ATOM     10  C   UNL     1       0.287  -0.251  24.058  0.00  0.00    +0.085 C 
ENDROOT
BRANCH  10  11
ATOM      2  O   UNL     1      -2.526  -1.161  26.063  0.00  0.00    -0.356 OA
ATOM      6  N   UNL     1      -1.158  -1.025  25.854  0.00  0.00    -0.083 NA
ATOM     11  C   UNL     1      -1.046  -0.528  24.619  0.00  0.00    +0.086 A 
ATOM     13  C   UNL     1      -2.296  -0.332  24.007  0.00  0.00    +0.074 A 
ATOM     15  C   UNL     1      -3.192  -0.745  24.957  0.00  0.00    +0.175 A 
BRANCH  15  17
ATOM     17  C   UNL     1      -4.689  -0.823  25.008  0.00  0.00    +0.306 C 
BRANCH  17   4
ATOM      4  O   UNL     1      -5.238   0.205  24.184  0.00  0.00    -0.484 OA
BRANCH   4  20
ATOM     20  C   UNL     1      -5.036   1.491  24.582  0.00  0.00    +0.121 A 
ATOM     21  C   UNL     1      -4.199   2.327  23.844  0.00  0.00    +0.045 A 
ATOM     22  C   UNL     1      -5.667   1.972  25.730  0.00  0.00    +0.045 A 
ATOM     23  C   UNL     1      -3.992   3.644  24.252  0.00  0.00    +0.004 A 
ATOM     24  C   UNL     1      -5.460   3.289  26.138  0.00  0.00    +0.004 A 
ATOM     25  C   UNL     1      -4.623   4.126  25.400  0.00  0.00    +0.000 A 
ENDBRANCH   4  20
ENDBRANCH  17   4
ENDBRANCH  15  17
ENDBRANCH  10  11
BRANCH  10   7
ATOM      1  O   UNL     1      -0.529   2.978  24.640  0.00  0.00    -0.376 OA
ATOM      7  C   UNL     1       0.580   1.254  24.042  0.00  0.00    +0.072 C 
ATOM      8  C   UNL     1      -0.443   2.199  23.424  0.00  0.00    +0.184 C 
ATOM      9  C   UNL     1       0.366   2.063  25.316  0.00  0.00    +0.184 C 
BRANCH   7   5
ATOM      5  N   UNL     1       1.896   1.570  23.502  0.00  0.00    -0.300 NA
ATOM     26  H   UNL     1       2.591   1.848  24.193  0.00  0.00    +0.123 HD
BRANCH   5  12
ATOM     12  C   UNL     1       2.395   0.438  22.725  0.00  0.00    +0.156 C 
BRANCH  12  14
ATOM      3  O   UNL     1       3.880  -1.273  23.616  0.00  0.00    -0.467 OA
ATOM     14  C   UNL     1       3.765   0.008  23.177  0.00  0.00    +0.119 A 
ATOM     16  C   UNL     1       4.979   0.652  23.244  0.00  0.00    +0.046 A 
ATOM     18  C   UNL     1       5.898  -0.294  23.758  0.00  0.00    +0.041 A 
ATOM     19  C   UNL     1       5.180  -1.448  23.969  0.00  0.00    +0.195 A 
ENDBRANCH  12  14
ENDBRANCH   5  12
ENDBRANCH   7   5
ENDBRANCH  10   7
TORSDOF 8
ENDMDL
MODEL 8
REMARK VINA RESULT:      -4.3      1.803      6.268
REMARK  Name = 56775651
REMARK  8 active torsions:
REMARK  status: ('A' for Active; 'I' for Inactive)
REMARK    1  A    between atoms: O_4  and  C_17
REMARK    2  A    between atoms: O_4  and  C_20
REMARK    3  A    between atoms: N_5  and  C_7
REMARK    4  A    between atoms: N_5  and  C_12
REMARK    5  A    between atoms: C_7  and  C_10
REMARK    6  A    between atoms: C_10  and  C_11
REMARK    7  A    between atoms: C_12  and  C_14
REMARK    8  A    between atoms: C_15  and  C_17
REMARK                            x       y       z     vdW  Elec       q    Type
REMARK                         _______ _______ _______ _____ _____    ______ ____
ROOT
ATOM     10  C   UNL     1      -3.413  -0.955  23.967  0.00  0.00    +0.085 C 
ENDROOT
BRANCH  10  11
ATOM      2  O   UNL     1      -5.311   1.441  25.815  0.00  0.00    -0.356 OA
ATOM      6  N   UNL     1      -4.935   0.136  25.518  0.00  0.00    -0.083 NA
ATOM     11  C   UNL     1      -4.035   0.251  24.536  0.00  0.00    +0.086 A 
ATOM     13  C   UNL     1      -3.807   1.591  24.177  0.00  0.00    +0.074 A 
ATOM     15  C   UNL     1      -4.633   2.297  25.010  0.00  0.00    +0.175 A 
BRANCH  15  17
ATOM     17  C   UNL     1      -4.918   3.758  25.196  0.00  0.00    +0.306 C 
BRANCH  17   4
ATOM      4  O   UNL     1      -3.984   4.300  26.129  0.00  0.00    -0.484 OA
BRANCH   4  20
ATOM     20  C   UNL     1      -2.663   4.176  25.826  0.00  0.00    +0.121 A 
ATOM     21  C   UNL     1      -2.049   5.105  24.987  0.00  0.00    +0.045 A 
ATOM     22  C   UNL     1      -1.923   3.118  26.355  0.00  0.00    +0.045 A 
ATOM     23  C   UNL     1      -0.695   4.978  24.676  0.00  0.00    +0.004 A 
ATOM     24  C   UNL     1      -0.570   2.990  26.044  0.00  0.00    +0.004 A 
ATOM     25  C   UNL     1       0.045   3.919  25.205  0.00  0.00    +0.000 A 
ENDBRANCH   4  20
ENDBRANCH  17   4
ENDBRANCH  15  17
ENDBRANCH  10  11
BRANCH  10   7
ATOM      1  O   UNL     1      -0.684  -1.855  25.749  0.00  0.00    -0.376 OA
ATOM      7  C   UNL     1      -1.902  -0.977  24.231  0.00  0.00    +0.072 C 
ATOM      8  C   UNL     1      -1.389  -0.599  25.615  0.00  0.00    +0.184 C 
ATOM      9  C   UNL     1      -1.214  -2.314  24.483  0.00  0.00    +0.184 C 
BRANCH   7   5
ATOM      5  N   UNL     1      -1.141  -0.239  23.231  0.00  0.00    -0.300 NA
ATOM     26  H   UNL     1      -1.696   0.354  22.616  0.00  0.00    +0.123 HD
BRANCH   5  12
ATOM     12  C   UNL     1      -0.108   0.558  23.887  0.00  0.00    +0.156 C 
BRANCH  12  14
ATOM      3  O   UNL     1       2.195   1.295  23.605  0.00  0.00    -0.467 OA
ATOM     14  C   UNL     1       1.215   0.457  23.176  0.00  0.00    +0.119 A 
ATOM     16  C   UNL     1       1.671  -0.331  22.144  0.00  0.00    +0.046 A 
ATOM     18  C   UNL     1       3.017   0.047  21.925  0.00  0.00    +0.041 A 
ATOM     19  C   UNL     1       3.288   1.040  22.838  0.00  0.00    +0.195 A 
ENDBRANCH  12  14
ENDBRANCH   5  12
ENDBRANCH   7   5
ENDBRANCH  10   7
TORSDOF 8
ENDMDL
MODEL 9
REMARK VINA RESULT:      -4.2      2.720      5.617
REMARK  Name = 56775651
REMARK  8 active torsions:
REMARK  status: ('A' for Active; 'I' for Inactive)
REMARK    1  A    between atoms: O_4  and  C_17
REMARK    2  A    between atoms: O_4  and  C_20
REMARK    3  A    between atoms: N_5  and  C_7
REMARK    4  A    between atoms: N_5  and  C_12
REMARK    5  A    between atoms: C_7  and  C_10
REMARK    6  A    between atoms: C_10  and  C_11
REMARK    7  A    between atoms: C_12  and  C_14
REMARK    8  A    between atoms: C_15  and  C_17
REMARK                            x       y       z     vdW  Elec       q    Type
REMARK                         _______ _______ _______ _____ _____    ______ ____
ROOT
ATOM     10  C   UNL     1      -1.261  -2.280  24.625  0.00  0.00    +0.085 C 
ENDROOT
BRANCH  10  11
ATOM      2  O   UNL     1       0.635   0.254  22.970  0.00  0.00    -0.356 OA
ATOM      6  N   UNL     1       0.094  -1.024  23.045  0.00  0.00    -0.083 NA
ATOM     11  C   UNL     1      -0.556  -1.056  24.212  0.00  0.00    +0.086 A 
ATOM     13  C   UNL     1      -0.460   0.161  24.909  0.00  0.00    +0.074 A 
ATOM     15  C   UNL     1       0.298   0.949  24.085  0.00  0.00    +0.175 A 
BRANCH  15  17
ATOM     17  C   UNL     1       0.802   2.360  24.172  0.00  0.00    +0.306 C 
BRANCH  17   4
ATOM      4  O   UNL     1       0.493   2.886  25.462  0.00  0.00    -0.484 OA
BRANCH   4  20
ATOM     20  C   UNL     1      -0.624   3.658  25.563  0.00  0.00    +0.121 A 
ATOM     21  C   UNL     1      -1.695   3.237  26.351  0.00  0.00    +0.045 A 
ATOM     22  C   UNL     1      -0.697   4.871  24.877  0.00  0.00    +0.045 A 
ATOM     23  C   UNL     1      -2.838   4.029  26.454  0.00  0.00    +0.004 A 
ATOM     24  C   UNL     1      -1.841   5.662  24.980  0.00  0.00    +0.004 A 
ATOM     25  C   UNL     1      -2.912   5.242  25.768  0.00  0.00    +0.000 A 
ENDBRANCH   4  20
ENDBRANCH  17   4
ENDBRANCH  15  17
ENDBRANCH  10  11
BRANCH  10   7
ATOM      1  O   UNL     1      -4.487  -3.080  24.004  0.00  0.00    -0.376 OA
ATOM      7  C   UNL     1      -2.772  -2.038  24.735  0.00  0.00    +0.072 C 
ATOM      8  C   UNL     1      -3.617  -2.057  23.466  0.00  0.00    +0.184 C 
ATOM      9  C   UNL     1      -3.672  -3.180  25.195  0.00  0.00    +0.184 C 
BRANCH   7   5
ATOM      5  N   UNL     1      -3.102  -0.844  25.500  0.00  0.00    -0.300 NA
ATOM     26  H   UNL     1      -2.383  -0.121  25.505  0.00  0.00    +0.123 HD
BRANCH   5  12
ATOM     12  C   UNL     1      -4.363  -0.284  25.021  0.00  0.00    +0.156 C 
BRANCH  12  14
ATOM      3  O   UNL     1      -3.117   1.136  23.485  0.00  0.00    -0.467 OA
ATOM     14  C   UNL     1      -4.165   1.047  24.345  0.00  0.00    +0.119 A 
ATOM     16  C   UNL     1      -4.842   2.244  24.408  0.00  0.00    +0.046 A 
ATOM     18  C   UNL     1      -4.165   3.124  23.530  0.00  0.00    +0.041 A 
ATOM     19  C   UNL     1      -3.124   2.403  22.994  0.00  0.00    +0.195 A 
ENDBRANCH  12  14
ENDBRANCH   5  12
ENDBRANCH   7   5
ENDBRANCH  10   7
TORSDOF 8
ENDMDL
MODEL 10
REMARK VINA RESULT:      -4.0     15.019     18.752
REMARK  Name = 56775651
REMARK  8 active torsions:
REMARK  status: ('A' for Active; 'I' for Inactive)
REMARK    1  A    between atoms: O_4  and  C_17
REMARK    2  A    between atoms: O_4  and  C_20
REMARK    3  A    between atoms: N_5  and  C_7
REMARK    4  A    between atoms: N_5  and  C_12
REMARK    5  A    between atoms: C_7  and  C_10
REMARK    6  A    between atoms: C_10  and  C_11
REMARK    7  A    between atoms: C_12  and  C_14
REMARK    8  A    between atoms: C_15  and  C_17
REMARK                            x       y       z     vdW  Elec       q    Type
REMARK                         _______ _______ _______ _____ _____    ______ ____
ROOT
ATOM     10  C   UNL     1      14.206  -6.563  29.535  0.00  0.00    +0.085 C 
ENDROOT
BRANCH  10  11
ATOM      2  O   UNL     1      12.084  -8.685  31.471  0.00  0.00    -0.356 OA
ATOM      6  N   UNL     1      13.159  -8.472  30.617  0.00  0.00    -0.083 NA
ATOM     11  C   UNL     1      13.178  -7.152  30.407  0.00  0.00    +0.086 A 
ATOM     13  C   UNL     1      12.148  -6.489  31.096  0.00  0.00    +0.074 A 
ATOM     15  C   UNL     1      11.490  -7.497  31.749  0.00  0.00    +0.175 A 
BRANCH  15  17
ATOM     17  C   UNL     1      10.302  -7.540  32.664  0.00  0.00    +0.306 C 
BRANCH  17   4
ATOM      4  O   UNL     1       9.817  -8.880  32.735  0.00  0.00    -0.484 OA
BRANCH   4  20
ATOM     20  C   UNL     1       8.741  -9.190  31.961  0.00  0.00    +0.121 A 
ATOM     21  C   UNL     1       8.625 -10.464  31.405  0.00  0.00    +0.045 A 
ATOM     22  C   UNL     1       7.755  -8.232  31.723  0.00  0.00    +0.045 A 
ATOM     23  C   UNL     1       7.522 -10.781  30.613  0.00  0.00    +0.004 A 
ATOM     24  C   UNL     1       6.653  -8.550  30.930  0.00  0.00    +0.004 A 
ATOM     25  C   UNL     1       6.535  -9.823  30.374  0.00  0.00    +0.000 A 
ENDBRANCH   4  20
ENDBRANCH  17   4
ENDBRANCH  15  17
ENDBRANCH  10  11
BRANCH  10   7
ATOM      1  O   UNL     1      17.009  -5.677  31.204  0.00  0.00    -0.376 OA
ATOM      7  C   UNL     1      15.615  -6.836  30.076  0.00  0.00    +0.072 C 
ATOM      8  C   UNL     1      16.722  -5.827  29.795  0.00  0.00    +0.184 C 
ATOM      9  C   UNL     1      15.911  -6.554  31.545  0.00  0.00    +0.184 C 
BRANCH   7   5
ATOM      5  N   UNL     1      16.101  -8.169  29.748  0.00  0.00    -0.300 NA
ATOM     26  H   UNL     1      15.376  -8.860  29.560  0.00  0.00    +0.123 HD
BRANCH   5  12
ATOM     12  C   UNL     1      17.019  -8.094  28.614  0.00  0.00    +0.156 C 
BRANCH  12  14
ATOM      3  O   UNL     1      16.626  -9.880  27.006  0.00  0.00    -0.467 OA
ATOM     14  C   UNL     1      16.380  -8.586  27.342  0.00  0.00    +0.119 A 
ATOM     16  C   UNL     1      15.567  -7.990  26.406  0.00  0.00    +0.046 A 
ATOM     18  C   UNL     1      15.295  -8.981  25.433  0.00  0.00    +0.041 A 
ATOM     19  C   UNL     1      15.963 -10.112  25.843  0.00  0.00    +0.195 A 
ENDBRANCH  12  14
ENDBRANCH   5  12
ENDBRANCH   7   5
ENDBRANCH  10   7
TORSDOF 8
ENDMDL
