MODEL 1
REMARK VINA RESULT:       3.1      0.000      0.000
REMARK  Name = 71693480
REMARK  12 active torsions:
REMARK  status: ('A' for Active; 'I' for Inactive)
REMARK    1  A    between atoms: O_2  and  C_11
REMARK    2  A    between atoms: N_6  and  C_14
REMARK    3  A    between atoms: N_7  and  C_25
REMARK    4  A    between atoms: N_7  and  C_26
REMARK    5  A    between atoms: N_8  and  C_21
REMARK    6  A    between atoms: C_9  and  C_11
REMARK    7  A    between atoms: C_10  and  C_12
REMARK    8  A    between atoms: C_14  and  C_18
REMARK    9  A    between atoms: C_22  and  C_23
REMARK   10  A    between atoms: C_22  and  C_27
REMARK   11  A    between atoms: C_22  and  C_28
REMARK   12  A    between atoms: C_23  and  C_24
REMARK                            x       y       z     vdW  Elec       q    Type
REMARK                         _______ _______ _______ _____ _____    ______ ____
ROOT
ATOM      1  O   UNL     1      -2.941  -0.135  25.362  0.00  0.00    -0.361 OA
ATOM      3  O   UNL     1      -6.145   1.196  26.174  0.00  0.00    -0.273 OA
ATOM      6  N   UNL     1      -4.457   2.137  24.872  0.00  0.00    -0.283 N 
ATOM      9  C   UNL     1      -3.081   2.028  24.329  0.00  0.00    +0.135 C 
ATOM     10  C   UNL     1      -2.671   0.555  24.142  0.00  0.00    +0.171 C 
ATOM     13  C   UNL     1      -5.059   1.108  25.597  0.00  0.00    +0.242 C 
ATOM     15  C   UNL     1      -4.327  -0.220  25.593  0.00  0.00    +0.256 C 
ENDROOT
BRANCH  10  12
ATOM     12  C   UNL     1      -1.201   0.352  23.835  0.00  0.00    -0.017 A 
ATOM     16  C   UNL     1      -0.761  -0.856  23.293  0.00  0.00    +0.008 A 
ATOM     17  C   UNL     1      -0.288   1.373  24.095  0.00  0.00    +0.008 A 
ATOM     19  C   UNL     1       0.591  -1.042  23.010  0.00  0.00    +0.023 A 
ATOM     20  C   UNL     1       1.066   1.188  23.812  0.00  0.00    +0.023 A 
ATOM     21  C   UNL     1       1.506  -0.020  23.270  0.00  0.00    +0.033 A 
BRANCH  21   8
ATOM      5  O   UNL     1       3.658   1.982  22.670  0.00  0.00    -0.275 OA
ATOM      8  N   UNL     1       2.859  -0.207  22.986  0.00  0.00    -0.285 N 
ATOM     24  C   UNL     1       3.834   0.769  22.723  0.00  0.00    +0.217 C 
ATOM     30  H   UNL     1       3.155  -1.178  22.950  0.00  0.00    +0.155 HD
BRANCH  24  23
ATOM     23  C   UNL     1       5.195   0.134  22.461  0.00  0.00    +0.099 C 
BRANCH  23  22
ATOM     22  C   UNL     1       5.844  -0.482  23.711  0.00  0.00    -0.008 C 
ATOM     27  C   UNL     1       5.157  -1.803  24.062  0.00  0.00    +0.008 C 
ATOM     28  C   UNL     1       5.768   0.472  24.906  0.00  0.00    +0.008 C 
ENDBRANCH  23  22
ENDBRANCH  24  23
ENDBRANCH  21   8
ENDBRANCH  10  12
BRANCH   9  11
ATOM     11  C   UNL     1      -2.901   2.810  23.020  0.00  0.00    +0.181 C 
BRANCH  11   2
ATOM      2  O   UNL     1      -2.827   1.880  21.958  0.00  0.00    -0.393 OA
ATOM     29  H   UNL     1      -2.978   0.997  22.337  0.00  0.00    +0.209 HD
ENDBRANCH  11   2
ENDBRANCH   9  11
BRANCH   6  14
ATOM     14  C   UNL     1      -5.102   3.447  24.851  0.00  0.00    +0.204 C 
BRANCH  14  18
ATOM      4  O   UNL     1      -4.147   5.186  23.503  0.00  0.00    -0.274 OA
ATOM      7  N   UNL     1      -3.074   4.704  25.503  0.00  0.00    -0.306 N 
ATOM     18  C   UNL     1      -4.077   4.526  24.543  0.00  0.00    +0.232 C 
ATOM     25  C   UNL     1      -3.012   3.912  26.725  0.00  0.00    +0.131 C 
ATOM     26  C   UNL     1      -2.015   5.700  25.352  0.00  0.00    +0.131 C 
ENDBRANCH  14  18
ENDBRANCH   6  14
TORSDOF 8
ENDMDL
MODEL 2
REMARK VINA RESULT:       4.0      1.583      2.269
REMARK  Name = 71693480
REMARK  12 active torsions:
REMARK  status: ('A' for Active; 'I' for Inactive)
REMARK    1  A    between atoms: O_2  and  C_11
REMARK    2  A    between atoms: N_6  and  C_14
REMARK    3  A    between atoms: N_7  and  C_25
REMARK    4  A    between atoms: N_7  and  C_26
REMARK    5  A    between atoms: N_8  and  C_21
REMARK    6  A    between atoms: C_9  and  C_11
REMARK    7  A    between atoms: C_10  and  C_12
REMARK    8  A    between atoms: C_14  and  C_18
REMARK    9  A    between atoms: C_22  and  C_23
REMARK   10  A    between atoms: C_22  and  C_27
REMARK   11  A    between atoms: C_22  and  C_28
REMARK   12  A    between atoms: C_23  and  C_24
REMARK                            x       y       z     vdW  Elec       q    Type
REMARK                         _______ _______ _______ _____ _____    ______ ____
ROOT
ATOM      1  O   UNL     1      -1.701  -0.545  24.586  0.00  0.00    -0.361 OA
ATOM      3  O   UNL     1      -5.188  -0.002  25.073  0.00  0.00    -0.273 OA
ATOM      6  N   UNL     1      -3.612   1.405  24.090  0.00  0.00    -0.283 N 
ATOM      9  C   UNL     1      -2.193   1.643  23.727  0.00  0.00    +0.135 C 
ATOM     10  C   UNL     1      -1.453   0.315  23.474  0.00  0.00    +0.171 C 
ATOM     13  C   UNL     1      -4.051   0.200  24.641  0.00  0.00    +0.242 C 
ATOM     15  C   UNL     1      -3.051  -0.939  24.623  0.00  0.00    +0.256 C 
ENDROOT
BRANCH  10  12
ATOM     12  C   UNL     1       0.050   0.455  23.349  0.00  0.00    -0.017 A 
ATOM     16  C   UNL     1       0.718   1.463  24.044  0.00  0.00    +0.008 A 
ATOM     17  C   UNL     1       0.766  -0.424  22.537  0.00  0.00    +0.008 A 
ATOM     19  C   UNL     1       2.102   1.591  23.929  0.00  0.00    +0.023 A 
ATOM     20  C   UNL     1       2.151  -0.296  22.421  0.00  0.00    +0.023 A 
ATOM     21  C   UNL     1       2.819   0.712  23.117  0.00  0.00    +0.033 A 
BRANCH  21   8
ATOM      5  O   UNL     1       5.027  -0.949  24.286  0.00  0.00    -0.275 OA
ATOM      8  N   UNL     1       4.203   0.840  23.002  0.00  0.00    -0.285 N 
ATOM     24  C   UNL     1       5.201   0.025  23.561  0.00  0.00    +0.217 C 
ATOM     30  H   UNL     1       4.511   1.641  22.458  0.00  0.00    +0.155 HD
BRANCH  24  23
ATOM     23  C   UNL     1       6.594   0.520  23.186  0.00  0.00    +0.099 C 
BRANCH  23  22
ATOM     22  C   UNL     1       7.678  -0.568  23.249  0.00  0.00    -0.008 C 
ATOM     27  C   UNL     1       9.066   0.072  23.198  0.00  0.00    +0.008 C 
ATOM     28  C   UNL     1       7.529  -1.568  22.100  0.00  0.00    +0.008 C 
ENDBRANCH  23  22
ENDBRANCH  24  23
ENDBRANCH  21   8
ENDBRANCH  10  12
BRANCH   9  11
ATOM     11  C   UNL     1      -2.044   2.583  22.523  0.00  0.00    +0.181 C 
BRANCH  11   2
ATOM      2  O   UNL     1      -2.480   1.894  21.369  0.00  0.00    -0.393 OA
ATOM     29  H   UNL     1      -2.350   0.945  21.534  0.00  0.00    +0.209 HD
ENDBRANCH  11   2
ENDBRANCH   9  11
BRANCH   6  14
ATOM     14  C   UNL     1      -4.521   2.548  24.093  0.00  0.00    +0.204 C 
BRANCH  14  18
ATOM      4  O   UNL     1      -5.626   2.850  26.199  0.00  0.00    -0.274 OA
ATOM      7  N   UNL     1      -3.587   3.924  25.923  0.00  0.00    -0.306 N 
ATOM     18  C   UNL     1      -4.644   3.110  25.498  0.00  0.00    +0.232 C 
ATOM     25  C   UNL     1      -2.437   4.216  25.077  0.00  0.00    +0.131 C 
ATOM     26  C   UNL     1      -3.559   4.541  27.247  0.00  0.00    +0.131 C 
ENDBRANCH  14  18
ENDBRANCH   6  14
TORSDOF 8
ENDMDL
MODEL 3
REMARK VINA RESULT:       5.6      1.937      3.931
REMARK  Name = 71693480
REMARK  12 active torsions:
REMARK  status: ('A' for Active; 'I' for Inactive)
REMARK    1  A    between atoms: O_2  and  C_11
REMARK    2  A    between atoms: N_6  and  C_14
REMARK    3  A    between atoms: N_7  and  C_25
REMARK    4  A    between atoms: N_7  and  C_26
REMARK    5  A    between atoms: N_8  and  C_21
REMARK    6  A    between atoms: C_9  and  C_11
REMARK    7  A    between atoms: C_10  and  C_12
REMARK    8  A    between atoms: C_14  and  C_18
REMARK    9  A    between atoms: C_22  and  C_23
REMARK   10  A    between atoms: C_22  and  C_27
REMARK   11  A    between atoms: C_22  and  C_28
REMARK   12  A    between atoms: C_23  and  C_24
REMARK                            x       y       z     vdW  Elec       q    Type
REMARK                         _______ _______ _______ _____ _____    ______ ____
ROOT
ATOM      1  O   UNL     1      -2.232   2.127  22.995  0.00  0.00    -0.361 OA
ATOM      3  O   UNL     1      -5.551   2.109  24.292  0.00  0.00    -0.273 OA
ATOM      6  N   UNL     1      -3.688   0.913  25.022  0.00  0.00    -0.283 N 
ATOM      9  C   UNL     1      -2.260   0.569  24.823  0.00  0.00    +0.135 C 
ATOM     10  C   UNL     1      -1.496   1.726  24.151  0.00  0.00    +0.171 C 
ATOM     13  C   UNL     1      -4.341   1.876  24.250  0.00  0.00    +0.242 C 
ATOM     15  C   UNL     1      -3.453   2.724  23.362  0.00  0.00    +0.256 C 
ENDROOT
BRANCH  10  12
ATOM     12  C   UNL     1      -0.101   1.363  23.684  0.00  0.00    -0.017 A 
ATOM     16  C   UNL     1       0.955   2.252  23.882  0.00  0.00    +0.008 A 
ATOM     17  C   UNL     1       0.126   0.139  23.054  0.00  0.00    +0.008 A 
ATOM     19  C   UNL     1       2.239   1.917  23.452  0.00  0.00    +0.023 A 
ATOM     20  C   UNL     1       1.410  -0.196  22.623  0.00  0.00    +0.023 A 
ATOM     21  C   UNL     1       2.467   0.693  22.822  0.00  0.00    +0.033 A 
BRANCH  21   8
ATOM      5  O   UNL     1       5.100   0.868  24.250  0.00  0.00    -0.275 OA
ATOM      8  N   UNL     1       3.751   0.358  22.393  0.00  0.00    -0.285 N 
ATOM     24  C   UNL     1       4.957   0.448  23.107  0.00  0.00    +0.217 C 
ATOM     30  H   UNL     1       3.805   0.029  21.433  0.00  0.00    +0.155 HD
BRANCH  24  23
ATOM     23  C   UNL     1       6.136  -0.023  22.262  0.00  0.00    +0.099 C 
BRANCH  23  22
ATOM     22  C   UNL     1       7.116  -0.936  23.015  0.00  0.00    -0.008 C 
ATOM     27  C   UNL     1       6.553  -1.286  24.393  0.00  0.00    +0.008 C 
ATOM     28  C   UNL     1       8.487  -0.272  23.171  0.00  0.00    +0.008 C 
ENDBRANCH  23  22
ENDBRANCH  24  23
ENDBRANCH  21   8
ENDBRANCH  10  12
BRANCH   9  11
ATOM     11  C   UNL     1      -1.567   0.150  26.128  0.00  0.00    +0.181 C 
BRANCH  11   2
ATOM      2  O   UNL     1      -0.760  -0.978  25.856  0.00  0.00    -0.393 OA
ATOM     29  H   UNL     1      -0.582  -1.417  26.705  0.00  0.00    +0.209 HD
ENDBRANCH  11   2
ENDBRANCH   9  11
BRANCH   6  14
ATOM     14  C   UNL     1      -4.489   0.051  25.887  0.00  0.00    +0.204 C 
BRANCH  14  18
ATOM      4  O   UNL     1      -3.369  -1.751  27.005  0.00  0.00    -0.274 OA
ATOM      7  N   UNL     1      -3.904  -2.077  24.770  0.00  0.00    -0.306 N 
ATOM     18  C   UNL     1      -3.868  -1.334  25.956  0.00  0.00    +0.232 C 
ATOM     25  C   UNL     1      -4.500  -1.563  23.544  0.00  0.00    +0.131 C 
ATOM     26  C   UNL     1      -3.347  -3.425  24.675  0.00  0.00    +0.131 C 
ENDBRANCH  14  18
ENDBRANCH   6  14
TORSDOF 8
ENDMDL
MODEL 4
REMARK VINA RESULT:       6.6      1.731      2.128
REMARK  Name = 71693480
REMARK  12 active torsions:
REMARK  status: ('A' for Active; 'I' for Inactive)
REMARK    1  A    between atoms: O_2  and  C_11
REMARK    2  A    between atoms: N_6  and  C_14
REMARK    3  A    between atoms: N_7  and  C_25
REMARK    4  A    between atoms: N_7  and  C_26
REMARK    5  A    between atoms: N_8  and  C_21
REMARK    6  A    between atoms: C_9  and  C_11
REMARK    7  A    between atoms: C_10  and  C_12
REMARK    8  A    between atoms: C_14  and  C_18
REMARK    9  A    between atoms: C_22  and  C_23
REMARK   10  A    between atoms: C_22  and  C_27
REMARK   11  A    between atoms: C_22  and  C_28
REMARK   12  A    between atoms: C_23  and  C_24
REMARK                            x       y       z     vdW  Elec       q    Type
REMARK                         _______ _______ _______ _____ _____    ______ ____
ROOT
ATOM      1  O   UNL     1      -2.658  -0.873  23.671  0.00  0.00    -0.361 OA
ATOM      3  O   UNL     1      -6.110  -0.779  24.549  0.00  0.00    -0.273 OA
ATOM      6  N   UNL     1      -4.430   0.756  25.053  0.00  0.00    -0.283 N 
ATOM      9  C   UNL     1      -2.994   1.117  24.973  0.00  0.00    +0.135 C 
ATOM     10  C   UNL     1      -2.338   0.518  23.714  0.00  0.00    +0.171 C 
ATOM     13  C   UNL     1      -4.956  -0.367  24.412  0.00  0.00    +0.242 C 
ATOM     15  C   UNL     1      -4.032  -1.062  23.432  0.00  0.00    +0.256 C 
ENDROOT
BRANCH  10  12
ATOM     12  C   UNL     1      -0.827   0.625  23.689  0.00  0.00    -0.017 A 
ATOM     16  C   UNL     1      -0.053  -0.487  23.359  0.00  0.00    +0.008 A 
ATOM     17  C   UNL     1      -0.209   1.837  23.998  0.00  0.00    +0.008 A 
ATOM     19  C   UNL     1       1.337  -0.388  23.335  0.00  0.00    +0.023 A 
ATOM     20  C   UNL     1       1.182   1.937  23.975  0.00  0.00    +0.023 A 
ATOM     21  C   UNL     1       1.956   0.825  23.643  0.00  0.00    +0.033 A 
BRANCH  21   8
ATOM      5  O   UNL     1       3.892   0.437  21.384  0.00  0.00    -0.275 OA
ATOM      8  N   UNL     1       3.347   0.924  23.619  0.00  0.00    -0.285 N 
ATOM     24  C   UNL     1       4.212   0.744  22.528  0.00  0.00    +0.217 C 
ATOM     30  H   UNL     1       3.773   1.134  24.518  0.00  0.00    +0.155 HD
BRANCH  24  23
ATOM     23  C   UNL     1       5.668   0.945  22.937  0.00  0.00    +0.099 C 
BRANCH  23  22
ATOM     22  C   UNL     1       6.263  -0.235  23.720  0.00  0.00    -0.008 C 
ATOM     27  C   UNL     1       7.439  -0.836  22.949  0.00  0.00    +0.008 C 
ATOM     28  C   UNL     1       5.211  -1.317  23.982  0.00  0.00    +0.008 C 
ENDBRANCH  23  22
ENDBRANCH  24  23
ENDBRANCH  21   8
ENDBRANCH  10  12
BRANCH   9  11
ATOM     11  C   UNL     1      -2.764   2.634  25.032  0.00  0.00    +0.181 C 
BRANCH  11   2
ATOM      2  O   UNL     1      -1.880   2.905  26.100  0.00  0.00    -0.393 OA
ATOM     29  H   UNL     1      -2.374   3.420  26.761  0.00  0.00    +0.209 HD
ENDBRANCH  11   2
ENDBRANCH   9  11
BRANCH   6  14
ATOM     14  C   UNL     1      -5.263   1.461  26.024  0.00  0.00    +0.204 C 
BRANCH  14  18
ATOM      4  O   UNL     1      -6.893   2.363  24.514  0.00  0.00    -0.274 OA
ATOM      7  N   UNL     1      -5.620   3.889  25.713  0.00  0.00    -0.306 N 
ATOM     18  C   UNL     1      -6.007   2.596  25.341  0.00  0.00    +0.232 C 
ATOM     25  C   UNL     1      -4.571   4.138  26.694  0.00  0.00    +0.131 C 
ATOM     26  C   UNL     1      -6.239   5.084  25.145  0.00  0.00    +0.131 C 
ENDBRANCH  14  18
ENDBRANCH   6  14
TORSDOF 8
ENDMDL
