MODEL 1
REMARK VINA RESULT:      -4.4      0.000      0.000
REMARK  Name = 26744148
REMARK  7 active torsions:
REMARK  status: ('A' for Active; 'I' for Inactive)
REMARK    1  A    between atoms: O_2  and  C_10
REMARK    2  A    between atoms: O_4  and  C_26
REMARK    3  A    between atoms: O_4  and  C_27
REMARK    4  A    between atoms: N_5  and  C_12
REMARK    5  A    between atoms: C_8  and  C_13
REMARK    6  A    between atoms: C_12  and  C_14
REMARK    7  A    between atoms: C_17  and  C_18
REMARK                            x       y       z     vdW  Elec       q    Type
REMARK                         _______ _______ _______ _____ _____    ______ ____
ROOT
ATOM      5  N   UNL     1      -4.954   1.678  25.236  0.00  0.00    -0.285 NA
ATOM      8  C   UNL     1      -4.147   2.544  24.352  0.00  0.00    +0.149 C 
ATOM      9  C   UNL     1      -4.539   3.981  24.742  0.00  0.00    +0.061 C 
ATOM     10  C   UNL     1      -5.604   3.820  25.820  0.00  0.00    +0.130 C 
ATOM     11  C   UNL     1      -6.163   2.434  25.563  0.00  0.00    +0.116 C 
ENDROOT
BRANCH   8  13
ATOM      3  O   UNL     1      -2.079   2.666  25.649  0.00  0.00    -0.336 OA
ATOM      6  N   UNL     1      -1.835   1.741  23.624  0.00  0.00    -0.190 NA
ATOM      7  N   UNL     1      -0.724   2.330  25.534  0.00  0.00    -0.056 NA
ATOM     13  C   UNL     1      -2.661   2.286  24.482  0.00  0.00    +0.245 A 
ATOM     17  C   UNL     1      -0.659   1.790  24.314  0.00  0.00    +0.202 A 
BRANCH  17  18
ATOM     18  C   UNL     1       0.564   1.290  23.756  0.00  0.00    +0.023 A 
ATOM     22  C   UNL     1       0.631  -0.020  23.285  0.00  0.00    +0.015 A 
ATOM     23  C   UNL     1       1.686   2.115  23.686  0.00  0.00    +0.015 A 
ATOM     24  C   UNL     1       1.821  -0.508  22.743  0.00  0.00    +0.046 A 
ATOM     25  C   UNL     1       2.876   1.628  23.146  0.00  0.00    +0.046 A 
ATOM     26  C   UNL     1       2.943   0.317  22.674  0.00  0.00    +0.120 A 
BRANCH  26   4
ATOM      4  O   UNL     1       4.105  -0.157  22.146  0.00  0.00    -0.495 OA
ATOM     27  C   UNL     1       5.268  -0.091  22.970  0.00  0.00    +0.277 C 
ENDBRANCH  26   4
ENDBRANCH  17  18
ENDBRANCH   8  13
BRANCH  10   2
ATOM      2  O   UNL     1      -6.598   4.818  25.697  0.00  0.00    -0.390 OA
ATOM     28  H   UNL     1      -6.144   5.664  25.542  0.00  0.00    +0.210 HD
ENDBRANCH  10   2
BRANCH   5  12
ATOM     12  C   UNL     1      -5.262   0.382  24.647  0.00  0.00    +0.120 C 
BRANCH  12  14
ATOM      1  F   UNL     1      -0.957  -3.221  25.140  0.00  0.00    -0.205 F 
ATOM     14  C   UNL     1      -4.112  -0.581  24.779  0.00  0.00    -0.033 A 
ATOM     15  C   UNL     1      -3.954  -1.610  23.851  0.00  0.00    +0.008 A 
ATOM     16  C   UNL     1      -3.204  -0.443  25.829  0.00  0.00    +0.008 A 
ATOM     19  C   UNL     1      -2.888  -2.502  23.973  0.00  0.00    +0.038 A 
ATOM     20  C   UNL     1      -2.138  -1.335  25.951  0.00  0.00    +0.038 A 
ATOM     21  C   UNL     1      -1.981  -2.364  25.023  0.00  0.00    +0.123 A 
ENDBRANCH  12  14
ENDBRANCH   5  12
TORSDOF 6
ENDMDL
MODEL 2
REMARK VINA RESULT:      -2.3     15.583     18.227
REMARK  Name = 26744148
REMARK  7 active torsions:
REMARK  status: ('A' for Active; 'I' for Inactive)
REMARK    1  A    between atoms: O_2  and  C_10
REMARK    2  A    between atoms: O_4  and  C_26
REMARK    3  A    between atoms: O_4  and  C_27
REMARK    4  A    between atoms: N_5  and  C_12
REMARK    5  A    between atoms: C_8  and  C_13
REMARK    6  A    between atoms: C_12  and  C_14
REMARK    7  A    between atoms: C_17  and  C_18
REMARK                            x       y       z     vdW  Elec       q    Type
REMARK                         _______ _______ _______ _____ _____    ______ ____
ROOT
ATOM      5  N   UNL     1      -2.490  -9.811  12.259  0.00  0.00    -0.285 NA
ATOM      8  C   UNL     1      -3.688 -10.612  11.930  0.00  0.00    +0.149 C 
ATOM      9  C   UNL     1      -4.429 -10.781  13.269  0.00  0.00    +0.061 C 
ATOM     10  C   UNL     1      -3.549 -10.082  14.298  0.00  0.00    +0.130 C 
ATOM     11  C   UNL     1      -2.174 -10.098  13.657  0.00  0.00    +0.116 C 
ENDROOT
BRANCH   8  13
ATOM      3  O   UNL     1      -4.082 -10.035   9.587  0.00  0.00    -0.336 OA
ATOM      6  N   UNL     1      -5.688  -9.336  10.984  0.00  0.00    -0.190 NA
ATOM      7  N   UNL     1      -5.030  -9.377   8.794  0.00  0.00    -0.056 NA
ATOM     13  C   UNL     1      -4.546  -9.965  10.863  0.00  0.00    +0.245 A 
ATOM     17  C   UNL     1      -5.946  -8.994   9.689  0.00  0.00    +0.202 A 
BRANCH  17  18
ATOM     18  C   UNL     1      -7.128  -8.270   9.321  0.00  0.00    +0.023 A 
ATOM     22  C   UNL     1      -7.020  -7.047   8.661  0.00  0.00    +0.015 A 
ATOM     23  C   UNL     1      -8.386  -8.790   9.627  0.00  0.00    +0.015 A 
ATOM     24  C   UNL     1      -8.170  -6.342   8.304  0.00  0.00    +0.046 A 
ATOM     25  C   UNL     1      -9.536  -8.085   9.271  0.00  0.00    +0.046 A 
ATOM     26  C   UNL     1      -9.428  -6.862   8.610  0.00  0.00    +0.120 A 
BRANCH  26   4
ATOM      4  O   UNL     1     -10.551  -6.174   8.263  0.00  0.00    -0.495 OA
ATOM     27  C   UNL     1     -10.600  -4.791   8.613  0.00  0.00    +0.277 C 
ENDBRANCH  26   4
ENDBRANCH  17  18
ENDBRANCH   8  13
BRANCH  10   2
ATOM      2  O   UNL     1      -3.563 -10.781  15.527  0.00  0.00    -0.390 OA
ATOM     28  H   UNL     1      -3.620 -10.119  16.238  0.00  0.00    +0.210 HD
ENDBRANCH  10   2
BRANCH   5  12
ATOM     12  C   UNL     1      -1.362 -10.077  11.377  0.00  0.00    +0.120 C 
BRANCH  12  14
ATOM      1  F   UNL     1       2.715  -6.232  11.969  0.00  0.00    -0.205 F 
ATOM     14  C   UNL     1      -0.273  -9.049  11.534  0.00  0.00    -0.033 A 
ATOM     15  C   UNL     1      -0.417  -8.016  12.461  0.00  0.00    +0.008 A 
ATOM     16  C   UNL     1       0.881  -9.131  10.755  0.00  0.00    +0.008 A 
ATOM     19  C   UNL     1       0.592  -7.065  12.608  0.00  0.00    +0.038 A 
ATOM     20  C   UNL     1       1.891  -8.179  10.902  0.00  0.00    +0.038 A 
ATOM     21  C   UNL     1       1.745  -7.146  11.827  0.00  0.00    +0.123 A 
ENDBRANCH  12  14
ENDBRANCH   5  12
TORSDOF 6
ENDMDL
MODEL 3
REMARK VINA RESULT:      -1.7      1.617      2.202
REMARK  Name = 26744148
REMARK  7 active torsions:
REMARK  status: ('A' for Active; 'I' for Inactive)
REMARK    1  A    between atoms: O_2  and  C_10
REMARK    2  A    between atoms: O_4  and  C_26
REMARK    3  A    between atoms: O_4  and  C_27
REMARK    4  A    between atoms: N_5  and  C_12
REMARK    5  A    between atoms: C_8  and  C_13
REMARK    6  A    between atoms: C_12  and  C_14
REMARK    7  A    between atoms: C_17  and  C_18
REMARK                            x       y       z     vdW  Elec       q    Type
REMARK                         _______ _______ _______ _____ _____    ______ ____
ROOT
ATOM      5  N   UNL     1      -3.398   2.282  25.186  0.00  0.00    -0.285 NA
ATOM      8  C   UNL     1      -2.468   2.843  24.185  0.00  0.00    +0.149 C 
ATOM      9  C   UNL     1      -1.953   4.150  24.814  0.00  0.00    +0.061 C 
ATOM     10  C   UNL     1      -2.684   4.262  26.146  0.00  0.00    +0.130 C 
ATOM     11  C   UNL     1      -3.928   3.417  25.940  0.00  0.00    +0.116 C 
ENDROOT
BRANCH   8  13
ATOM      3  O   UNL     1      -1.724   0.648  23.408  0.00  0.00    -0.336 OA
ATOM      6  N   UNL     1      -0.055   2.072  23.858  0.00  0.00    -0.190 NA
ATOM      7  N   UNL     1      -0.538  -0.045  23.140  0.00  0.00    -0.056 NA
ATOM     13  C   UNL     1      -1.351   1.885  23.826  0.00  0.00    +0.245 A 
ATOM     17  C   UNL     1       0.402   0.860  23.429  0.00  0.00    +0.202 A 
BRANCH  17  18
ATOM     18  C   UNL     1       1.804   0.587  23.298  0.00  0.00    +0.023 A 
ATOM     22  C   UNL     1       2.285  -0.704  23.512  0.00  0.00    +0.015 A 
ATOM     23  C   UNL     1       2.685   1.613  22.958  0.00  0.00    +0.015 A 
ATOM     24  C   UNL     1       3.649  -0.970  23.386  0.00  0.00    +0.046 A 
ATOM     25  C   UNL     1       4.049   1.348  22.833  0.00  0.00    +0.046 A 
ATOM     26  C   UNL     1       4.530   0.056  23.047  0.00  0.00    +0.120 A 
BRANCH  26   4
ATOM      4  O   UNL     1       5.861  -0.203  22.924  0.00  0.00    -0.495 OA
ATOM     27  C   UNL     1       6.529  -0.727  24.071  0.00  0.00    +0.277 C 
ENDBRANCH  26   4
ENDBRANCH  17  18
ENDBRANCH   8  13
BRANCH  10   2
ATOM      2  O   UNL     1      -3.006   5.609  26.431  0.00  0.00    -0.390 OA
ATOM     28  H   UNL     1      -3.726   5.605  27.085  0.00  0.00    +0.210 HD
ENDBRANCH  10   2
BRANCH   5  12
ATOM     12  C   UNL     1      -4.457   1.474  24.597  0.00  0.00    +0.120 C 
BRANCH  12  14
ATOM      1  F   UNL     1      -3.371  -4.040  25.012  0.00  0.00    -0.205 F 
ATOM     14  C   UNL     1      -4.167   0.001  24.707  0.00  0.00    -0.033 A 
ATOM     15  C   UNL     1      -3.547  -0.504  25.851  0.00  0.00    +0.008 A 
ATOM     16  C   UNL     1      -4.518  -0.859  23.667  0.00  0.00    +0.008 A 
ATOM     19  C   UNL     1      -3.278  -1.869  25.954  0.00  0.00    +0.038 A 
ATOM     20  C   UNL     1      -4.249  -2.225  23.770  0.00  0.00    +0.038 A 
ATOM     21  C   UNL     1      -3.629  -2.728  24.913  0.00  0.00    +0.123 A 
ENDBRANCH  12  14
ENDBRANCH   5  12
TORSDOF 6
ENDMDL
MODEL 4
REMARK VINA RESULT:      -1.4     14.546     17.220
REMARK  Name = 26744148
REMARK  7 active torsions:
REMARK  status: ('A' for Active; 'I' for Inactive)
REMARK    1  A    between atoms: O_2  and  C_10
REMARK    2  A    between atoms: O_4  and  C_26
REMARK    3  A    between atoms: O_4  and  C_27
REMARK    4  A    between atoms: N_5  and  C_12
REMARK    5  A    between atoms: C_8  and  C_13
REMARK    6  A    between atoms: C_12  and  C_14
REMARK    7  A    between atoms: C_17  and  C_18
REMARK                            x       y       z     vdW  Elec       q    Type
REMARK                         _______ _______ _______ _____ _____    ______ ____
ROOT
ATOM      5  N   UNL     1      -3.130 -10.437  11.231  0.00  0.00    -0.285 NA
ATOM      8  C   UNL     1      -3.782  -9.327  11.956  0.00  0.00    +0.149 C 
ATOM      9  C   UNL     1      -4.682  -8.647  10.909  0.00  0.00    +0.061 C 
ATOM     10  C   UNL     1      -4.434  -9.416   9.617  0.00  0.00    +0.130 C 
ATOM     11  C   UNL     1      -3.064 -10.032   9.828  0.00  0.00    +0.116 C 
ENDROOT
BRANCH   8  13
ATOM      3  O   UNL     1      -3.835 -10.448  14.128  0.00  0.00    -0.336 OA
ATOM      6  N   UNL     1      -5.823  -9.671  13.451  0.00  0.00    -0.190 NA
ATOM      7  N   UNL     1      -4.747 -10.781  15.137  0.00  0.00    -0.056 NA
ATOM     13  C   UNL     1      -4.550  -9.798  13.173  0.00  0.00    +0.245 A 
ATOM     17  C   UNL     1      -5.897 -10.289  14.665  0.00  0.00    +0.202 A 
BRANCH  17  18
ATOM     18  C   UNL     1      -7.135 -10.398  15.382  0.00  0.00    +0.023 A 
ATOM     22  C   UNL     1      -7.140 -10.350  16.775  0.00  0.00    +0.015 A 
ATOM     23  C   UNL     1      -8.332 -10.552  14.684  0.00  0.00    +0.015 A 
ATOM     24  C   UNL     1      -8.343 -10.458  17.473  0.00  0.00    +0.046 A 
ATOM     25  C   UNL     1      -9.536 -10.660  15.381  0.00  0.00    +0.046 A 
ATOM     26  C   UNL     1      -9.541 -10.612  16.775  0.00  0.00    +0.120 A 
BRANCH  26   4
ATOM      4  O   UNL     1     -10.716 -10.717  17.455  0.00  0.00    -0.495 OA
ATOM     27  C   UNL     1     -10.658 -10.595  18.875  0.00  0.00    +0.277 C 
ENDBRANCH  26   4
ENDBRANCH  17  18
ENDBRANCH   8  13
BRANCH  10   2
ATOM      2  O   UNL     1      -4.452  -8.545   8.503  0.00  0.00    -0.390 OA
ATOM     28  H   UNL     1      -5.177  -7.912   8.639  0.00  0.00    +0.210 HD
ENDBRANCH  10   2
BRANCH   5  12
ATOM     12  C   UNL     1      -1.818 -10.780  11.765  0.00  0.00    +0.120 C 
BRANCH  12  14
ATOM      1  F   UNL     1       1.466  -6.236  12.335  0.00  0.00    -0.205 F 
ATOM     14  C   UNL     1      -0.940  -9.566  11.917  0.00  0.00    -0.033 A 
ATOM     15  C   UNL     1      -0.040  -9.224  10.907  0.00  0.00    +0.008 A 
ATOM     16  C   UNL     1      -1.027  -8.783  13.068  0.00  0.00    +0.008 A 
ATOM     19  C   UNL     1       0.772  -8.100  11.048  0.00  0.00    +0.038 A 
ATOM     20  C   UNL     1      -0.214  -7.657  13.209  0.00  0.00    +0.038 A 
ATOM     21  C   UNL     1       0.686  -7.317  12.199  0.00  0.00    +0.123 A 
ENDBRANCH  12  14
ENDBRANCH   5  12
TORSDOF 6
ENDMDL
MODEL 5
REMARK VINA RESULT:      -1.4      1.897      2.760
REMARK  Name = 26744148
REMARK  7 active torsions:
REMARK  status: ('A' for Active; 'I' for Inactive)
REMARK    1  A    between atoms: O_2  and  C_10
REMARK    2  A    between atoms: O_4  and  C_26
REMARK    3  A    between atoms: O_4  and  C_27
REMARK    4  A    between atoms: N_5  and  C_12
REMARK    5  A    between atoms: C_8  and  C_13
REMARK    6  A    between atoms: C_12  and  C_14
REMARK    7  A    between atoms: C_17  and  C_18
REMARK                            x       y       z     vdW  Elec       q    Type
REMARK                         _______ _______ _______ _____ _____    ______ ____
ROOT
ATOM      5  N   UNL     1      -2.648   2.307  24.645  0.00  0.00    -0.285 NA
ATOM      8  C   UNL     1      -1.618   2.774  23.694  0.00  0.00    +0.149 C 
ATOM      9  C   UNL     1      -1.073   4.075  24.310  0.00  0.00    +0.061 C 
ATOM     10  C   UNL     1      -1.889   4.282  25.580  0.00  0.00    +0.130 C 
ATOM     11  C   UNL     1      -3.162   3.500  25.316  0.00  0.00    +0.116 C 
ENDROOT
BRANCH   8  13
ATOM      3  O   UNL     1      -0.925   0.586  22.852  0.00  0.00    -0.336 OA
ATOM      6  N   UNL     1       0.739   1.793  23.740  0.00  0.00    -0.190 NA
ATOM      7  N   UNL     1       0.229  -0.199  22.738  0.00  0.00    -0.056 NA
ATOM     13  C   UNL     1      -0.537   1.741  23.452  0.00  0.00    +0.245 A 
ATOM     17  C   UNL     1       1.167   0.581  23.283  0.00  0.00    +0.202 A 
BRANCH  17  18
ATOM     18  C   UNL     1       2.541   0.179  23.386  0.00  0.00    +0.023 A 
ATOM     22  C   UNL     1       3.557   1.096  23.122  0.00  0.00    +0.015 A 
ATOM     23  C   UNL     1       2.858  -1.130  23.748  0.00  0.00    +0.015 A 
ATOM     24  C   UNL     1       4.893   0.705  23.220  0.00  0.00    +0.046 A 
ATOM     25  C   UNL     1       4.193  -1.522  23.845  0.00  0.00    +0.046 A 
ATOM     26  C   UNL     1       5.210  -0.605  23.582  0.00  0.00    +0.120 A 
BRANCH  26   4
ATOM      4  O   UNL     1       6.513  -0.987  23.678  0.00  0.00    -0.495 OA
ATOM     27  C   UNL     1       7.453  -0.302  22.852  0.00  0.00    +0.277 C 
ENDBRANCH  26   4
ENDBRANCH  17  18
ENDBRANCH   8  13
BRANCH  10   2
ATOM      2  O   UNL     1      -2.150   5.655  25.792  0.00  0.00    -0.390 OA
ATOM     28  H   UNL     1      -2.817   5.929  25.140  0.00  0.00    +0.210 HD
ENDBRANCH  10   2
BRANCH   5  12
ATOM     12  C   UNL     1      -3.709   1.536  24.010  0.00  0.00    +0.120 C 
BRANCH  12  14
ATOM      1  F   UNL     1      -3.527  -3.898  25.490  0.00  0.00    -0.205 F 
ATOM     14  C   UNL     1      -3.661   0.084  24.406  0.00  0.00    -0.033 A 
ATOM     15  C   UNL     1      -4.129  -0.894  23.528  0.00  0.00    +0.008 A 
ATOM     16  C   UNL     1      -3.148  -0.283  25.650  0.00  0.00    +0.008 A 
ATOM     19  C   UNL     1      -4.083  -2.239  23.894  0.00  0.00    +0.038 A 
ATOM     20  C   UNL     1      -3.102  -1.629  26.016  0.00  0.00    +0.038 A 
ATOM     21  C   UNL     1      -3.571  -2.605  25.138  0.00  0.00    +0.123 A 
ENDBRANCH  12  14
ENDBRANCH   5  12
TORSDOF 6
ENDMDL
MODEL 6
REMARK VINA RESULT:      -0.6      2.936      4.595
REMARK  Name = 26744148
REMARK  7 active torsions:
REMARK  status: ('A' for Active; 'I' for Inactive)
REMARK    1  A    between atoms: O_2  and  C_10
REMARK    2  A    between atoms: O_4  and  C_26
REMARK    3  A    between atoms: O_4  and  C_27
REMARK    4  A    between atoms: N_5  and  C_12
REMARK    5  A    between atoms: C_8  and  C_13
REMARK    6  A    between atoms: C_12  and  C_14
REMARK    7  A    between atoms: C_17  and  C_18
REMARK                            x       y       z     vdW  Elec       q    Type
REMARK                         _______ _______ _______ _____ _____    ______ ____
ROOT
ATOM      5  N   UNL     1      -3.072  -0.165  24.709  0.00  0.00    -0.285 NA
ATOM      8  C   UNL     1      -2.011  -1.193  24.673  0.00  0.00    +0.149 C 
ATOM      9  C   UNL     1      -2.632  -2.374  23.905  0.00  0.00    +0.061 C 
ATOM     10  C   UNL     1      -4.057  -1.935  23.592  0.00  0.00    +0.130 C 
ATOM     11  C   UNL     1      -4.344  -0.883  24.646  0.00  0.00    +0.116 C 
ENDROOT
BRANCH   8  13
ATOM      3  O   UNL     1      -0.872   0.171  22.994  0.00  0.00    -0.336 OA
ATOM      6  N   UNL     1       0.511  -0.958  24.346  0.00  0.00    -0.190 NA
ATOM      7  N   UNL     1       0.426   0.492  22.580  0.00  0.00    -0.056 NA
ATOM     13  C   UNL     1      -0.732  -0.688  24.037  0.00  0.00    +0.245 A 
ATOM     17  C   UNL     1       1.185  -0.211  23.425  0.00  0.00    +0.202 A 
BRANCH  17  18
ATOM     18  C   UNL     1       2.619  -0.189  23.376  0.00  0.00    +0.023 A 
ATOM     22  C   UNL     1       3.350  -1.279  23.845  0.00  0.00    +0.015 A 
ATOM     23  C   UNL     1       3.281   0.925  22.860  0.00  0.00    +0.015 A 
ATOM     24  C   UNL     1       4.744  -1.257  23.800  0.00  0.00    +0.046 A 
ATOM     25  C   UNL     1       4.675   0.948  22.815  0.00  0.00    +0.046 A 
ATOM     26  C   UNL     1       5.406  -0.143  23.284  0.00  0.00    +0.120 A 
BRANCH  26   4
ATOM      4  O   UNL     1       6.767  -0.120  23.238  0.00  0.00    -0.495 OA
ATOM     27  C   UNL     1       7.404  -1.080  22.396  0.00  0.00    +0.277 C 
ENDBRANCH  26   4
ENDBRANCH  17  18
ENDBRANCH   8  13
BRANCH  10   2
ATOM      2  O   UNL     1      -4.951  -3.028  23.683  0.00  0.00    -0.390 OA
ATOM     28  H   UNL     1      -5.446  -2.931  24.514  0.00  0.00    +0.210 HD
ENDBRANCH  10   2
BRANCH   5  12
ATOM     12  C   UNL     1      -2.991   0.704  25.875  0.00  0.00    +0.120 C 
BRANCH  12  14
ATOM      1  F   UNL     1      -0.401   5.566  24.690  0.00  0.00    -0.205 F 
ATOM     14  C   UNL     1      -2.299   2.003  25.559  0.00  0.00    -0.033 A 
ATOM     15  C   UNL     1      -0.926   2.132  25.769  0.00  0.00    +0.008 A 
ATOM     16  C   UNL     1      -3.031   3.078  25.055  0.00  0.00    +0.008 A 
ATOM     19  C   UNL     1      -0.285   3.335  25.475  0.00  0.00    +0.038 A 
ATOM     20  C   UNL     1      -2.389   4.282  24.761  0.00  0.00    +0.038 A 
ATOM     21  C   UNL     1      -1.017   4.410  24.972  0.00  0.00    +0.123 A 
ENDBRANCH  12  14
ENDBRANCH   5  12
TORSDOF 6
ENDMDL
