MODEL 1
REMARK VINA RESULT:      -6.8      0.000      0.000
REMARK  Name = 71693823
REMARK  4 active torsions:
REMARK  status: ('A' for Active; 'I' for Inactive)
REMARK    1  A    between atoms: O_1  and  C_6
REMARK    2  A    between atoms: O_2  and  C_8
REMARK    3  A    between atoms: N_3  and  C_4
REMARK    4  A    between atoms: C_5  and  C_11
REMARK                            x       y       z     vdW  Elec       q    Type
REMARK                         _______ _______ _______ _____ _____    ______ ____
ROOT
ATOM      4  C   UNL     1      -2.066   0.497  25.032  0.00  0.00    +0.095 C 
ATOM      5  C   UNL     1      -2.435   1.695  24.103  0.00  0.00    +0.041 C 
ATOM      6  C   UNL     1      -0.539   0.568  25.193  0.00  0.00    +0.161 C 
ATOM      7  C   UNL     1      -1.102   2.386  23.759  0.00  0.00    +0.043 C 
ATOM      8  C   UNL     1      -0.069   1.281  23.928  0.00  0.00    +0.145 C 
ENDROOT
BRANCH   4   3
ATOM      3  N   UNL     1      -2.441  -0.760  24.385  0.00  0.00    -0.296 NA
ATOM      9  C   UNL     1      -3.886  -0.992  24.513  0.00  0.00    +0.085 C 
ATOM     10  C   UNL     1      -1.670  -1.877  24.946  0.00  0.00    +0.085 C 
ATOM     12  C   UNL     1      -4.303  -2.279  23.797  0.00  0.00    +0.015 C 
ATOM     13  C   UNL     1      -2.015  -3.193  24.245  0.00  0.00    +0.015 C 
ATOM     14  C   UNL     1      -3.511  -3.477  24.306  0.00  0.00    +0.002 C 
ENDBRANCH   4   3
BRANCH   5  11
ATOM     11  C   UNL     1      -3.462   2.638  24.689  0.00  0.00    -0.043 A 
ATOM     15  C   UNL     1      -3.083   3.919  25.094  0.00  0.00    +0.004 A 
ATOM     16  C   UNL     1      -4.788   2.227  24.826  0.00  0.00    +0.004 A 
ATOM     17  C   UNL     1      -4.030   4.788  25.635  0.00  0.00    +0.000 A 
ATOM     18  C   UNL     1      -5.736   3.097  25.367  0.00  0.00    +0.000 A 
ATOM     19  C   UNL     1      -5.357   4.377  25.771  0.00  0.00    +0.000 A 
ENDBRANCH   5  11
BRANCH   6   1
ATOM      1  O   UNL     1      -0.244   1.348  26.350  0.00  0.00    -0.388 OA
ATOM     20  H   UNL     1      -0.945   2.018  26.435  0.00  0.00    +0.210 HD
ENDBRANCH   6   1
BRANCH   8   2
ATOM      2  O   UNL     1       1.236   1.807  24.053  0.00  0.00    -0.389 OA
ATOM     21  H   UNL     1       1.158   2.688  24.456  0.00  0.00    +0.210 HD
ENDBRANCH   8   2
TORSDOF 4
ENDMDL
MODEL 2
REMARK VINA RESULT:      -6.0      1.162      5.166
REMARK  Name = 71693823
REMARK  4 active torsions:
REMARK  status: ('A' for Active; 'I' for Inactive)
REMARK    1  A    between atoms: O_1  and  C_6
REMARK    2  A    between atoms: O_2  and  C_8
REMARK    3  A    between atoms: N_3  and  C_4
REMARK    4  A    between atoms: C_5  and  C_11
REMARK                            x       y       z     vdW  Elec       q    Type
REMARK                         _______ _______ _______ _____ _____    ______ ____
ROOT
ATOM      4  C   UNL     1      -2.642   1.525  24.571  0.00  0.00    +0.095 C 
ATOM      5  C   UNL     1      -2.341   0.286  25.470  0.00  0.00    +0.041 C 
ATOM      6  C   UNL     1      -1.289   2.235  24.399  0.00  0.00    +0.161 C 
ATOM      7  C   UNL     1      -0.835   0.351  25.787  0.00  0.00    +0.043 C 
ATOM      8  C   UNL     1      -0.501   1.829  25.642  0.00  0.00    +0.145 C 
ENDROOT
BRANCH   4   3
ATOM      3  N   UNL     1      -3.585   2.410  25.254  0.00  0.00    -0.296 NA
ATOM      9  C   UNL     1      -4.954   1.886  25.143  0.00  0.00    +0.085 C 
ATOM     10  C   UNL     1      -3.492   3.774  24.718  0.00  0.00    +0.085 C 
ATOM     12  C   UNL     1      -5.947   2.774  25.896  0.00  0.00    +0.015 C 
ATOM     13  C   UNL     1      -4.438   4.723  25.455  0.00  0.00    +0.015 C 
ATOM     14  C   UNL     1      -5.875   4.217  25.413  0.00  0.00    +0.002 C 
ENDBRANCH   4   3
BRANCH   5  11
ATOM     11  C   UNL     1      -2.766  -1.034  24.864  0.00  0.00    -0.043 A 
ATOM     15  C   UNL     1      -4.065  -1.195  24.382  0.00  0.00    +0.004 A 
ATOM     16  C   UNL     1      -1.858  -2.091  24.789  0.00  0.00    +0.004 A 
ATOM     17  C   UNL     1      -4.456  -2.412  23.824  0.00  0.00    +0.000 A 
ATOM     18  C   UNL     1      -2.248  -3.308  24.230  0.00  0.00    +0.000 A 
ATOM     19  C   UNL     1      -3.548  -3.469  23.747  0.00  0.00    +0.000 A 
ENDBRANCH   5  11
BRANCH   6   1
ATOM      1  O   UNL     1      -0.664   1.732  23.219  0.00  0.00    -0.388 OA
ATOM     20  H   UNL     1      -1.188   2.041  22.460  0.00  0.00    +0.210 HD
ENDBRANCH   6   1
BRANCH   8   2
ATOM      2  O   UNL     1       0.889   2.033  25.494  0.00  0.00    -0.389 OA
ATOM     21  H   UNL     1       1.134   1.738  24.601  0.00  0.00    +0.210 HD
ENDBRANCH   8   2
TORSDOF 4
ENDMDL
MODEL 3
REMARK VINA RESULT:      -5.1      2.425      3.983
REMARK  Name = 71693823
REMARK  4 active torsions:
REMARK  status: ('A' for Active; 'I' for Inactive)
REMARK    1  A    between atoms: O_1  and  C_6
REMARK    2  A    between atoms: O_2  and  C_8
REMARK    3  A    between atoms: N_3  and  C_4
REMARK    4  A    between atoms: C_5  and  C_11
REMARK                            x       y       z     vdW  Elec       q    Type
REMARK                         _______ _______ _______ _____ _____    ______ ____
ROOT
ATOM      4  C   UNL     1      -3.446   1.208  24.530  0.00  0.00    +0.095 C 
ATOM      5  C   UNL     1      -3.064   2.220  25.655  0.00  0.00    +0.041 C 
ATOM      6  C   UNL     1      -4.978   1.280  24.427  0.00  0.00    +0.161 C 
ATOM      7  C   UNL     1      -4.395   2.813  26.156  0.00  0.00    +0.043 C 
ATOM      8  C   UNL     1      -5.419   1.739  25.814  0.00  0.00    +0.145 C 
ENDROOT
BRANCH   4   3
ATOM      3  N   UNL     1      -3.035  -0.140  24.925  0.00  0.00    -0.296 NA
ATOM      9  C   UNL     1      -1.620  -0.363  24.597  0.00  0.00    +0.085 C 
ATOM     10  C   UNL     1      -3.894  -1.146  24.287  0.00  0.00    +0.085 C 
ATOM     12  C   UNL     1      -1.162  -1.751  25.049  0.00  0.00    +0.015 C 
ATOM     13  C   UNL     1      -3.511  -2.560  24.727  0.00  0.00    +0.015 C 
ATOM     14  C   UNL     1      -2.039  -2.845  24.452  0.00  0.00    +0.002 C 
ENDBRANCH   4   3
BRANCH   5  11
ATOM     11  C   UNL     1      -2.067   3.274  25.224  0.00  0.00    -0.043 A 
ATOM     15  C   UNL     1      -0.889   2.899  24.578  0.00  0.00    +0.004 A 
ATOM     16  C   UNL     1      -2.326   4.622  25.474  0.00  0.00    +0.004 A 
ATOM     17  C   UNL     1       0.029   3.870  24.182  0.00  0.00    +0.000 A 
ATOM     18  C   UNL     1      -1.408   5.594  25.077  0.00  0.00    +0.000 A 
ATOM     19  C   UNL     1      -0.230   5.219  24.431  0.00  0.00    +0.000 A 
ENDBRANCH   5  11
BRANCH   6   1
ATOM      1  O   UNL     1      -5.317   2.254  23.441  0.00  0.00    -0.388 OA
ATOM     20  H   UNL     1      -5.027   3.120  23.778  0.00  0.00    +0.210 HD
ENDBRANCH   6   1
BRANCH   8   2
ATOM      2  O   UNL     1      -6.733   2.256  25.823  0.00  0.00    -0.389 OA
ATOM     21  H   UNL     1      -6.715   3.109  25.357  0.00  0.00    +0.210 HD
ENDBRANCH   8   2
TORSDOF 4
ENDMDL
MODEL 4
REMARK VINA RESULT:      -5.0      1.880      5.170
REMARK  Name = 71693823
REMARK  4 active torsions:
REMARK  status: ('A' for Active; 'I' for Inactive)
REMARK    1  A    between atoms: O_1  and  C_6
REMARK    2  A    between atoms: O_2  and  C_8
REMARK    3  A    between atoms: N_3  and  C_4
REMARK    4  A    between atoms: C_5  and  C_11
REMARK                            x       y       z     vdW  Elec       q    Type
REMARK                         _______ _______ _______ _____ _____    ______ ____
ROOT
ATOM      4  C   UNL     1      -1.239   1.209  23.833  0.00  0.00    +0.095 C 
ATOM      5  C   UNL     1      -1.166  -0.083  24.704  0.00  0.00    +0.041 C 
ATOM      6  C   UNL     1       0.077   1.233  23.038  0.00  0.00    +0.161 C 
ATOM      7  C   UNL     1       0.194  -0.731  24.383  0.00  0.00    +0.043 C 
ATOM      8  C   UNL     1       1.046   0.438  23.909  0.00  0.00    +0.145 C 
ENDROOT
BRANCH   4   3
ATOM      3  N   UNL     1      -1.317   2.383  24.702  0.00  0.00    -0.296 NA
ATOM      9  C   UNL     1      -2.720   2.721  24.984  0.00  0.00    +0.085 C 
ATOM     10  C   UNL     1      -0.608   3.519  24.098  0.00  0.00    +0.085 C 
ATOM     12  C   UNL     1      -2.818   3.917  25.933  0.00  0.00    +0.015 C 
ATOM     13  C   UNL     1      -0.639   4.741  25.017  0.00  0.00    +0.015 C 
ATOM     14  C   UNL     1      -2.068   5.123  25.383  0.00  0.00    +0.002 C 
ENDBRANCH   4   3
BRANCH   5  11
ATOM     11  C   UNL     1      -2.335  -1.024  24.512  0.00  0.00    -0.043 A 
ATOM     15  C   UNL     1      -2.193  -2.382  24.799  0.00  0.00    +0.004 A 
ATOM     16  C   UNL     1      -3.555  -0.534  24.045  0.00  0.00    +0.004 A 
ATOM     17  C   UNL     1      -3.271  -3.249  24.622  0.00  0.00    +0.000 A 
ATOM     18  C   UNL     1      -4.633  -1.401  23.868  0.00  0.00    +0.000 A 
ATOM     19  C   UNL     1      -4.492  -2.759  24.156  0.00  0.00    +0.000 A 
ENDBRANCH   5  11
BRANCH   6   1
ATOM      1  O   UNL     1      -0.138   0.574  21.792  0.00  0.00    -0.388 OA
ATOM     20  H   UNL     1      -1.096   0.581  21.621  0.00  0.00    +0.210 HD
ENDBRANCH   6   1
BRANCH   8   2
ATOM      2  O   UNL     1       2.181  -0.006  23.193  0.00  0.00    -0.389 OA
ATOM     21  H   UNL     1       2.335  -0.934  23.437  0.00  0.00    +0.210 HD
ENDBRANCH   8   2
TORSDOF 4
ENDMDL
MODEL 5
REMARK VINA RESULT:      -5.0      2.528      6.043
REMARK  Name = 71693823
REMARK  4 active torsions:
REMARK  status: ('A' for Active; 'I' for Inactive)
REMARK    1  A    between atoms: O_1  and  C_6
REMARK    2  A    between atoms: O_2  and  C_8
REMARK    3  A    between atoms: N_3  and  C_4
REMARK    4  A    between atoms: C_5  and  C_11
REMARK                            x       y       z     vdW  Elec       q    Type
REMARK                         _______ _______ _______ _____ _____    ______ ____
ROOT
ATOM      4  C   UNL     1      -3.641   1.856  25.349  0.00  0.00    +0.095 C 
ATOM      5  C   UNL     1      -3.834   0.842  24.179  0.00  0.00    +0.041 C 
ATOM      6  C   UNL     1      -5.061   2.296  25.739  0.00  0.00    +0.161 C 
ATOM      7  C   UNL     1      -5.354   0.759  23.941  0.00  0.00    +0.043 C 
ATOM      8  C   UNL     1      -5.873   2.092  24.462  0.00  0.00    +0.145 C 
ENDROOT
BRANCH   4   3
ATOM      3  N   UNL     1      -2.875   3.009  24.875  0.00  0.00    -0.296 NA
ATOM      9  C   UNL     1      -1.488   2.620  24.584  0.00  0.00    +0.085 C 
ATOM     10  C   UNL     1      -2.926   4.099  25.859  0.00  0.00    +0.085 C 
ATOM     12  C   UNL     1      -0.686   3.805  24.040  0.00  0.00    +0.015 C 
ATOM     13  C   UNL     1      -2.171   5.332  25.358  0.00  0.00    +0.015 C 
ATOM     14  C   UNL     1      -0.730   4.989  24.997  0.00  0.00    +0.002 C 
ENDBRANCH   4   3
BRANCH   5  11
ATOM     11  C   UNL     1      -3.194  -0.508  24.421  0.00  0.00    -0.043 A 
ATOM     15  C   UNL     1      -3.964  -1.670  24.345  0.00  0.00    +0.004 A 
ATOM     16  C   UNL     1      -1.834  -0.591  24.721  0.00  0.00    +0.004 A 
ATOM     17  C   UNL     1      -3.374  -2.913  24.568  0.00  0.00    +0.000 A 
ATOM     18  C   UNL     1      -1.243  -1.835  24.943  0.00  0.00    +0.000 A 
ATOM     19  C   UNL     1      -2.013  -2.997  24.867  0.00  0.00    +0.000 A 
ENDBRANCH   5  11
BRANCH   6   1
ATOM      1  O   UNL     1      -5.529   1.435  26.777  0.00  0.00    -0.388 OA
ATOM     20  H   UNL     1      -5.072   0.583  26.674  0.00  0.00    +0.210 HD
ENDBRANCH   6   1
BRANCH   8   2
ATOM      2  O   UNL     1      -7.264   2.046  24.704  0.00  0.00    -0.389 OA
ATOM     21  H   UNL     1      -7.581   1.172  24.422  0.00  0.00    +0.210 HD
ENDBRANCH   8   2
TORSDOF 4
ENDMDL
MODEL 6
REMARK VINA RESULT:      -4.7      2.556      5.629
REMARK  Name = 71693823
REMARK  4 active torsions:
REMARK  status: ('A' for Active; 'I' for Inactive)
REMARK    1  A    between atoms: O_1  and  C_6
REMARK    2  A    between atoms: O_2  and  C_8
REMARK    3  A    between atoms: N_3  and  C_4
REMARK    4  A    between atoms: C_5  and  C_11
REMARK                            x       y       z     vdW  Elec       q    Type
REMARK                         _______ _______ _______ _____ _____    ______ ____
ROOT
ATOM      4  C   UNL     1      -3.232   2.288  25.878  0.00  0.00    +0.095 C 
ATOM      5  C   UNL     1      -3.708   1.561  24.582  0.00  0.00    +0.041 C 
ATOM      6  C   UNL     1      -4.392   3.220  26.266  0.00  0.00    +0.161 C 
ATOM      7  C   UNL     1      -5.110   2.122  24.276  0.00  0.00    +0.043 C 
ATOM      8  C   UNL     1      -5.103   3.491  24.943  0.00  0.00    +0.145 C 
ENDROOT
BRANCH   4   3
ATOM      3  N   UNL     1      -2.035   3.076  25.586  0.00  0.00    -0.296 NA
ATOM      9  C   UNL     1      -2.393   4.478  25.327  0.00  0.00    +0.085 C 
ATOM     10  C   UNL     1      -1.301   2.496  24.454  0.00  0.00    +0.085 C 
ATOM     12  C   UNL     1      -1.147   5.327  25.069  0.00  0.00    +0.015 C 
ATOM     13  C   UNL     1      -0.019   3.281  24.166  0.00  0.00    +0.015 C 
ATOM     14  C   UNL     1      -0.315   4.756  23.926  0.00  0.00    +0.002 C 
ENDBRANCH   4   3
BRANCH   5  11
ATOM     11  C   UNL     1      -3.678   0.051  24.674  0.00  0.00    -0.043 A 
ATOM     15  C   UNL     1      -3.066  -0.570  25.763  0.00  0.00    +0.004 A 
ATOM     16  C   UNL     1      -4.262  -0.720  23.669  0.00  0.00    +0.004 A 
ATOM     17  C   UNL     1      -3.038  -1.961  25.847  0.00  0.00    +0.000 A 
ATOM     18  C   UNL     1      -4.234  -2.112  23.753  0.00  0.00    +0.000 A 
ATOM     19  C   UNL     1      -3.622  -2.734  24.842  0.00  0.00    +0.000 A 
ENDBRANCH   5  11
BRANCH   6   1
ATOM      1  O   UNL     1      -5.249   2.520  27.166  0.00  0.00    -0.388 OA
ATOM     20  H   UNL     1      -5.804   1.924  26.634  0.00  0.00    +0.210 HD
ENDBRANCH   6   1
BRANCH   8   2
ATOM      2  O   UNL     1      -6.415   3.985  25.123  0.00  0.00    -0.389 OA
ATOM     21  H   UNL     1      -6.815   4.077  24.242  0.00  0.00    +0.210 HD
ENDBRANCH   8   2
TORSDOF 4
ENDMDL
MODEL 7
REMARK VINA RESULT:      -4.2      2.100      4.812
REMARK  Name = 71693823
REMARK  4 active torsions:
REMARK  status: ('A' for Active; 'I' for Inactive)
REMARK    1  A    between atoms: O_1  and  C_6
REMARK    2  A    between atoms: O_2  and  C_8
REMARK    3  A    between atoms: N_3  and  C_4
REMARK    4  A    between atoms: C_5  and  C_11
REMARK                            x       y       z     vdW  Elec       q    Type
REMARK                         _______ _______ _______ _____ _____    ______ ____
ROOT
ATOM      4  C   UNL     1      -2.018   1.158  23.955  0.00  0.00    +0.095 C 
ATOM      5  C   UNL     1      -0.644   1.117  24.694  0.00  0.00    +0.041 C 
ATOM      6  C   UNL     1      -2.598   2.549  24.261  0.00  0.00    +0.161 C 
ATOM      7  C   UNL     1      -0.507   2.478  25.403  0.00  0.00    +0.043 C 
ATOM      8  C   UNL     1      -1.947   2.934  25.587  0.00  0.00    +0.145 C 
ENDROOT
BRANCH   4   3
ATOM      3  N   UNL     1      -2.897   0.122  24.496  0.00  0.00    -0.296 NA
ATOM      9  C   UNL     1      -2.194  -0.665  25.519  0.00  0.00    +0.085 C 
ATOM     10  C   UNL     1      -3.403  -0.738  23.418  0.00  0.00    +0.085 C 
ATOM     12  C   UNL     1      -3.116  -1.722  26.131  0.00  0.00    +0.015 C 
ATOM     13  C   UNL     1      -4.363  -1.798  23.961  0.00  0.00    +0.015 C 
ATOM     14  C   UNL     1      -3.708  -2.628  25.059  0.00  0.00    +0.002 C 
ENDBRANCH   4   3
BRANCH   5  11
ATOM     11  C   UNL     1       0.530   0.792  23.796  0.00  0.00    -0.043 A 
ATOM     15  C   UNL     1       0.435  -0.249  22.871  0.00  0.00    +0.004 A 
ATOM     16  C   UNL     1       1.708   1.533  23.894  0.00  0.00    +0.004 A 
ATOM     17  C   UNL     1       1.517  -0.548  22.044  0.00  0.00    +0.000 A 
ATOM     18  C   UNL     1       2.791   1.234  23.066  0.00  0.00    +0.000 A 
ATOM     19  C   UNL     1       2.696   0.193  22.141  0.00  0.00    +0.000 A 
ENDBRANCH   5  11
BRANCH   6   1
ATOM      1  O   UNL     1      -2.195   3.442  23.224  0.00  0.00    -0.388 OA
ATOM     20  H   UNL     1      -2.100   4.325  23.621  0.00  0.00    +0.210 HD
ENDBRANCH   6   1
BRANCH   8   2
ATOM      2  O   UNL     1      -2.021   4.321  25.846  0.00  0.00    -0.389 OA
ATOM     21  H   UNL     1      -1.169   4.593  26.225  0.00  0.00    +0.210 HD
ENDBRANCH   8   2
TORSDOF 4
ENDMDL
MODEL 8
REMARK VINA RESULT:      -4.1      2.291      4.059
REMARK  Name = 71693823
REMARK  4 active torsions:
REMARK  status: ('A' for Active; 'I' for Inactive)
REMARK    1  A    between atoms: O_1  and  C_6
REMARK    2  A    between atoms: O_2  and  C_8
REMARK    3  A    between atoms: N_3  and  C_4
REMARK    4  A    between atoms: C_5  and  C_11
REMARK                            x       y       z     vdW  Elec       q    Type
REMARK                         _______ _______ _______ _____ _____    ______ ____
ROOT
ATOM      4  C   UNL     1      -2.332   0.046  24.104  0.00  0.00    +0.095 C 
ATOM      5  C   UNL     1      -2.965   0.404  25.485  0.00  0.00    +0.041 C 
ATOM      6  C   UNL     1      -2.671  -1.436  23.878  0.00  0.00    +0.161 C 
ATOM      7  C   UNL     1      -3.623  -0.893  25.994  0.00  0.00    +0.043 C 
ATOM      8  C   UNL     1      -2.843  -1.993  25.289  0.00  0.00    +0.145 C 
ENDROOT
BRANCH   4   3
ATOM      3  N   UNL     1      -0.881   0.220  24.171  0.00  0.00    -0.296 NA
ATOM      9  C   UNL     1      -0.533   1.648  24.148  0.00  0.00    +0.085 C 
ATOM     10  C   UNL     1      -0.225  -0.505  23.074  0.00  0.00    +0.085 C 
ATOM     12  C   UNL     1       0.979   1.849  24.267  0.00  0.00    +0.015 C 
ATOM     13  C   UNL     1       1.297  -0.374  23.157  0.00  0.00    +0.015 C 
ATOM     14  C   UNL     1       1.726   1.088  23.178  0.00  0.00    +0.002 C 
ENDBRANCH   4   3
BRANCH   5  11
ATOM     11  C   UNL     1      -3.918   1.579  25.441  0.00  0.00    -0.043 A 
ATOM     15  C   UNL     1      -5.294   1.360  25.378  0.00  0.00    +0.004 A 
ATOM     16  C   UNL     1      -3.419   2.882  25.463  0.00  0.00    +0.004 A 
ATOM     17  C   UNL     1      -6.171   2.442  25.338  0.00  0.00    +0.000 A 
ATOM     18  C   UNL     1      -4.297   3.965  25.424  0.00  0.00    +0.000 A 
ATOM     19  C   UNL     1      -5.673   3.746  25.361  0.00  0.00    +0.000 A 
ENDBRANCH   5  11
BRANCH   6   1
ATOM      1  O   UNL     1      -3.898  -1.510  23.153  0.00  0.00    -0.388 OA
ATOM     20  H   UNL     1      -4.172  -0.599  22.952  0.00  0.00    +0.210 HD
ENDBRANCH   6   1
BRANCH   8   2
ATOM      2  O   UNL     1      -3.546  -3.218  25.307  0.00  0.00    -0.389 OA
ATOM     21  H   UNL     1      -3.845  -3.370  26.219  0.00  0.00    +0.210 HD
ENDBRANCH   8   2
TORSDOF 4
ENDMDL
MODEL 9
REMARK VINA RESULT:      -3.9      2.064      5.411
REMARK  Name = 71693823
REMARK  4 active torsions:
REMARK  status: ('A' for Active; 'I' for Inactive)
REMARK    1  A    between atoms: O_1  and  C_6
REMARK    2  A    between atoms: O_2  and  C_8
REMARK    3  A    between atoms: N_3  and  C_4
REMARK    4  A    between atoms: C_5  and  C_11
REMARK                            x       y       z     vdW  Elec       q    Type
REMARK                         _______ _______ _______ _____ _____    ______ ____
ROOT
ATOM      4  C   UNL     1      -2.486   0.537  25.124  0.00  0.00    +0.095 C 
ATOM      5  C   UNL     1      -1.879  -0.018  23.799  0.00  0.00    +0.041 C 
ATOM      6  C   UNL     1      -3.050  -0.693  25.854  0.00  0.00    +0.161 C 
ATOM      7  C   UNL     1      -2.137  -1.537  23.822  0.00  0.00    +0.043 C 
ATOM      8  C   UNL     1      -3.349  -1.682  24.731  0.00  0.00    +0.145 C 
ENDROOT
BRANCH   4   3
ATOM      3  N   UNL     1      -3.568   1.472  24.814  0.00  0.00    -0.296 NA
ATOM      9  C   UNL     1      -3.211   2.831  25.242  0.00  0.00    +0.085 C 
ATOM     10  C   UNL     1      -4.823   1.030  25.436  0.00  0.00    +0.085 C 
ATOM     12  C   UNL     1      -4.312   3.830  24.879  0.00  0.00    +0.015 C 
ATOM     13  C   UNL     1      -5.977   1.970  25.080  0.00  0.00    +0.015 C 
ATOM     14  C   UNL     1      -5.656   3.410  25.463  0.00  0.00    +0.002 C 
ENDBRANCH   4   3
BRANCH   5  11
ATOM     11  C   UNL     1      -0.422   0.336  23.592  0.00  0.00    -0.043 A 
ATOM     15  C   UNL     1       0.395  -0.493  22.823  0.00  0.00    +0.004 A 
ATOM     16  C   UNL     1       0.103   1.491  24.170  0.00  0.00    +0.004 A 
ATOM     17  C   UNL     1       1.737  -0.167  22.632  0.00  0.00    +0.000 A 
ATOM     18  C   UNL     1       1.446   1.818  23.979  0.00  0.00    +0.000 A 
ATOM     19  C   UNL     1       2.264   0.990  23.210  0.00  0.00    +0.000 A 
ENDBRANCH   5  11
BRANCH   6   1
ATOM      1  O   UNL     1      -2.039  -1.203  26.721  0.00  0.00    -0.388 OA
ATOM     20  H   UNL     1      -2.270  -0.935  27.627  0.00  0.00    +0.210 HD
ENDBRANCH   6   1
BRANCH   8   2
ATOM      2  O   UNL     1      -3.489  -3.008  25.198  0.00  0.00    -0.389 OA
ATOM     21  H   UNL     1      -4.320  -3.054  25.701  0.00  0.00    +0.210 HD
ENDBRANCH   8   2
TORSDOF 4
ENDMDL
MODEL 10
REMARK VINA RESULT:      -3.8     16.921     18.279
REMARK  Name = 71693823
REMARK  4 active torsions:
REMARK  status: ('A' for Active; 'I' for Inactive)
REMARK    1  A    between atoms: O_1  and  C_6
REMARK    2  A    between atoms: O_2  and  C_8
REMARK    3  A    between atoms: N_3  and  C_4
REMARK    4  A    between atoms: C_5  and  C_11
REMARK                            x       y       z     vdW  Elec       q    Type
REMARK                         _______ _______ _______ _____ _____    ______ ____
ROOT
ATOM      4  C   UNL     1      -6.641 -10.529  10.766  0.00  0.00    +0.095 C 
ATOM      5  C   UNL     1      -5.740  -9.398  11.352  0.00  0.00    +0.041 C 
ATOM      6  C   UNL     1      -6.982 -10.073   9.338  0.00  0.00    +0.161 C 
ATOM      7  C   UNL     1      -5.620  -8.338  10.240  0.00  0.00    +0.043 C 
ATOM      8  C   UNL     1      -6.873  -8.552   9.402  0.00  0.00    +0.145 C 
ENDROOT
BRANCH   4   3
ATOM      3  N   UNL     1      -7.866 -10.640  11.559  0.00  0.00    -0.296 NA
ATOM      9  C   UNL     1      -9.049 -10.480  10.703  0.00  0.00    +0.085 C 
ATOM     10  C   UNL     1      -7.862  -9.657  12.651  0.00  0.00    +0.085 C 
ATOM     12  C   UNL     1     -10.339 -10.643  11.509  0.00  0.00    +0.015 C 
ATOM     13  C   UNL     1      -9.113  -9.793  13.521  0.00  0.00    +0.015 C 
ATOM     14  C   UNL     1     -10.383  -9.675  12.686  0.00  0.00    +0.002 C 
ENDBRANCH   4   3
BRANCH   5  11
ATOM     11  C   UNL     1      -4.400  -9.879  11.864  0.00  0.00    -0.043 A 
ATOM     15  C   UNL     1      -3.286  -9.866  11.025  0.00  0.00    +0.004 A 
ATOM     16  C   UNL     1      -4.279 -10.337  13.176  0.00  0.00    +0.004 A 
ATOM     17  C   UNL     1      -2.051 -10.309  11.497  0.00  0.00    +0.000 A 
ATOM     18  C   UNL     1      -3.044 -10.780  13.650  0.00  0.00    +0.000 A 
ATOM     19  C   UNL     1      -1.930 -10.766  12.810  0.00  0.00    +0.000 A 
ENDBRANCH   5  11
BRANCH   6   1
ATOM      1  O   UNL     1      -6.005 -10.613   8.449  0.00  0.00    -0.388 OA
ATOM     20  H   UNL     1      -6.456 -11.264   7.884  0.00  0.00    +0.210 HD
ENDBRANCH   6   1
BRANCH   8   2
ATOM      2  O   UNL     1      -6.747  -7.963   8.124  0.00  0.00    -0.389 OA
ATOM     21  H   UNL     1      -6.492  -7.034   8.255  0.00  0.00    +0.210 HD
ENDBRANCH   8   2
TORSDOF 4
ENDMDL
