MODEL 1
REMARK VINA RESULT:      -4.0      0.000      0.000
REMARK  Name = 75536266
REMARK  9 active torsions:
REMARK  status: ('A' for Active; 'I' for Inactive)
REMARK    1  A    between atoms: O_3  and  C_8
REMARK    2  A    between atoms: N_5  and  C_12
REMARK    3  A    between atoms: N_5  and  C_15
REMARK    4  A    between atoms: C_7  and  C_12
REMARK    5  A    between atoms: C_9  and  C_13
REMARK    6  A    between atoms: C_13  and  C_14
REMARK    7  A    between atoms: C_15  and  C_17
REMARK    8  A    between atoms: C_15  and  C_18
REMARK    9  A    between atoms: C_19  and  C_20
REMARK                            x       y       z     vdW  Elec       q    Type
REMARK                         _______ _______ _______ _____ _____    ______ ____
ROOT
ATOM      2  O   UNL     1      -3.913   2.497  24.016  0.00  0.00    -0.369 OA
ATOM      7  C   UNL     1      -4.621   3.094  25.110  0.00  0.00    +0.161 C 
ATOM      8  C   UNL     1      -5.714   2.159  25.644  0.00  0.00    +0.145 C 
ATOM      9  C   UNL     1      -3.334   1.219  24.290  0.00  0.00    +0.125 C 
ATOM     10  C   UNL     1      -5.194   0.749  25.912  0.00  0.00    +0.036 C 
ATOM     11  C   UNL     1      -4.410   0.221  24.714  0.00  0.00    +0.034 C 
ENDROOT
BRANCH   8   3
ATOM      3  O   UNL     1      -6.754   2.061  24.668  0.00  0.00    -0.389 OA
ATOM     27  H   UNL     1      -6.344   1.799  23.827  0.00  0.00    +0.210 HD
ENDBRANCH   8   3
BRANCH   7  12
ATOM     12  C   UNL     1      -3.658   3.567  26.197  0.00  0.00    +0.115 C 
BRANCH  12   5
ATOM      5  N   UNL     1      -2.769   4.601  25.688  0.00  0.00    -0.311 NA
ATOM     26  H   UNL     1      -3.274   5.151  24.993  0.00  0.00    +0.122 HD
BRANCH   5  15
ATOM     15  C   UNL     1      -1.576   4.018  25.092  0.00  0.00    +0.048 C 
ATOM     17  C   UNL     1      -0.921   3.041  26.065  0.00  0.00    +0.023 C 
ATOM     18  C   UNL     1      -0.609   5.130  24.698  0.00  0.00    +0.023 C 
ENDBRANCH   5  15
ENDBRANCH  12   5
ENDBRANCH   7  12
BRANCH   9  13
ATOM     13  C   UNL     1      -2.630   0.753  23.021  0.00  0.00    +0.090 C 
BRANCH  13  14
ATOM      4  O   UNL     1       0.347  -0.940  24.143  0.00  0.00    -0.354 OA
ATOM      6  N   UNL     1      -1.032  -0.777  24.100  0.00  0.00    -0.083 NA
ATOM     14  C   UNL     1      -1.230   0.277  23.304  0.00  0.00    +0.087 A 
ATOM     16  C   UNL     1      -0.025   0.815  22.819  0.00  0.00    +0.076 A 
ATOM     19  C   UNL     1       0.935   0.014  23.377  0.00  0.00    +0.167 A 
BRANCH  19  20
ATOM      1  F   UNL     1       6.492  -0.155  23.159  0.00  0.00    -0.205 F 
ATOM     20  C   UNL     1       2.368  -0.029  23.322  0.00  0.00    +0.020 A 
ATOM     21  C   UNL     1       3.082   1.082  22.872  0.00  0.00    +0.014 A 
ATOM     22  C   UNL     1       3.047  -1.183  23.716  0.00  0.00    +0.014 A 
ATOM     23  C   UNL     1       4.475   1.039  22.818  0.00  0.00    +0.039 A 
ATOM     24  C   UNL     1       4.440  -1.225  23.660  0.00  0.00    +0.039 A 
ATOM     25  C   UNL     1       5.154  -0.114  23.211  0.00  0.00    +0.123 A 
ENDBRANCH  19  20
ENDBRANCH  13  14
ENDBRANCH   9  13
TORSDOF 7
ENDMDL
MODEL 2
REMARK VINA RESULT:      -3.1      1.659      3.338
REMARK  Name = 75536266
REMARK  9 active torsions:
REMARK  status: ('A' for Active; 'I' for Inactive)
REMARK    1  A    between atoms: O_3  and  C_8
REMARK    2  A    between atoms: N_5  and  C_12
REMARK    3  A    between atoms: N_5  and  C_15
REMARK    4  A    between atoms: C_7  and  C_12
REMARK    5  A    between atoms: C_9  and  C_13
REMARK    6  A    between atoms: C_13  and  C_14
REMARK    7  A    between atoms: C_15  and  C_17
REMARK    8  A    between atoms: C_15  and  C_18
REMARK    9  A    between atoms: C_19  and  C_20
REMARK                            x       y       z     vdW  Elec       q    Type
REMARK                         _______ _______ _______ _____ _____    ______ ____
ROOT
ATOM      2  O   UNL     1      -3.453   1.446  25.447  0.00  0.00    -0.369 OA
ATOM      7  C   UNL     1      -4.697   0.736  25.459  0.00  0.00    +0.161 C 
ATOM      8  C   UNL     1      -5.891   1.701  25.470  0.00  0.00    +0.145 C 
ATOM      9  C   UNL     1      -3.298   2.384  24.379  0.00  0.00    +0.125 C 
ATOM     10  C   UNL     1      -5.779   2.776  24.393  0.00  0.00    +0.036 C 
ATOM     11  C   UNL     1      -4.403   3.437  24.423  0.00  0.00    +0.034 C 
ENDROOT
BRANCH   8   3
ATOM      3  O   UNL     1      -5.939   2.358  26.739  0.00  0.00    -0.389 OA
ATOM     27  H   UNL     1      -5.338   1.885  27.339  0.00  0.00    +0.210 HD
ENDBRANCH   8   3
BRANCH   7  12
ATOM     12  C   UNL     1      -4.763  -0.281  24.322  0.00  0.00    +0.115 C 
BRANCH  12   5
ATOM      5  N   UNL     1      -3.435  -0.772  23.987  0.00  0.00    -0.311 NA
ATOM     26  H   UNL     1      -3.429  -1.054  23.007  0.00  0.00    +0.122 HD
BRANCH   5  15
ATOM     15  C   UNL     1      -3.066  -1.899  24.832  0.00  0.00    +0.048 C 
ATOM     17  C   UNL     1      -1.553  -2.100  24.816  0.00  0.00    +0.023 C 
ATOM     18  C   UNL     1      -3.790  -3.152  24.352  0.00  0.00    +0.023 C 
ENDBRANCH   5  15
ENDBRANCH  12   5
ENDBRANCH   7  12
BRANCH   9  13
ATOM     13  C   UNL     1      -1.926   3.031  24.532  0.00  0.00    +0.090 C 
BRANCH  13  14
ATOM      4  O   UNL     1       0.102   0.428  23.082  0.00  0.00    -0.354 OA
ATOM      6  N   UNL     1      -1.123   1.024  23.354  0.00  0.00    -0.083 NA
ATOM     14  C   UNL     1      -0.825   2.120  24.056  0.00  0.00    +0.087 A 
ATOM     16  C   UNL     1       0.559   2.267  24.257  0.00  0.00    +0.076 A 
ATOM     19  C   UNL     1       1.096   1.178  23.625  0.00  0.00    +0.167 A 
BRANCH  19  20
ATOM      1  F   UNL     1       6.263  -0.731  22.847  0.00  0.00    -0.205 F 
ATOM     20  C   UNL     1       2.427   0.685  23.423  0.00  0.00    +0.020 A 
ATOM     21  C   UNL     1       2.717  -0.658  23.661  0.00  0.00    +0.014 A 
ATOM     22  C   UNL     1       3.433   1.551  22.991  0.00  0.00    +0.014 A 
ATOM     23  C   UNL     1       4.013  -1.137  23.465  0.00  0.00    +0.039 A 
ATOM     24  C   UNL     1       4.729   1.072  22.797  0.00  0.00    +0.039 A 
ATOM     25  C   UNL     1       5.019  -0.272  23.034  0.00  0.00    +0.123 A 
ENDBRANCH  19  20
ENDBRANCH  13  14
ENDBRANCH   9  13
TORSDOF 7
ENDMDL
MODEL 3
REMARK VINA RESULT:      -2.2     15.690     17.928
REMARK  Name = 75536266
REMARK  9 active torsions:
REMARK  status: ('A' for Active; 'I' for Inactive)
REMARK    1  A    between atoms: O_3  and  C_8
REMARK    2  A    between atoms: N_5  and  C_12
REMARK    3  A    between atoms: N_5  and  C_15
REMARK    4  A    between atoms: C_7  and  C_12
REMARK    5  A    between atoms: C_9  and  C_13
REMARK    6  A    between atoms: C_13  and  C_14
REMARK    7  A    between atoms: C_15  and  C_17
REMARK    8  A    between atoms: C_15  and  C_18
REMARK    9  A    between atoms: C_19  and  C_20
REMARK                            x       y       z     vdW  Elec       q    Type
REMARK                         _______ _______ _______ _____ _____    ______ ____
ROOT
ATOM      2  O   UNL     1      -1.840 -10.765  13.542  0.00  0.00    -0.369 OA
ATOM      7  C   UNL     1      -2.067 -10.781  14.957  0.00  0.00    +0.161 C 
ATOM      8  C   UNL     1      -1.023  -9.937  15.700  0.00  0.00    +0.145 C 
ATOM      9  C   UNL     1      -1.789  -9.465  12.949  0.00  0.00    +0.125 C 
ATOM     10  C   UNL     1      -0.862  -8.545  15.095  0.00  0.00    +0.036 C 
ATOM     11  C   UNL     1      -0.680  -8.628  13.581  0.00  0.00    +0.034 C 
ENDROOT
BRANCH   8   3
ATOM      3  O   UNL     1       0.243 -10.597  15.620  0.00  0.00    -0.389 OA
ATOM     27  H   UNL     1       0.806 -10.239  16.327  0.00  0.00    +0.210 HD
ENDBRANCH   8   3
BRANCH   7  12
ATOM     12  C   UNL     1      -3.503 -10.381  15.289  0.00  0.00    +0.115 C 
BRANCH  12   5
ATOM      5  N   UNL     1      -3.649 -10.104  16.710  0.00  0.00    -0.311 NA
ATOM     26  H   UNL     1      -2.967 -10.663  17.223  0.00  0.00    +0.122 HD
BRANCH   5  15
ATOM     15  C   UNL     1      -4.996 -10.418  17.168  0.00  0.00    +0.048 C 
ATOM     17  C   UNL     1      -5.933  -9.243  16.902  0.00  0.00    +0.023 C 
ATOM     18  C   UNL     1      -4.960 -10.764  18.652  0.00  0.00    +0.023 C 
ENDBRANCH   5  15
ENDBRANCH  12   5
ENDBRANCH   7  12
BRANCH   9  13
ATOM     13  C   UNL     1      -1.545  -9.652  11.456  0.00  0.00    +0.090 C 
BRANCH  13  14
ATOM      4  O   UNL     1      -4.063  -8.969   8.971  0.00  0.00    -0.354 OA
ATOM      6  N   UNL     1      -2.745  -9.015   9.403  0.00  0.00    -0.083 NA
ATOM     14  C   UNL     1      -2.808  -9.469  10.658  0.00  0.00    +0.087 A 
ATOM     16  C   UNL     1      -4.129  -9.724  11.067  0.00  0.00    +0.076 A 
ATOM     19  C   UNL     1      -4.878  -9.393   9.970  0.00  0.00    +0.167 A 
BRANCH  19  20
ATOM      1  F   UNL     1     -10.317  -9.435   8.801  0.00  0.00    -0.205 F 
ATOM     20  C   UNL     1      -6.280  -9.403   9.668  0.00  0.00    +0.020 A 
ATOM     21  C   UNL     1      -7.193  -8.870  10.579  0.00  0.00    +0.014 A 
ATOM     22  C   UNL     1      -6.731  -9.947   8.465  0.00  0.00    +0.014 A 
ATOM     23  C   UNL     1      -8.557  -8.880  10.285  0.00  0.00    +0.039 A 
ATOM     24  C   UNL     1      -8.095  -9.958   8.173  0.00  0.00    +0.039 A 
ATOM     25  C   UNL     1      -9.008  -9.424   9.083  0.00  0.00    +0.123 A 
ENDBRANCH  19  20
ENDBRANCH  13  14
ENDBRANCH   9  13
TORSDOF 7
ENDMDL
MODEL 4
REMARK VINA RESULT:      -2.0      1.321      1.666
REMARK  Name = 75536266
REMARK  9 active torsions:
REMARK  status: ('A' for Active; 'I' for Inactive)
REMARK    1  A    between atoms: O_3  and  C_8
REMARK    2  A    between atoms: N_5  and  C_12
REMARK    3  A    between atoms: N_5  and  C_15
REMARK    4  A    between atoms: C_7  and  C_12
REMARK    5  A    between atoms: C_9  and  C_13
REMARK    6  A    between atoms: C_13  and  C_14
REMARK    7  A    between atoms: C_15  and  C_17
REMARK    8  A    between atoms: C_15  and  C_18
REMARK    9  A    between atoms: C_19  and  C_20
REMARK                            x       y       z     vdW  Elec       q    Type
REMARK                         _______ _______ _______ _____ _____    ______ ____
ROOT
ATOM      2  O   UNL     1      -4.219   2.291  24.311  0.00  0.00    -0.369 OA
ATOM      7  C   UNL     1      -4.425   3.567  24.929  0.00  0.00    +0.161 C 
ATOM      8  C   UNL     1      -5.776   3.625  25.655  0.00  0.00    +0.145 C 
ATOM      9  C   UNL     1      -4.322   1.166  25.188  0.00  0.00    +0.125 C 
ATOM     10  C   UNL     1      -5.995   2.427  26.574  0.00  0.00    +0.036 C 
ATOM     11  C   UNL     1      -5.700   1.119  25.844  0.00  0.00    +0.034 C 
ENDROOT
BRANCH   8   3
ATOM      3  O   UNL     1      -6.822   3.623  24.679  0.00  0.00    -0.389 OA
ATOM     27  H   UNL     1      -6.900   4.527  24.330  0.00  0.00    +0.210 HD
ENDBRANCH   8   3
BRANCH   7  12
ATOM     12  C   UNL     1      -3.249   3.939  25.830  0.00  0.00    +0.115 C 
BRANCH  12   5
ATOM      5  N   UNL     1      -2.264   2.868  25.866  0.00  0.00    -0.311 NA
ATOM     26  H   UNL     1      -2.141   2.572  26.835  0.00  0.00    +0.122 HD
BRANCH   5  15
ATOM     15  C   UNL     1      -0.991   3.309  25.313  0.00  0.00    +0.048 C 
ATOM     17  C   UNL     1       0.157   2.885  26.224  0.00  0.00    +0.023 C 
ATOM     18  C   UNL     1      -1.014   4.822  25.129  0.00  0.00    +0.023 C 
ENDBRANCH   5  15
ENDBRANCH  12   5
ENDBRANCH   7  12
BRANCH   9  13
ATOM     13  C   UNL     1      -4.073  -0.088  24.357  0.00  0.00    +0.090 C 
BRANCH  13  14
ATOM      4  O   UNL     1      -0.700  -1.348  24.198  0.00  0.00    -0.354 OA
ATOM      6  N   UNL     1      -2.036  -1.454  24.563  0.00  0.00    -0.083 NA
ATOM     14  C   UNL     1      -2.603  -0.324  24.132  0.00  0.00    +0.087 A 
ATOM     16  C   UNL     1      -1.683   0.525  23.493  0.00  0.00    +0.076 A 
ATOM     19  C   UNL     1      -0.503  -0.165  23.561  0.00  0.00    +0.167 A 
BRANCH  19  20
ATOM      1  F   UNL     1       4.697   0.817  21.845  0.00  0.00    -0.205 F 
ATOM     20  C   UNL     1       0.838   0.088  23.120  0.00  0.00    +0.020 A 
ATOM     21  C   UNL     1       1.632   1.015  23.795  0.00  0.00    +0.014 A 
ATOM     22  C   UNL     1       1.348  -0.593  22.013  0.00  0.00    +0.014 A 
ATOM     23  C   UNL     1       2.936   1.261  23.365  0.00  0.00    +0.039 A 
ATOM     24  C   UNL     1       2.651  -0.346  21.583  0.00  0.00    +0.039 A 
ATOM     25  C   UNL     1       3.446   0.580  22.259  0.00  0.00    +0.123 A 
ENDBRANCH  19  20
ENDBRANCH  13  14
ENDBRANCH   9  13
TORSDOF 7
ENDMDL
MODEL 5
REMARK VINA RESULT:      -1.8      1.812      2.971
REMARK  Name = 75536266
REMARK  9 active torsions:
REMARK  status: ('A' for Active; 'I' for Inactive)
REMARK    1  A    between atoms: O_3  and  C_8
REMARK    2  A    between atoms: N_5  and  C_12
REMARK    3  A    between atoms: N_5  and  C_15
REMARK    4  A    between atoms: C_7  and  C_12
REMARK    5  A    between atoms: C_9  and  C_13
REMARK    6  A    between atoms: C_13  and  C_14
REMARK    7  A    between atoms: C_15  and  C_17
REMARK    8  A    between atoms: C_15  and  C_18
REMARK    9  A    between atoms: C_19  and  C_20
REMARK                            x       y       z     vdW  Elec       q    Type
REMARK                         _______ _______ _______ _____ _____    ______ ____
ROOT
ATOM      2  O   UNL     1      -3.441   0.479  23.719  0.00  0.00    -0.369 OA
ATOM      7  C   UNL     1      -4.432  -0.405  24.258  0.00  0.00    +0.161 C 
ATOM      8  C   UNL     1      -3.789  -1.523  25.089  0.00  0.00    +0.145 C 
ATOM      9  C   UNL     1      -2.560   1.066  24.680  0.00  0.00    +0.125 C 
ATOM     10  C   UNL     1      -2.787  -0.988  26.108  0.00  0.00    +0.036 C 
ATOM     11  C   UNL     1      -1.809  -0.016  25.452  0.00  0.00    +0.034 C 
ENDROOT
BRANCH   8   3
ATOM      3  O   UNL     1      -3.087  -2.405  24.209  0.00  0.00    -0.389 OA
ATOM     27  H   UNL     1      -2.615  -3.054  24.757  0.00  0.00    +0.210 HD
ENDBRANCH   8   3
BRANCH   7  12
ATOM     12  C   UNL     1      -5.501   0.369  25.026  0.00  0.00    +0.115 C 
BRANCH  12   5
ATOM      5  N   UNL     1      -5.713   1.684  24.439  0.00  0.00    -0.311 NA
ATOM     26  H   UNL     1      -4.897   1.924  23.876  0.00  0.00    +0.122 HD
BRANCH   5  15
ATOM     15  C   UNL     1      -5.919   2.690  25.472  0.00  0.00    +0.048 C 
ATOM     17  C   UNL     1      -4.675   3.562  25.618  0.00  0.00    +0.023 C 
ATOM     18  C   UNL     1      -6.265   2.004  26.788  0.00  0.00    +0.023 C 
ENDBRANCH   5  15
ENDBRANCH  12   5
ENDBRANCH   7  12
BRANCH   9  13
ATOM     13  C   UNL     1      -1.590   1.966  23.924  0.00  0.00    +0.090 C 
BRANCH  13  14
ATOM      4  O   UNL     1       0.932  -0.227  22.578  0.00  0.00    -0.354 OA
ATOM      6  N   UNL     1      -0.382   0.204  22.702  0.00  0.00    -0.083 NA
ATOM     14  C   UNL     1      -0.329   1.235  23.549  0.00  0.00    +0.087 A 
ATOM     16  C   UNL     1       0.981   1.499  23.988  0.00  0.00    +0.076 A 
ATOM     19  C   UNL     1       1.734   0.551  23.348  0.00  0.00    +0.167 A 
BRANCH  19  20
ATOM      1  F   UNL     1       7.150  -0.718  23.238  0.00  0.00    -0.205 F 
ATOM     20  C   UNL     1       3.130   0.225  23.321  0.00  0.00    +0.020 A 
ATOM     21  C   UNL     1       4.059   1.170  22.885  0.00  0.00    +0.014 A 
ATOM     22  C   UNL     1       3.559  -1.039  23.729  0.00  0.00    +0.014 A 
ATOM     23  C   UNL     1       5.417   0.852  22.857  0.00  0.00    +0.039 A 
ATOM     24  C   UNL     1       4.917  -1.357  23.701  0.00  0.00    +0.039 A 
ATOM     25  C   UNL     1       5.846  -0.411  23.265  0.00  0.00    +0.123 A 
ENDBRANCH  19  20
ENDBRANCH  13  14
ENDBRANCH   9  13
TORSDOF 7
ENDMDL
MODEL 6
REMARK VINA RESULT:      -0.8      1.303      3.009
REMARK  Name = 75536266
REMARK  9 active torsions:
REMARK  status: ('A' for Active; 'I' for Inactive)
REMARK    1  A    between atoms: O_3  and  C_8
REMARK    2  A    between atoms: N_5  and  C_12
REMARK    3  A    between atoms: N_5  and  C_15
REMARK    4  A    between atoms: C_7  and  C_12
REMARK    5  A    between atoms: C_9  and  C_13
REMARK    6  A    between atoms: C_13  and  C_14
REMARK    7  A    between atoms: C_15  and  C_17
REMARK    8  A    between atoms: C_15  and  C_18
REMARK    9  A    between atoms: C_19  and  C_20
REMARK                            x       y       z     vdW  Elec       q    Type
REMARK                         _______ _______ _______ _____ _____    ______ ____
ROOT
ATOM      2  O   UNL     1      -2.839   1.807  25.146  0.00  0.00    -0.369 OA
ATOM      7  C   UNL     1      -3.121   2.919  26.005  0.00  0.00    +0.161 C 
ATOM      8  C   UNL     1      -1.946   3.905  26.045  0.00  0.00    +0.145 C 
ATOM      9  C   UNL     1      -2.477   2.150  23.806  0.00  0.00    +0.125 C 
ATOM     10  C   UNL     1      -1.455   4.283  24.650  0.00  0.00    +0.036 C 
ATOM     11  C   UNL     1      -1.235   3.039  23.794  0.00  0.00    +0.034 C 
ENDROOT
BRANCH   8   3
ATOM      3  O   UNL     1      -0.856   3.294  26.740  0.00  0.00    -0.389 OA
ATOM     27  H   UNL     1      -0.113   3.223  26.117  0.00  0.00    +0.210 HD
ENDBRANCH   8   3
BRANCH   7  12
ATOM     12  C   UNL     1      -4.444   3.584  25.630  0.00  0.00    +0.115 C 
BRANCH  12   5
ATOM      5  N   UNL     1      -5.083   2.882  24.526  0.00  0.00    -0.311 NA
ATOM     26  H   UNL     1      -5.526   3.570  23.917  0.00  0.00    +0.122 HD
BRANCH   5  15
ATOM     15  C   UNL     1      -6.075   1.934  25.014  0.00  0.00    +0.048 C 
ATOM     17  C   UNL     1      -6.324   2.148  26.504  0.00  0.00    +0.023 C 
ATOM     18  C   UNL     1      -5.599   0.513  24.735  0.00  0.00    +0.023 C 
ENDBRANCH   5  15
ENDBRANCH  12   5
ENDBRANCH   7  12
BRANCH   9  13
ATOM     13  C   UNL     1      -2.221   0.849  23.053  0.00  0.00    +0.090 C 
BRANCH  13  14
ATOM      4  O   UNL     1       0.692  -0.997  24.101  0.00  0.00    -0.354 OA
ATOM      6  N   UNL     1      -0.681  -0.788  24.056  0.00  0.00    -0.083 NA
ATOM     14  C   UNL     1      -0.839   0.314  23.320  0.00  0.00    +0.087 A 
ATOM     16  C   UNL     1       0.387   0.841  22.876  0.00  0.00    +0.076 A 
ATOM     19  C   UNL     1       1.317  -0.020  23.395  0.00  0.00    +0.167 A 
BRANCH  19  20
ATOM      1  F   UNL     1       6.867  -0.350  23.213  0.00  0.00    -0.205 F 
ATOM     20  C   UNL     1       2.748  -0.104  23.349  0.00  0.00    +0.020 A 
ATOM     21  C   UNL     1       3.495   0.972  22.871  0.00  0.00    +0.014 A 
ATOM     22  C   UNL     1       3.392  -1.265  23.780  0.00  0.00    +0.014 A 
ATOM     23  C   UNL     1       4.886   0.890  22.826  0.00  0.00    +0.039 A 
ATOM     24  C   UNL     1       4.784  -1.347  23.734  0.00  0.00    +0.039 A 
ATOM     25  C   UNL     1       5.531  -0.270  23.257  0.00  0.00    +0.123 A 
ENDBRANCH  19  20
ENDBRANCH  13  14
ENDBRANCH   9  13
TORSDOF 7
ENDMDL
MODEL 7
REMARK VINA RESULT:      -0.7      3.177      6.327
REMARK  Name = 75536266
REMARK  9 active torsions:
REMARK  status: ('A' for Active; 'I' for Inactive)
REMARK    1  A    between atoms: O_3  and  C_8
REMARK    2  A    between atoms: N_5  and  C_12
REMARK    3  A    between atoms: N_5  and  C_15
REMARK    4  A    between atoms: C_7  and  C_12
REMARK    5  A    between atoms: C_9  and  C_13
REMARK    6  A    between atoms: C_13  and  C_14
REMARK    7  A    between atoms: C_15  and  C_17
REMARK    8  A    between atoms: C_15  and  C_18
REMARK    9  A    between atoms: C_19  and  C_20
REMARK                            x       y       z     vdW  Elec       q    Type
REMARK                         _______ _______ _______ _____ _____    ______ ____
ROOT
ATOM      2  O   UNL     1      -1.895   3.522  24.613  0.00  0.00    -0.369 OA
ATOM      7  C   UNL     1      -0.464   3.565  24.550  0.00  0.00    +0.161 C 
ATOM      8  C   UNL     1       0.037   4.964  24.168  0.00  0.00    +0.145 C 
ATOM      9  C   UNL     1      -2.494   4.482  25.488  0.00  0.00    +0.125 C 
ATOM     10  C   UNL     1      -0.598   6.061  25.019  0.00  0.00    +0.036 C 
ATOM     11  C   UNL     1      -2.115   5.901  25.071  0.00  0.00    +0.034 C 
ENDROOT
BRANCH   8   3
ATOM      3  O   UNL     1      -0.304   5.219  22.803  0.00  0.00    -0.389 OA
ATOM     27  H   UNL     1       0.339   4.748  22.247  0.00  0.00    +0.210 HD
ENDBRANCH   8   3
BRANCH   7  12
ATOM     12  C   UNL     1       0.161   3.039  25.840  0.00  0.00    +0.115 C 
BRANCH  12   5
ATOM      5  N   UNL     1       0.492   1.628  25.719  0.00  0.00    -0.311 NA
ATOM     26  H   UNL     1       1.478   1.504  25.951  0.00  0.00    +0.122 HD
BRANCH   5  15
ATOM     15  C   UNL     1       0.233   1.144  24.370  0.00  0.00    +0.048 C 
ATOM     17  C   UNL     1      -0.476  -0.207  24.420  0.00  0.00    +0.023 C 
ATOM     18  C   UNL     1       1.547   1.045  23.604  0.00  0.00    +0.023 C 
ENDBRANCH   5  15
ENDBRANCH  12   5
ENDBRANCH   7  12
BRANCH   9  13
ATOM     13  C   UNL     1      -4.004   4.281  25.424  0.00  0.00    +0.090 C 
BRANCH  13  14
ATOM      4  O   UNL     1      -5.624   1.089  25.006  0.00  0.00    -0.354 OA
ATOM      6  N   UNL     1      -5.649   2.464  25.203  0.00  0.00    -0.083 NA
ATOM     14  C   UNL     1      -4.366   2.834  25.226  0.00  0.00    +0.087 A 
ATOM     16  C   UNL     1      -3.493   1.745  25.050  0.00  0.00    +0.076 A 
ATOM     19  C   UNL     1      -4.334   0.673  24.916  0.00  0.00    +0.167 A 
BRANCH  19  20
ATOM      1  F   UNL     1      -3.614  -4.785  24.114  0.00  0.00    -0.205 F 
ATOM     20  C   UNL     1      -4.148  -0.734  24.709  0.00  0.00    +0.020 A 
ATOM     21  C   UNL     1      -4.611  -1.333  23.537  0.00  0.00    +0.014 A 
ATOM     22  C   UNL     1      -3.505  -1.503  25.680  0.00  0.00    +0.014 A 
ATOM     23  C   UNL     1      -4.430  -2.701  23.336  0.00  0.00    +0.039 A 
ATOM     24  C   UNL     1      -3.325  -2.871  25.479  0.00  0.00    +0.039 A 
ATOM     25  C   UNL     1      -3.788  -3.471  24.307  0.00  0.00    +0.123 A 
ENDBRANCH  19  20
ENDBRANCH  13  14
ENDBRANCH   9  13
TORSDOF 7
ENDMDL
MODEL 8
REMARK VINA RESULT:      -0.5      3.484      7.734
REMARK  Name = 75536266
REMARK  9 active torsions:
REMARK  status: ('A' for Active; 'I' for Inactive)
REMARK    1  A    between atoms: O_3  and  C_8
REMARK    2  A    between atoms: N_5  and  C_12
REMARK    3  A    between atoms: N_5  and  C_15
REMARK    4  A    between atoms: C_7  and  C_12
REMARK    5  A    between atoms: C_9  and  C_13
REMARK    6  A    between atoms: C_13  and  C_14
REMARK    7  A    between atoms: C_15  and  C_17
REMARK    8  A    between atoms: C_15  and  C_18
REMARK    9  A    between atoms: C_19  and  C_20
REMARK                            x       y       z     vdW  Elec       q    Type
REMARK                         _______ _______ _______ _____ _____    ______ ____
ROOT
ATOM      2  O   UNL     1       0.255   0.962  23.163  0.00  0.00    -0.369 OA
ATOM      7  C   UNL     1       0.395  -0.445  22.931  0.00  0.00    +0.161 C 
ATOM      8  C   UNL     1       1.686  -0.760  22.163  0.00  0.00    +0.145 C 
ATOM      9  C   UNL     1       1.355   1.580  23.836  0.00  0.00    +0.125 C 
ATOM     10  C   UNL     1       2.909  -0.089  22.783  0.00  0.00    +0.036 C 
ATOM     11  C   UNL     1       2.646   1.392  23.042  0.00  0.00    +0.034 C 
ENDROOT
BRANCH   8   3
ATOM      3  O   UNL     1       1.555  -0.275  20.824  0.00  0.00    -0.389 OA
ATOM     27  H   UNL     1       1.124   0.596  20.868  0.00  0.00    +0.210 HD
ENDBRANCH   8   3
BRANCH   7  12
ATOM     12  C   UNL     1       0.269  -1.233  24.234  0.00  0.00    +0.115 C 
BRANCH  12   5
ATOM      5  N   UNL     1      -0.907  -2.089  24.211  0.00  0.00    -0.311 NA
ATOM     26  H   UNL     1      -1.084  -2.374  23.247  0.00  0.00    +0.122 HD
BRANCH   5  15
ATOM     15  C   UNL     1      -2.070  -1.394  24.746  0.00  0.00    +0.048 C 
ATOM     17  C   UNL     1      -1.769  -0.857  26.143  0.00  0.00    +0.023 C 
ATOM     18  C   UNL     1      -3.263  -2.343  24.769  0.00  0.00    +0.023 C 
ENDBRANCH   5  15
ENDBRANCH  12   5
ENDBRANCH   7  12
BRANCH   9  13
ATOM     13  C   UNL     1       1.024   3.060  23.991  0.00  0.00    +0.090 C 
BRANCH  13  14
ATOM      4  O   UNL     1      -2.208   4.341  24.940  0.00  0.00    -0.354 OA
ATOM      6  N   UNL     1      -0.878   4.508  24.576  0.00  0.00    -0.083 NA
ATOM     14  C   UNL     1      -0.410   3.270  24.399  0.00  0.00    +0.087 A 
ATOM     16  C   UNL     1      -1.390   2.289  24.635  0.00  0.00    +0.076 A 
ATOM     19  C   UNL     1      -2.501   3.015  24.972  0.00  0.00    +0.167 A 
BRANCH  19  20
ATOM      1  F   UNL     1      -7.728   1.729  26.374  0.00  0.00    -0.205 F 
ATOM     20  C   UNL     1      -3.849   2.684  25.332  0.00  0.00    +0.020 A 
ATOM     21  C   UNL     1      -4.671   3.648  25.915  0.00  0.00    +0.014 A 
ATOM     22  C   UNL     1      -4.336   1.397  25.101  0.00  0.00    +0.014 A 
ATOM     23  C   UNL     1      -5.982   3.326  26.267  0.00  0.00    +0.039 A 
ATOM     24  C   UNL     1      -5.647   1.075  25.454  0.00  0.00    +0.039 A 
ATOM     25  C   UNL     1      -6.470   2.039  26.036  0.00  0.00    +0.123 A 
ENDBRANCH  19  20
ENDBRANCH  13  14
ENDBRANCH   9  13
TORSDOF 7
ENDMDL
MODEL 9
REMARK VINA RESULT:      -0.5      3.413      7.361
REMARK  Name = 75536266
REMARK  9 active torsions:
REMARK  status: ('A' for Active; 'I' for Inactive)
REMARK    1  A    between atoms: O_3  and  C_8
REMARK    2  A    between atoms: N_5  and  C_12
REMARK    3  A    between atoms: N_5  and  C_15
REMARK    4  A    between atoms: C_7  and  C_12
REMARK    5  A    between atoms: C_9  and  C_13
REMARK    6  A    between atoms: C_13  and  C_14
REMARK    7  A    between atoms: C_15  and  C_17
REMARK    8  A    between atoms: C_15  and  C_18
REMARK    9  A    between atoms: C_19  and  C_20
REMARK                            x       y       z     vdW  Elec       q    Type
REMARK                         _______ _______ _______ _____ _____    ______ ____
ROOT
ATOM      2  O   UNL     1       1.061   0.090  24.151  0.00  0.00    -0.369 OA
ATOM      7  C   UNL     1       2.084   1.030  23.800  0.00  0.00    +0.161 C 
ATOM      8  C   UNL     1       3.043   0.447  22.753  0.00  0.00    +0.145 C 
ATOM      9  C   UNL     1       0.296  -0.415  23.054  0.00  0.00    +0.125 C 
ATOM     10  C   UNL     1       2.305  -0.168  21.567  0.00  0.00    +0.036 C 
ATOM     11  C   UNL     1       1.202  -1.111  22.041  0.00  0.00    +0.034 C 
ENDROOT
BRANCH   8   3
ATOM      3  O   UNL     1       3.820  -0.585  23.366  0.00  0.00    -0.389 OA
ATOM     27  H   UNL     1       3.711  -1.391  22.833  0.00  0.00    +0.210 HD
ENDBRANCH   8   3
BRANCH   7  12
ATOM     12  C   UNL     1       1.481   2.368  23.376  0.00  0.00    +0.115 C 
BRANCH  12   5
ATOM      5  N   UNL     1       0.140   2.528  23.918  0.00  0.00    -0.311 NA
ATOM     26  H   UNL     1      -0.450   2.958  23.205  0.00  0.00    +0.122 HD
BRANCH   5  15
ATOM     15  C   UNL     1       0.156   3.354  25.117  0.00  0.00    +0.048 C 
ATOM     17  C   UNL     1      -0.243   2.526  26.336  0.00  0.00    +0.023 C 
ATOM     18  C   UNL     1      -0.784   4.540  24.929  0.00  0.00    +0.023 C 
ENDBRANCH   5  15
ENDBRANCH  12   5
ENDBRANCH   7  12
BRANCH   9  13
ATOM     13  C   UNL     1      -0.732  -1.387  23.621  0.00  0.00    +0.090 C 
BRANCH  13  14
ATOM      4  O   UNL     1      -3.773  -0.387  25.276  0.00  0.00    -0.354 OA
ATOM      6  N   UNL     1      -2.823  -1.335  24.918  0.00  0.00    -0.083 NA
ATOM     14  C   UNL     1      -1.927  -0.667  24.188  0.00  0.00    +0.087 A 
ATOM     16  C   UNL     1      -2.255   0.694  24.053  0.00  0.00    +0.076 A 
ATOM     19  C   UNL     1      -3.424   0.817  24.755  0.00  0.00    +0.167 A 
BRANCH  19  20
ATOM      1  F   UNL     1      -6.883   5.028  25.872  0.00  0.00    -0.205 F 
ATOM     20  C   UNL     1      -4.315   1.902  25.044  0.00  0.00    +0.020 A 
ATOM     21  C   UNL     1      -5.601   1.641  25.516  0.00  0.00    +0.014 A 
ATOM     22  C   UNL     1      -3.896   3.219  24.851  0.00  0.00    +0.014 A 
ATOM     23  C   UNL     1      -6.469   2.697  25.796  0.00  0.00    +0.039 A 
ATOM     24  C   UNL     1      -4.764   4.275  25.130  0.00  0.00    +0.039 A 
ATOM     25  C   UNL     1      -6.050   4.014  25.603  0.00  0.00    +0.123 A 
ENDBRANCH  19  20
ENDBRANCH  13  14
ENDBRANCH   9  13
TORSDOF 7
ENDMDL
