MODEL 1
REMARK VINA RESULT:      -6.0      0.000      0.000
REMARK  Name = 75367061
REMARK  10 active torsions:
REMARK  status: ('A' for Active; 'I' for Inactive)
REMARK    1  A    between atoms: O_2  and  C_8
REMARK    2  A    between atoms: N_4  and  C_6
REMARK    3  A    between atoms: N_4  and  C_7
REMARK    4  A    between atoms: N_5  and  C_16
REMARK    5  A    between atoms: C_9  and  C_16
REMARK    6  A    between atoms: C_17  and  C_18
REMARK    7  A    between atoms: C_17  and  C_20
REMARK    8  A    between atoms: C_17  and  C_21
REMARK    9  A    between atoms: C_17  and  C_22
REMARK   10  A    between atoms: C_18  and  C_19
REMARK                            x       y       z     vdW  Elec       q    Type
REMARK                         _______ _______ _______ _____ _____    ______ ____
ROOT
ATOM      1  O   UNL     1      -0.684   1.677  22.943  0.00  0.00    -0.371 OA
ATOM      6  C   UNL     1      -1.082   3.033  24.852  0.00  0.00    +0.111 C 
ATOM      8  C   UNL     1      -0.159   1.892  25.239  0.00  0.00    +0.164 C 
ATOM      9  C   UNL     1       0.390   1.485  23.879  0.00  0.00    +0.165 C 
ATOM     12  C   UNL     1      -1.684   2.507  23.560  0.00  0.00    +0.181 C 
ENDROOT
BRANCH   8   2
ATOM      2  O   UNL     1       0.869   2.298  26.122  0.00  0.00    -0.388 OA
ATOM     24  H   UNL     1       1.674   1.800  25.904  0.00  0.00    +0.210 HD
ENDBRANCH   8   2
BRANCH   6   4
ATOM      4  N   UNL     1      -2.084   3.339  25.859  0.00  0.00    -0.306 NA
ATOM     23  H   UNL     1      -1.933   4.276  26.233  0.00  0.00    +0.123 HD
BRANCH   4   7
ATOM      7  C   UNL     1      -3.434   3.238  25.307  0.00  0.00    +0.054 C 
ATOM     10  C   UNL     1      -3.934   1.793  25.416  0.00  0.00    +0.019 C 
ATOM     11  C   UNL     1      -4.371   4.203  26.041  0.00  0.00    +0.019 C 
ATOM     13  C   UNL     1      -5.372   1.663  24.918  0.00  0.00    +0.002 C 
ATOM     14  C   UNL     1      -5.809   4.070  25.542  0.00  0.00    +0.002 C 
ATOM     15  C   UNL     1      -6.307   2.631  25.637  0.00  0.00    +0.000 C 
ENDBRANCH   4   7
ENDBRANCH   6   4
BRANCH   9  16
ATOM     16  C   UNL     1       0.862   0.043  23.829  0.00  0.00    +0.138 C 
BRANCH  16   5
ATOM      3  O   UNL     1      -0.281  -1.718  25.824  0.00  0.00    -0.276 OA
ATOM      5  N   UNL     1      -0.244  -0.871  23.660  0.00  0.00    -0.313 N 
ATOM     19  C   UNL     1      -0.724  -1.678  24.678  0.00  0.00    +0.214 C 
ATOM     25  H   UNL     1      -0.688  -0.905  22.748  0.00  0.00    +0.149 HD
BRANCH  19  18
ATOM     18  C   UNL     1      -1.887  -2.554  24.244  0.00  0.00    +0.102 C 
BRANCH  18  17
ATOM     17  C   UNL     1      -3.282  -1.902  24.402  0.00  0.00    -0.029 C 
ATOM     20  C   UNL     1      -3.535  -1.461  25.853  0.00  0.00    +0.011 C 
ATOM     21  C   UNL     1      -3.436  -0.690  23.470  0.00  0.00    +0.011 C 
ATOM     22  C   UNL     1      -4.344  -2.950  24.018  0.00  0.00    +0.011 C 
ENDBRANCH  18  17
ENDBRANCH  19  18
ENDBRANCH  16   5
ENDBRANCH   9  16
TORSDOF 7
ENDMDL
MODEL 2
REMARK VINA RESULT:      -5.6      1.474      4.939
REMARK  Name = 75367061
REMARK  10 active torsions:
REMARK  status: ('A' for Active; 'I' for Inactive)
REMARK    1  A    between atoms: O_2  and  C_8
REMARK    2  A    between atoms: N_4  and  C_6
REMARK    3  A    between atoms: N_4  and  C_7
REMARK    4  A    between atoms: N_5  and  C_16
REMARK    5  A    between atoms: C_9  and  C_16
REMARK    6  A    between atoms: C_17  and  C_18
REMARK    7  A    between atoms: C_17  and  C_20
REMARK    8  A    between atoms: C_17  and  C_21
REMARK    9  A    between atoms: C_17  and  C_22
REMARK   10  A    between atoms: C_18  and  C_19
REMARK                            x       y       z     vdW  Elec       q    Type
REMARK                         _______ _______ _______ _____ _____    ______ ____
ROOT
ATOM      1  O   UNL     1      -1.050   2.655  26.495  0.00  0.00    -0.371 OA
ATOM      6  C   UNL     1      -0.191   1.269  24.767  0.00  0.00    +0.111 C 
ATOM      8  C   UNL     1      -0.678   2.572  24.160  0.00  0.00    +0.164 C 
ATOM      9  C   UNL     1      -0.675   3.483  25.380  0.00  0.00    +0.165 C 
ATOM     12  C   UNL     1      -0.906   1.277  26.108  0.00  0.00    +0.181 C 
ENDROOT
BRANCH   8   2
ATOM      2  O   UNL     1       0.178   3.054  23.142  0.00  0.00    -0.388 OA
ATOM     24  H   UNL     1       0.057   4.015  23.069  0.00  0.00    +0.210 HD
ENDBRANCH   8   2
BRANCH   6   4
ATOM      4  N   UNL     1      -0.506   0.099  23.964  0.00  0.00    -0.306 NA
ATOM     23  H   UNL     1       0.260  -0.573  24.005  0.00  0.00    +0.123 HD
BRANCH   4   7
ATOM      7  C   UNL     1      -1.745  -0.532  24.417  0.00  0.00    +0.054 C 
ATOM     10  C   UNL     1      -2.850  -0.314  23.378  0.00  0.00    +0.019 C 
ATOM     11  C   UNL     1      -1.508  -2.026  24.666  0.00  0.00    +0.019 C 
ATOM     13  C   UNL     1      -4.141  -1.025  23.781  0.00  0.00    +0.002 C 
ATOM     14  C   UNL     1      -2.801  -2.733  25.068  0.00  0.00    +0.002 C 
ATOM     15  C   UNL     1      -3.908  -2.510  24.042  0.00  0.00    +0.000 C 
ENDBRANCH   4   7
ENDBRANCH   6   4
BRANCH   9  16
ATOM     16  C   UNL     1      -1.640   4.649  25.262  0.00  0.00    +0.138 C 
BRANCH  16   5
ATOM      3  O   UNL     1      -3.905   3.705  23.723  0.00  0.00    -0.276 OA
ATOM      5  N   UNL     1      -2.953   4.303  25.757  0.00  0.00    -0.313 N 
ATOM     19  C   UNL     1      -3.979   3.858  24.941  0.00  0.00    +0.214 C 
ATOM     25  H   UNL     1      -3.113   4.386  26.757  0.00  0.00    +0.149 HD
BRANCH  19  18
ATOM     18  C   UNL     1      -5.262   3.569  25.703  0.00  0.00    +0.102 C 
BRANCH  18  17
ATOM     17  C   UNL     1      -5.701   2.085  25.690  0.00  0.00    -0.029 C 
ATOM     20  C   UNL     1      -6.594   1.774  24.476  0.00  0.00    +0.011 C 
ATOM     21  C   UNL     1      -4.484   1.146  25.678  0.00  0.00    +0.011 C 
ATOM     22  C   UNL     1      -6.512   1.817  26.972  0.00  0.00    +0.011 C 
ENDBRANCH  18  17
ENDBRANCH  19  18
ENDBRANCH  16   5
ENDBRANCH   9  16
TORSDOF 7
ENDMDL
MODEL 3
REMARK VINA RESULT:      -5.5      1.415      1.932
REMARK  Name = 75367061
REMARK  10 active torsions:
REMARK  status: ('A' for Active; 'I' for Inactive)
REMARK    1  A    between atoms: O_2  and  C_8
REMARK    2  A    between atoms: N_4  and  C_6
REMARK    3  A    between atoms: N_4  and  C_7
REMARK    4  A    between atoms: N_5  and  C_16
REMARK    5  A    between atoms: C_9  and  C_16
REMARK    6  A    between atoms: C_17  and  C_18
REMARK    7  A    between atoms: C_17  and  C_20
REMARK    8  A    between atoms: C_17  and  C_21
REMARK    9  A    between atoms: C_17  and  C_22
REMARK   10  A    between atoms: C_18  and  C_19
REMARK                            x       y       z     vdW  Elec       q    Type
REMARK                         _______ _______ _______ _____ _____    ______ ____
ROOT
ATOM      1  O   UNL     1      -0.053   3.810  23.750  0.00  0.00    -0.371 OA
ATOM      6  C   UNL     1      -1.481   4.335  25.574  0.00  0.00    +0.111 C 
ATOM      8  C   UNL     1      -0.994   2.906  25.723  0.00  0.00    +0.164 C 
ATOM      9  C   UNL     1       0.248   2.926  24.844  0.00  0.00    +0.165 C 
ATOM     12  C   UNL     1      -1.206   4.594  24.102  0.00  0.00    +0.181 C 
ENDROOT
BRANCH   8   2
ATOM      2  O   UNL     1      -0.686   2.571  27.063  0.00  0.00    -0.388 OA
ATOM     24  H   UNL     1      -0.345   3.366  27.507  0.00  0.00    +0.210 HD
ENDBRANCH   8   2
BRANCH   6   4
ATOM      4  N   UNL     1      -2.879   4.515  25.929  0.00  0.00    -0.306 NA
ATOM     23  H   UNL     1      -3.274   5.304  25.418  0.00  0.00    +0.123 HD
BRANCH   4   7
ATOM      7  C   UNL     1      -3.652   3.306  25.649  0.00  0.00    +0.054 C 
ATOM     10  C   UNL     1      -4.945   3.313  26.473  0.00  0.00    +0.019 C 
ATOM     11  C   UNL     1      -3.954   3.216  24.149  0.00  0.00    +0.019 C 
ATOM     13  C   UNL     1      -5.816   2.101  26.150  0.00  0.00    +0.002 C 
ATOM     14  C   UNL     1      -4.827   2.003  23.830  0.00  0.00    +0.002 C 
ATOM     15  C   UNL     1      -6.109   1.999  24.656  0.00  0.00    +0.000 C 
ENDBRANCH   4   7
ENDBRANCH   6   4
BRANCH   9  16
ATOM     16  C   UNL     1       0.628   1.557  24.308  0.00  0.00    +0.138 C 
BRANCH  16   5
ATOM      3  O   UNL     1       0.012  -1.045  23.196  0.00  0.00    -0.276 OA
ATOM      5  N   UNL     1      -0.170   0.514  24.909  0.00  0.00    -0.313 N 
ATOM     19  C   UNL     1      -0.411  -0.705  24.299  0.00  0.00    +0.214 C 
ATOM     25  H   UNL     1      -0.559   0.694  25.831  0.00  0.00    +0.149 HD
BRANCH  19  18
ATOM     18  C   UNL     1      -1.286  -1.626  25.133  0.00  0.00    +0.102 C 
BRANCH  18  17
ATOM     17  C   UNL     1      -2.804  -1.497  24.864  0.00  0.00    -0.029 C 
ATOM     20  C   UNL     1      -3.089  -0.518  23.713  0.00  0.00    +0.011 C 
ATOM     21  C   UNL     1      -3.426  -2.864  24.532  0.00  0.00    +0.011 C 
ATOM     22  C   UNL     1      -3.472  -0.955  26.142  0.00  0.00    +0.011 C 
ENDBRANCH  18  17
ENDBRANCH  19  18
ENDBRANCH  16   5
ENDBRANCH   9  16
TORSDOF 7
ENDMDL
MODEL 4
REMARK VINA RESULT:      -4.8      1.508      5.139
REMARK  Name = 75367061
REMARK  10 active torsions:
REMARK  status: ('A' for Active; 'I' for Inactive)
REMARK    1  A    between atoms: O_2  and  C_8
REMARK    2  A    between atoms: N_4  and  C_6
REMARK    3  A    between atoms: N_4  and  C_7
REMARK    4  A    between atoms: N_5  and  C_16
REMARK    5  A    between atoms: C_9  and  C_16
REMARK    6  A    between atoms: C_17  and  C_18
REMARK    7  A    between atoms: C_17  and  C_20
REMARK    8  A    between atoms: C_17  and  C_21
REMARK    9  A    between atoms: C_17  and  C_22
REMARK   10  A    between atoms: C_18  and  C_19
REMARK                            x       y       z     vdW  Elec       q    Type
REMARK                         _______ _______ _______ _____ _____    ______ ____
ROOT
ATOM      1  O   UNL     1      -0.617   1.798  25.997  0.00  0.00    -0.371 OA
ATOM      6  C   UNL     1       0.049  -0.180  24.864  0.00  0.00    +0.111 C 
ATOM      8  C   UNL     1       0.262   1.010  23.947  0.00  0.00    +0.164 C 
ATOM      9  C   UNL     1       0.308   2.151  24.954  0.00  0.00    +0.165 C 
ATOM     12  C   UNL     1      -0.917   0.396  25.885  0.00  0.00    +0.181 C 
ENDROOT
BRANCH   8   2
ATOM      2  O   UNL     1       1.460   0.917  23.201  0.00  0.00    -0.388 OA
ATOM     24  H   UNL     1       1.381   0.170  22.585  0.00  0.00    +0.210 HD
ENDBRANCH   8   2
BRANCH   6   4
ATOM      4  N   UNL     1      -0.478  -1.353  24.184  0.00  0.00    -0.306 NA
ATOM     23  H   UNL     1       0.086  -2.173  24.409  0.00  0.00    +0.123 HD
BRANCH   4   7
ATOM      7  C   UNL     1      -1.872  -1.592  24.552  0.00  0.00    +0.054 C 
ATOM     10  C   UNL     1      -2.783  -0.611  23.806  0.00  0.00    +0.019 C 
ATOM     11  C   UNL     1      -2.251  -3.044  24.241  0.00  0.00    +0.019 C 
ATOM     13  C   UNL     1      -4.256  -0.881  24.107  0.00  0.00    +0.002 C 
ATOM     14  C   UNL     1      -3.725  -3.310  24.543  0.00  0.00    +0.002 C 
ATOM     15  C   UNL     1      -4.636  -2.329  23.811  0.00  0.00    +0.000 C 
ENDBRANCH   4   7
ENDBRANCH   6   4
BRANCH   9  16
ATOM     16  C   UNL     1      -0.078   3.493  24.360  0.00  0.00    +0.138 C 
BRANCH  16   5
ATOM      3  O   UNL     1      -2.003   5.354  25.463  0.00  0.00    -0.276 OA
ATOM      5  N   UNL     1      -1.493   3.560  24.078  0.00  0.00    -0.313 N 
ATOM     19  C   UNL     1      -2.340   4.489  24.657  0.00  0.00    +0.214 C 
ATOM     25  H   UNL     1      -1.870   2.891  23.412  0.00  0.00    +0.149 HD
BRANCH  19  18
ATOM     18  C   UNL     1      -3.783   4.345  24.202  0.00  0.00    +0.102 C 
BRANCH  18  17
ATOM     17  C   UNL     1      -4.704   3.602  25.199  0.00  0.00    -0.029 C 
ATOM     20  C   UNL     1      -5.939   4.444  25.559  0.00  0.00    +0.011 C 
ATOM     21  C   UNL     1      -5.161   2.249  24.629  0.00  0.00    +0.011 C 
ATOM     22  C   UNL     1      -3.900   3.340  26.488  0.00  0.00    +0.011 C 
ENDBRANCH  18  17
ENDBRANCH  19  18
ENDBRANCH  16   5
ENDBRANCH   9  16
TORSDOF 7
ENDMDL
MODEL 5
REMARK VINA RESULT:      -4.7      1.846      4.275
REMARK  Name = 75367061
REMARK  10 active torsions:
REMARK  status: ('A' for Active; 'I' for Inactive)
REMARK    1  A    between atoms: O_2  and  C_8
REMARK    2  A    between atoms: N_4  and  C_6
REMARK    3  A    between atoms: N_4  and  C_7
REMARK    4  A    between atoms: N_5  and  C_16
REMARK    5  A    between atoms: C_9  and  C_16
REMARK    6  A    between atoms: C_17  and  C_18
REMARK    7  A    between atoms: C_17  and  C_20
REMARK    8  A    between atoms: C_17  and  C_21
REMARK    9  A    between atoms: C_17  and  C_22
REMARK   10  A    between atoms: C_18  and  C_19
REMARK                            x       y       z     vdW  Elec       q    Type
REMARK                         _______ _______ _______ _____ _____    ______ ____
ROOT
ATOM      1  O   UNL     1      -1.430  -1.955  23.515  0.00  0.00    -0.371 OA
ATOM      6  C   UNL     1       0.051  -0.521  24.694  0.00  0.00    +0.111 C 
ATOM      8  C   UNL     1      -1.183  -0.762  25.542  0.00  0.00    +0.164 C 
ATOM      9  C   UNL     1      -1.721  -2.043  24.920  0.00  0.00    +0.165 C 
ATOM     12  C   UNL     1      -0.447  -0.924  23.316  0.00  0.00    +0.181 C 
ENDROOT
BRANCH   8   2
ATOM      2  O   UNL     1      -0.879  -0.929  26.914  0.00  0.00    -0.388 OA
ATOM     24  H   UNL     1       0.059  -1.170  26.993  0.00  0.00    +0.210 HD
ENDBRANCH   8   2
BRANCH   6   4
ATOM      4  N   UNL     1       0.534   0.850  24.743  0.00  0.00    -0.306 NA
ATOM     23  H   UNL     1       1.107   1.051  23.924  0.00  0.00    +0.123 HD
BRANCH   4   7
ATOM      7  C   UNL     1      -0.577   1.796  24.815  0.00  0.00    +0.054 C 
ATOM     10  C   UNL     1      -0.647   2.412  26.218  0.00  0.00    +0.019 C 
ATOM     11  C   UNL     1      -0.410   2.880  23.745  0.00  0.00    +0.019 C 
ATOM     13  C   UNL     1      -1.750   3.464  26.309  0.00  0.00    +0.002 C 
ATOM     14  C   UNL     1      -1.514   3.931  23.840  0.00  0.00    +0.002 C 
ATOM     15  C   UNL     1      -1.594   4.539  25.237  0.00  0.00    +0.000 C 
ENDBRANCH   4   7
ENDBRANCH   6   4
BRANCH   9  16
ATOM     16  C   UNL     1      -3.214  -2.230  25.124  0.00  0.00    +0.138 C 
BRANCH  16   5
ATOM      3  O   UNL     1      -3.910   0.212  23.731  0.00  0.00    -0.276 OA
ATOM      5  N   UNL     1      -3.824  -1.046  25.683  0.00  0.00    -0.313 N 
ATOM     19  C   UNL     1      -4.121   0.080  24.936  0.00  0.00    +0.214 C 
ATOM     25  H   UNL     1      -4.049  -1.058  26.674  0.00  0.00    +0.149 HD
BRANCH  19  18
ATOM     18  C   UNL     1      -4.750   1.192  25.758  0.00  0.00    +0.102 C 
BRANCH  18  17
ATOM     17  C   UNL     1      -5.344   2.355  24.928  0.00  0.00    -0.029 C 
ATOM     20  C   UNL     1      -5.474   3.637  25.768  0.00  0.00    +0.011 C 
ATOM     21  C   UNL     1      -4.484   2.647  23.687  0.00  0.00    +0.011 C 
ATOM     22  C   UNL     1      -6.750   1.936  24.458  0.00  0.00    +0.011 C 
ENDBRANCH  18  17
ENDBRANCH  19  18
ENDBRANCH  16   5
ENDBRANCH   9  16
TORSDOF 7
ENDMDL
MODEL 6
REMARK VINA RESULT:      -4.4      2.135      4.656
REMARK  Name = 75367061
REMARK  10 active torsions:
REMARK  status: ('A' for Active; 'I' for Inactive)
REMARK    1  A    between atoms: O_2  and  C_8
REMARK    2  A    between atoms: N_4  and  C_6
REMARK    3  A    between atoms: N_4  and  C_7
REMARK    4  A    between atoms: N_5  and  C_16
REMARK    5  A    between atoms: C_9  and  C_16
REMARK    6  A    between atoms: C_17  and  C_18
REMARK    7  A    between atoms: C_17  and  C_20
REMARK    8  A    between atoms: C_17  and  C_21
REMARK    9  A    between atoms: C_17  and  C_22
REMARK   10  A    between atoms: C_18  and  C_19
REMARK                            x       y       z     vdW  Elec       q    Type
REMARK                         _______ _______ _______ _____ _____    ______ ____
ROOT
ATOM      1  O   UNL     1      -2.409   4.670  25.578  0.00  0.00    -0.371 OA
ATOM      6  C   UNL     1      -0.833   3.515  24.229  0.00  0.00    +0.111 C 
ATOM      8  C   UNL     1      -2.222   2.985  23.929  0.00  0.00    +0.164 C 
ATOM      9  C   UNL     1      -3.088   4.133  24.431  0.00  0.00    +0.165 C 
ATOM     12  C   UNL     1      -1.052   4.193  25.571  0.00  0.00    +0.181 C 
ENDROOT
BRANCH   8   2
ATOM      2  O   UNL     1      -2.427   2.734  22.552  0.00  0.00    -0.388 OA
ATOM     24  H   UNL     1      -1.882   3.358  22.043  0.00  0.00    +0.210 HD
ENDBRANCH   8   2
BRANCH   6   4
ATOM      4  N   UNL     1       0.188   2.481  24.278  0.00  0.00    -0.306 NA
ATOM     23  H   UNL     1       0.836   2.661  25.043  0.00  0.00    +0.123 HD
BRANCH   4   7
ATOM      7  C   UNL     1      -0.412   1.157  24.437  0.00  0.00    +0.054 C 
ATOM     10  C   UNL     1       0.392   0.122  23.642  0.00  0.00    +0.019 C 
ATOM     11  C   UNL     1      -0.472   0.787  25.923  0.00  0.00    +0.019 C 
ATOM     13  C   UNL     1      -0.160  -1.287  23.847  0.00  0.00    +0.002 C 
ATOM     14  C   UNL     1      -1.024  -0.623  26.123  0.00  0.00    +0.002 C 
ATOM     15  C   UNL     1      -0.234  -1.655  25.326  0.00  0.00    +0.000 C 
ENDBRANCH   4   7
ENDBRANCH   6   4
BRANCH   9  16
ATOM     16  C   UNL     1      -4.491   3.701  24.821  0.00  0.00    +0.138 C 
BRANCH  16   5
ATOM      3  O   UNL     1      -5.937   1.644  26.259  0.00  0.00    -0.276 OA
ATOM      5  N   UNL     1      -4.774   2.356  24.377  0.00  0.00    -0.313 N 
ATOM     19  C   UNL     1      -5.476   1.437  25.138  0.00  0.00    +0.214 C 
ATOM     25  H   UNL     1      -4.443   2.088  23.454  0.00  0.00    +0.149 HD
BRANCH  19  18
ATOM     18  C   UNL     1      -5.633   0.091  24.450  0.00  0.00    +0.102 C 
BRANCH  18  17
ATOM     17  C   UNL     1      -4.338  -0.754  24.378  0.00  0.00    -0.029 C 
ATOM     20  C   UNL     1      -3.300  -0.113  23.442  0.00  0.00    +0.011 C 
ATOM     21  C   UNL     1      -3.717  -0.936  25.773  0.00  0.00    +0.011 C 
ATOM     22  C   UNL     1      -4.704  -2.143  23.822  0.00  0.00    +0.011 C 
ENDBRANCH  18  17
ENDBRANCH  19  18
ENDBRANCH  16   5
ENDBRANCH   9  16
TORSDOF 7
ENDMDL
MODEL 7
REMARK VINA RESULT:      -4.4      1.727      4.373
REMARK  Name = 75367061
REMARK  10 active torsions:
REMARK  status: ('A' for Active; 'I' for Inactive)
REMARK    1  A    between atoms: O_2  and  C_8
REMARK    2  A    between atoms: N_4  and  C_6
REMARK    3  A    between atoms: N_4  and  C_7
REMARK    4  A    between atoms: N_5  and  C_16
REMARK    5  A    between atoms: C_9  and  C_16
REMARK    6  A    between atoms: C_17  and  C_18
REMARK    7  A    between atoms: C_17  and  C_20
REMARK    8  A    between atoms: C_17  and  C_21
REMARK    9  A    between atoms: C_17  and  C_22
REMARK   10  A    between atoms: C_18  and  C_19
REMARK                            x       y       z     vdW  Elec       q    Type
REMARK                         _______ _______ _______ _____ _____    ______ ____
ROOT
ATOM      1  O   UNL     1      -2.042  -2.375  24.971  0.00  0.00    -0.371 OA
ATOM      6  C   UNL     1      -3.817  -1.107  24.033  0.00  0.00    +0.111 C 
ATOM      8  C   UNL     1      -2.597  -0.217  24.176  0.00  0.00    +0.164 C 
ATOM      9  C   UNL     1      -1.486  -1.255  24.260  0.00  0.00    +0.165 C 
ATOM     12  C   UNL     1      -3.474  -2.243  24.981  0.00  0.00    +0.181 C 
ENDROOT
BRANCH   8   2
ATOM      2  O   UNL     1      -2.422   0.652  23.073  0.00  0.00    -0.388 OA
ATOM     24  H   UNL     1      -1.471   0.723  22.887  0.00  0.00    +0.210 HD
ENDBRANCH   8   2
BRANCH   6   4
ATOM      4  N   UNL     1      -5.065  -0.443  24.373  0.00  0.00    -0.306 NA
ATOM     23  H   UNL     1      -5.589  -1.001  25.048  0.00  0.00    +0.123 HD
BRANCH   4   7
ATOM      7  C   UNL     1      -4.820   0.891  24.916  0.00  0.00    +0.054 C 
ATOM     10  C   UNL     1      -4.918   1.935  23.798  0.00  0.00    +0.019 C 
ATOM     11  C   UNL     1      -5.821   1.190  26.038  0.00  0.00    +0.019 C 
ATOM     13  C   UNL     1      -4.743   3.351  24.341  0.00  0.00    +0.002 C 
ATOM     14  C   UNL     1      -5.643   2.607  26.579  0.00  0.00    +0.002 C 
ATOM     15  C   UNL     1      -5.729   3.649  25.467  0.00  0.00    +0.000 C 
ENDBRANCH   4   7
ENDBRANCH   6   4
BRANCH   9  16
ATOM     16  C   UNL     1      -0.248  -0.753  24.982  0.00  0.00    +0.138 C 
BRANCH  16   5
ATOM      3  O   UNL     1       1.034   1.737  24.244  0.00  0.00    -0.276 OA
ATOM      5  N   UNL     1      -0.467   0.551  25.564  0.00  0.00    -0.313 N 
ATOM     19  C   UNL     1       0.196   1.691  25.143  0.00  0.00    +0.214 C 
ATOM     25  H   UNL     1      -1.151   0.621  26.311  0.00  0.00    +0.149 HD
BRANCH  19  18
ATOM     18  C   UNL     1      -0.205   2.934  25.920  0.00  0.00    +0.102 C 
BRANCH  18  17
ATOM     17  C   UNL     1      -1.168   3.883  25.168  0.00  0.00    -0.029 C 
ATOM     20  C   UNL     1      -0.504   5.238  24.872  0.00  0.00    +0.011 C 
ATOM     21  C   UNL     1      -1.649   3.256  23.850  0.00  0.00    +0.011 C 
ATOM     22  C   UNL     1      -2.395   4.128  26.068  0.00  0.00    +0.011 C 
ENDBRANCH  18  17
ENDBRANCH  19  18
ENDBRANCH  16   5
ENDBRANCH   9  16
TORSDOF 7
ENDMDL
MODEL 8
REMARK VINA RESULT:      -4.4      2.303      4.597
REMARK  Name = 75367061
REMARK  10 active torsions:
REMARK  status: ('A' for Active; 'I' for Inactive)
REMARK    1  A    between atoms: O_2  and  C_8
REMARK    2  A    between atoms: N_4  and  C_6
REMARK    3  A    between atoms: N_4  and  C_7
REMARK    4  A    between atoms: N_5  and  C_16
REMARK    5  A    between atoms: C_9  and  C_16
REMARK    6  A    between atoms: C_17  and  C_18
REMARK    7  A    between atoms: C_17  and  C_20
REMARK    8  A    between atoms: C_17  and  C_21
REMARK    9  A    between atoms: C_17  and  C_22
REMARK   10  A    between atoms: C_18  and  C_19
REMARK                            x       y       z     vdW  Elec       q    Type
REMARK                         _______ _______ _______ _____ _____    ______ ____
ROOT
ATOM      1  O   UNL     1      -5.205   3.455  26.523  0.00  0.00    -0.371 OA
ATOM      6  C   UNL     1      -3.523   4.443  25.168  0.00  0.00    +0.111 C 
ATOM      8  C   UNL     1      -4.187   3.321  24.392  0.00  0.00    +0.164 C 
ATOM      9  C   UNL     1      -5.505   3.185  25.143  0.00  0.00    +0.165 C 
ATOM     12  C   UNL     1      -3.921   4.099  26.593  0.00  0.00    +0.181 C 
ENDROOT
BRANCH   8   2
ATOM      2  O   UNL     1      -4.389   3.644  23.029  0.00  0.00    -0.388 OA
ATOM     24  H   UNL     1      -5.180   3.174  22.717  0.00  0.00    +0.210 HD
ENDBRANCH   8   2
BRANCH   6   4
ATOM      4  N   UNL     1      -2.083   4.507  24.982  0.00  0.00    -0.306 NA
ATOM     23  H   UNL     1      -1.657   5.068  25.719  0.00  0.00    +0.123 HD
BRANCH   4   7
ATOM      7  C   UNL     1      -1.494   3.170  24.972  0.00  0.00    +0.054 C 
ATOM     10  C   UNL     1      -1.195   2.742  23.531  0.00  0.00    +0.019 C 
ATOM     11  C   UNL     1      -0.221   3.155  25.827  0.00  0.00    +0.019 C 
ATOM     13  C   UNL     1      -0.507   1.379  23.486  0.00  0.00    +0.002 C 
ATOM     14  C   UNL     1       0.465   1.791  25.779  0.00  0.00    +0.002 C 
ATOM     15  C   UNL     1       0.753   1.356  24.345  0.00  0.00    +0.000 C 
ENDBRANCH   4   7
ENDBRANCH   6   4
BRANCH   9  16
ATOM     16  C   UNL     1      -6.131   1.808  25.014  0.00  0.00    +0.138 C 
BRANCH  16   5
ATOM      3  O   UNL     1      -3.867   0.562  23.705  0.00  0.00    -0.276 OA
ATOM      5  N   UNL     1      -5.266   0.781  25.548  0.00  0.00    -0.313 N 
ATOM     19  C   UNL     1      -4.202   0.243  24.844  0.00  0.00    +0.214 C 
ATOM     25  H   UNL     1      -5.453   0.455  26.492  0.00  0.00    +0.149 HD
BRANCH  19  18
ATOM     18  C   UNL     1      -3.454  -0.826  25.623  0.00  0.00    +0.102 C 
BRANCH  18  17
ATOM     17  C   UNL     1      -3.131  -2.107  24.817  0.00  0.00    -0.029 C 
ATOM     20  C   UNL     1      -4.167  -2.348  23.706  0.00  0.00    +0.011 C 
ATOM     21  C   UNL     1      -1.728  -2.032  24.193  0.00  0.00    +0.011 C 
ATOM     22  C   UNL     1      -3.170  -3.304  25.787  0.00  0.00    +0.011 C 
ENDBRANCH  18  17
ENDBRANCH  19  18
ENDBRANCH  16   5
ENDBRANCH   9  16
TORSDOF 7
ENDMDL
MODEL 9
REMARK VINA RESULT:      -3.9      2.600      4.684
REMARK  Name = 75367061
REMARK  10 active torsions:
REMARK  status: ('A' for Active; 'I' for Inactive)
REMARK    1  A    between atoms: O_2  and  C_8
REMARK    2  A    between atoms: N_4  and  C_6
REMARK    3  A    between atoms: N_4  and  C_7
REMARK    4  A    between atoms: N_5  and  C_16
REMARK    5  A    between atoms: C_9  and  C_16
REMARK    6  A    between atoms: C_17  and  C_18
REMARK    7  A    between atoms: C_17  and  C_20
REMARK    8  A    between atoms: C_17  and  C_21
REMARK    9  A    between atoms: C_17  and  C_22
REMARK   10  A    between atoms: C_18  and  C_19
REMARK                            x       y       z     vdW  Elec       q    Type
REMARK                         _______ _______ _______ _____ _____    ______ ____
ROOT
ATOM      1  O   UNL     1      -0.243   3.358  23.506  0.00  0.00    -0.371 OA
ATOM      6  C   UNL     1      -1.349   3.714  25.578  0.00  0.00    +0.111 C 
ATOM      8  C   UNL     1      -0.644   2.371  25.618  0.00  0.00    +0.164 C 
ATOM      9  C   UNL     1       0.388   2.548  24.513  0.00  0.00    +0.165 C 
ATOM     12  C   UNL     1      -1.405   3.980  24.083  0.00  0.00    +0.181 C 
ENDROOT
BRANCH   8   2
ATOM      2  O   UNL     1      -0.037   2.109  26.868  0.00  0.00    -0.388 OA
ATOM     24  H   UNL     1       0.894   1.878  26.714  0.00  0.00    +0.210 HD
ENDBRANCH   8   2
BRANCH   6   4
ATOM      4  N   UNL     1      -2.662   3.702  26.201  0.00  0.00    -0.306 NA
ATOM     23  H   UNL     1      -2.976   4.656  26.380  0.00  0.00    +0.123 HD
BRANCH   4   7
ATOM      7  C   UNL     1      -3.637   3.009  25.360  0.00  0.00    +0.054 C 
ATOM     10  C   UNL     1      -3.286   1.520  25.275  0.00  0.00    +0.019 C 
ATOM     11  C   UNL     1      -5.048   3.213  25.921  0.00  0.00    +0.019 C 
ATOM     13  C   UNL     1      -4.327   0.748  24.466  0.00  0.00    +0.002 C 
ATOM     14  C   UNL     1      -6.086   2.440  25.110  0.00  0.00    +0.002 C 
ATOM     15  C   UNL     1      -5.736   0.958  25.014  0.00  0.00    +0.000 C 
ENDBRANCH   4   7
ENDBRANCH   6   4
BRANCH   9  16
ATOM     16  C   UNL     1       0.846   1.235  23.902  0.00  0.00    +0.138 C 
BRANCH  16   5
ATOM      3  O   UNL     1       2.210  -0.223  21.804  0.00  0.00    -0.276 OA
ATOM      5  N   UNL     1       2.257   1.259  23.594  0.00  0.00    -0.313 N 
ATOM     19  C   UNL     1       2.822   0.524  22.566  0.00  0.00    +0.214 C 
ATOM     25  H   UNL     1       2.850   1.856  24.162  0.00  0.00    +0.149 HD
BRANCH  19  18
ATOM     18  C   UNL     1       4.325   0.715  22.454  0.00  0.00    +0.102 C 
BRANCH  18  17
ATOM     17  C   UNL     1       5.162  -0.149  23.429  0.00  0.00    -0.029 C 
ATOM     20  C   UNL     1       5.489   0.619  24.721  0.00  0.00    +0.011 C 
ATOM     21  C   UNL     1       4.427  -1.451  23.785  0.00  0.00    +0.011 C 
ATOM     22  C   UNL     1       6.486  -0.512  22.729  0.00  0.00    +0.011 C 
ENDBRANCH  18  17
ENDBRANCH  19  18
ENDBRANCH  16   5
ENDBRANCH   9  16
TORSDOF 7
ENDMDL
MODEL 10
REMARK VINA RESULT:      -3.9      2.238      4.441
REMARK  Name = 75367061
REMARK  10 active torsions:
REMARK  status: ('A' for Active; 'I' for Inactive)
REMARK    1  A    between atoms: O_2  and  C_8
REMARK    2  A    between atoms: N_4  and  C_6
REMARK    3  A    between atoms: N_4  and  C_7
REMARK    4  A    between atoms: N_5  and  C_16
REMARK    5  A    between atoms: C_9  and  C_16
REMARK    6  A    between atoms: C_17  and  C_18
REMARK    7  A    between atoms: C_17  and  C_20
REMARK    8  A    between atoms: C_17  and  C_21
REMARK    9  A    between atoms: C_17  and  C_22
REMARK   10  A    between atoms: C_18  and  C_19
REMARK                            x       y       z     vdW  Elec       q    Type
REMARK                         _______ _______ _______ _____ _____    ______ ____
ROOT
ATOM      1  O   UNL     1      -6.346   1.440  25.613  0.00  0.00    -0.371 OA
ATOM      6  C   UNL     1      -4.815   3.201  25.173  0.00  0.00    +0.111 C 
ATOM      8  C   UNL     1      -4.239   1.902  24.642  0.00  0.00    +0.164 C 
ATOM      9  C   UNL     1      -5.497   1.052  24.520  0.00  0.00    +0.165 C 
ATOM     12  C   UNL     1      -5.869   2.691  26.140  0.00  0.00    +0.181 C 
ENDROOT
BRANCH   8   2
ATOM      2  O   UNL     1      -3.588   2.061  23.396  0.00  0.00    -0.388 OA
ATOM     24  H   UNL     1      -3.079   2.889  23.420  0.00  0.00    +0.210 HD
ENDBRANCH   8   2
BRANCH   6   4
ATOM      4  N   UNL     1      -3.829   4.059  25.810  0.00  0.00    -0.306 NA
ATOM     23  H   UNL     1      -3.816   3.892  26.816  0.00  0.00    +0.123 HD
BRANCH   4   7
ATOM      7  C   UNL     1      -2.497   3.834  25.252  0.00  0.00    +0.054 C 
ATOM     10  C   UNL     1      -1.789   5.176  25.036  0.00  0.00    +0.019 C 
ATOM     11  C   UNL     1      -1.688   2.926  26.184  0.00  0.00    +0.019 C 
ATOM     13  C   UNL     1      -0.364   4.978  24.525  0.00  0.00    +0.002 C 
ATOM     14  C   UNL     1      -0.263   2.730  25.670  0.00  0.00    +0.002 C 
ATOM     15  C   UNL     1       0.443   4.064  25.444  0.00  0.00    +0.000 C 
ENDBRANCH   4   7
ENDBRANCH   6   4
BRANCH   9  16
ATOM     16  C   UNL     1      -5.223  -0.440  24.587  0.00  0.00    +0.138 C 
BRANCH  16   5
ATOM      3  O   UNL     1      -3.650  -2.768  25.290  0.00  0.00    -0.276 OA
ATOM      5  N   UNL     1      -3.879  -0.751  24.158  0.00  0.00    -0.313 N 
ATOM     19  C   UNL     1      -3.203  -1.894  24.549  0.00  0.00    +0.214 C 
ATOM     25  H   UNL     1      -3.423  -0.094  23.532  0.00  0.00    +0.149 HD
BRANCH  19  18
ATOM     18  C   UNL     1      -1.802  -1.985  23.969  0.00  0.00    +0.102 C 
BRANCH  18  17
ATOM     17  C   UNL     1      -0.696  -1.351  24.846  0.00  0.00    -0.029 C 
ATOM     20  C   UNL     1      -1.295  -0.561  26.022  0.00  0.00    +0.011 C 
ATOM     21  C   UNL     1       0.261  -2.423  25.392  0.00  0.00    +0.011 C 
ATOM     22  C   UNL     1       0.113  -0.378  23.967  0.00  0.00    +0.011 C 
ENDBRANCH  18  17
ENDBRANCH  19  18
ENDBRANCH  16   5
ENDBRANCH   9  16
TORSDOF 7
ENDMDL
