MODEL 1
REMARK VINA RESULT:       4.5      0.000      0.000
REMARK  Name = 11865938
REMARK  6 active torsions:
REMARK  status: ('A' for Active; 'I' for Inactive)
REMARK    1  A    between atoms: O_5  and  C_29
REMARK    2  A    between atoms: O_5  and  C_34
REMARK    3  A    between atoms: N_9  and  C_13
REMARK    4  A    between atoms: C_20  and  C_21
REMARK    5  A    between atoms: C_22  and  C_27
REMARK    6  A    between atoms: C_27  and  C_28
REMARK                            x       y       z     vdW  Elec       q    Type
REMARK                         _______ _______ _______ _____ _____    ______ ____
ROOT
ATOM      1  O   UNL     1      -2.552   1.535  22.160  0.00  0.00    -0.273 OA
ATOM      2  O   UNL     1      -2.555  -1.731  26.852  0.00  0.00    -0.274 OA
ATOM      4  O   UNL     1      -4.236   5.202  23.671  0.00  0.00    -0.275 OA
ATOM      6  N   UNL     1      -1.824  -0.046  23.696  0.00  0.00    -0.287 N 
ATOM      7  N   UNL     1      -4.033   2.933  24.061  0.00  0.00    -0.288 N 
ATOM      8  N   UNL     1      -3.910  -0.190  25.902  0.00  0.00    -0.309 N 
ATOM     10  C   UNL     1      -3.273   1.743  24.454  0.00  0.00    +0.182 C 
ATOM     11  C   UNL     1      -1.547  -0.455  25.077  0.00  0.00    +0.164 C 
ATOM     12  C   UNL     1      -4.339   0.716  24.859  0.00  0.00    +0.104 C 
ATOM     13  C   UNL     1       0.120  -1.365  23.572  0.00  0.00    +0.092 C 
ATOM     14  C   UNL     1      -0.544  -1.616  24.923  0.00  0.00    +0.055 C 
ATOM     15  C   UNL     1      -1.029  -0.811  22.743  0.00  0.00    +0.131 C 
ATOM     16  C   UNL     1      -5.530   1.584  25.255  0.00  0.00    +0.043 C 
ATOM     17  C   UNL     1      -2.508   1.103  23.311  0.00  0.00    +0.239 C 
ATOM     18  C   UNL     1      -5.462   2.708  24.233  0.00  0.00    +0.110 C 
ATOM     19  C   UNL     1      -2.725  -0.890  25.961  0.00  0.00    +0.234 C 
ATOM     22  C   UNL     1      -3.532   4.196  23.788  0.00  0.00    +0.221 C 
ATOM     35  H   UNL     1      -4.628  -0.493  26.552  0.00  0.00    +0.149 HD
ENDROOT
BRANCH  13   9
ATOM      3  O   UNL     1       1.913  -0.480  21.466  0.00  0.00    -0.276 OA
ATOM      9  N   UNL     1       1.201  -0.414  23.681  0.00  0.00    -0.311 N 
ATOM     21  C   UNL     1       2.007  -0.054  22.613  0.00  0.00    +0.216 C 
ATOM     36  H   UNL     1       1.378  -0.008  24.595  0.00  0.00    +0.149 HD
BRANCH  21  20
ATOM     20  C   UNL     1       3.035   0.969  22.996  0.00  0.00    +0.075 C 
ATOM     23  C   UNL     1       4.131   1.059  21.944  0.00  0.00    +0.013 C 
ATOM     24  C   UNL     1       3.782   0.576  24.262  0.00  0.00    +0.013 C 
ATOM     25  C   UNL     1       5.168   0.009  22.336  0.00  0.00    +0.001 C 
ATOM     26  C   UNL     1       4.882  -0.367  23.788  0.00  0.00    +0.001 C 
ENDBRANCH  21  20
ENDBRANCH  13   9
BRANCH  22  27
ATOM     27  C   UNL     1      -2.036   4.303  23.624  0.00  0.00    +0.134 C 
BRANCH  27  28
ATOM     28  C   UNL     1      -1.332   3.645  24.770  0.00  0.00    +0.003 A 
ATOM     29  C   UNL     1      -1.785   3.820  26.075  0.00  0.00    +0.124 A 
ATOM     30  C   UNL     1      -0.215   2.853  24.513  0.00  0.00    +0.008 A 
ATOM     31  C   UNL     1      -1.117   3.198  27.131  0.00  0.00    +0.046 A 
ATOM     32  C   UNL     1       0.453   2.232  25.569  0.00  0.00    +0.001 A 
ATOM     33  C   UNL     1       0.002   2.405  26.878  0.00  0.00    +0.004 A 
BRANCH  29   5
ATOM      5  O   UNL     1      -2.876   4.591  26.340  0.00  0.00    -0.495 OA
ATOM     34  C   UNL     1      -3.788   4.108  27.324  0.00  0.00    +0.277 C 
ENDBRANCH  29   5
ENDBRANCH  27  28
ENDBRANCH  22  27
TORSDOF 5
ENDMDL
MODEL 2
REMARK VINA RESULT:       5.6      1.960      5.814
REMARK  Name = 11865938
REMARK  6 active torsions:
REMARK  status: ('A' for Active; 'I' for Inactive)
REMARK    1  A    between atoms: O_5  and  C_29
REMARK    2  A    between atoms: O_5  and  C_34
REMARK    3  A    between atoms: N_9  and  C_13
REMARK    4  A    between atoms: C_20  and  C_21
REMARK    5  A    between atoms: C_22  and  C_27
REMARK    6  A    between atoms: C_27  and  C_28
REMARK                            x       y       z     vdW  Elec       q    Type
REMARK                         _______ _______ _______ _____ _____    ______ ____
ROOT
ATOM      1  O   UNL     1      -2.129   2.049  22.704  0.00  0.00    -0.273 OA
ATOM      2  O   UNL     1      -5.354   3.956  27.022  0.00  0.00    -0.274 OA
ATOM      4  O   UNL     1       1.811   3.218  24.000  0.00  0.00    -0.275 OA
ATOM      6  N   UNL     1      -3.849   2.098  24.262  0.00  0.00    -0.287 N 
ATOM      7  N   UNL     1      -0.449   3.622  24.275  0.00  0.00    -0.288 N 
ATOM      8  N   UNL     1      -3.536   4.655  25.875  0.00  0.00    -0.309 N 
ATOM     10  C   UNL     1      -1.784   3.266  24.761  0.00  0.00    +0.182 C 
ATOM     11  C   UNL     1      -4.325   2.277  25.638  0.00  0.00    +0.164 C 
ATOM     12  C   UNL     1      -2.545   4.597  24.822  0.00  0.00    +0.104 C 
ATOM     13  C   UNL     1      -5.576   0.523  24.529  0.00  0.00    +0.092 C 
ATOM     14  C   UNL     1      -5.682   1.546  25.656  0.00  0.00    +0.055 C 
ATOM     15  C   UNL     1      -4.766   1.274  23.484  0.00  0.00    +0.131 C 
ATOM     16  C   UNL     1      -1.432   5.630  24.972  0.00  0.00    +0.043 C 
ATOM     17  C   UNL     1      -2.571   2.394  23.800  0.00  0.00    +0.239 C 
ATOM     18  C   UNL     1      -0.343   5.061  24.076  0.00  0.00    +0.110 C 
ATOM     19  C   UNL     1      -4.488   3.707  26.175  0.00  0.00    +0.234 C 
ATOM     22  C   UNL     1       0.669   2.805  24.218  0.00  0.00    +0.221 C 
ATOM     35  H   UNL     1      -3.673   5.563  26.308  0.00  0.00    +0.149 HD
ENDROOT
BRANCH  13   9
ATOM      3  O   UNL     1      -4.019  -1.313  22.905  0.00  0.00    -0.276 OA
ATOM      9  N   UNL     1      -4.898  -0.676  24.964  0.00  0.00    -0.311 N 
ATOM     21  C   UNL     1      -4.176  -1.493  24.109  0.00  0.00    +0.216 C 
ATOM     36  H   UNL     1      -4.975  -0.929  25.945  0.00  0.00    +0.149 HD
BRANCH  21  20
ATOM     20  C   UNL     1      -3.554  -2.655  24.824  0.00  0.00    +0.075 C 
ATOM     23  C   UNL     1      -3.053  -2.243  26.201  0.00  0.00    +0.013 C 
ATOM     24  C   UNL     1      -2.301  -3.150  24.117  0.00  0.00    +0.013 C 
ATOM     25  C   UNL     1      -1.629  -1.734  25.986  0.00  0.00    +0.001 C 
ATOM     26  C   UNL     1      -1.187  -2.235  24.614  0.00  0.00    +0.001 C 
ENDBRANCH  21  20
ENDBRANCH  13   9
BRANCH  22  27
ATOM     27  C   UNL     1       0.434   1.330  24.433  0.00  0.00    +0.134 C 
BRANCH  27  28
ATOM     28  C   UNL     1       0.862   0.548  23.231  0.00  0.00    +0.003 A 
ATOM     29  C   UNL     1       2.208   0.454  22.888  0.00  0.00    +0.124 A 
ATOM     30  C   UNL     1      -0.106  -0.089  22.457  0.00  0.00    +0.008 A 
ATOM     31  C   UNL     1       2.590  -0.280  21.764  0.00  0.00    +0.046 A 
ATOM     32  C   UNL     1       0.275  -0.823  21.333  0.00  0.00    +0.001 A 
ATOM     33  C   UNL     1       1.623  -0.918  20.987  0.00  0.00    +0.004 A 
BRANCH  29   5
ATOM      5  O   UNL     1       3.165   1.071  23.635  0.00  0.00    -0.495 OA
ATOM     34  C   UNL     1       4.523   0.733  23.358  0.00  0.00    +0.277 C 
ENDBRANCH  29   5
ENDBRANCH  27  28
ENDBRANCH  22  27
TORSDOF 5
ENDMDL
MODEL 3
REMARK VINA RESULT:       6.8      1.428      2.312
REMARK  Name = 11865938
REMARK  6 active torsions:
REMARK  status: ('A' for Active; 'I' for Inactive)
REMARK    1  A    between atoms: O_5  and  C_29
REMARK    2  A    between atoms: O_5  and  C_34
REMARK    3  A    between atoms: N_9  and  C_13
REMARK    4  A    between atoms: C_20  and  C_21
REMARK    5  A    between atoms: C_22  and  C_27
REMARK    6  A    between atoms: C_27  and  C_28
REMARK                            x       y       z     vdW  Elec       q    Type
REMARK                         _______ _______ _______ _____ _____    ______ ____
ROOT
ATOM      1  O   UNL     1      -2.448   2.641  23.542  0.00  0.00    -0.273 OA
ATOM      2  O   UNL     1      -3.431  -2.858  24.756  0.00  0.00    -0.274 OA
ATOM      4  O   UNL     1      -3.877   4.574  27.118  0.00  0.00    -0.275 OA
ATOM      6  N   UNL     1      -2.111   0.345  23.603  0.00  0.00    -0.287 N 
ATOM      7  N   UNL     1      -3.989   2.636  25.863  0.00  0.00    -0.288 N 
ATOM      8  N   UNL     1      -4.465  -0.875  25.088  0.00  0.00    -0.309 N 
ATOM     10  C   UNL     1      -3.429   1.382  25.353  0.00  0.00    +0.182 C 
ATOM     11  C   UNL     1      -2.062  -0.922  24.340  0.00  0.00    +0.164 C 
ATOM     12  C   UNL     1      -4.650   0.552  24.934  0.00  0.00    +0.104 C 
ATOM     13  C   UNL     1      -0.333  -0.860  22.644  0.00  0.00    +0.092 C 
ATOM     14  C   UNL     1      -1.189  -1.830  23.453  0.00  0.00    +0.055 C 
ATOM     15  C   UNL     1      -1.294   0.292  22.397  0.00  0.00    +0.131 C 
ATOM     16  C   UNL     1      -5.773   1.120  25.796  0.00  0.00    +0.043 C 
ATOM     17  C   UNL     1      -2.603   1.551  24.092  0.00  0.00    +0.239 C 
ATOM     18  C   UNL     1      -5.445   2.605  25.814  0.00  0.00    +0.110 C 
ATOM     19  C   UNL     1      -3.387  -1.625  24.673  0.00  0.00    +0.234 C 
ATOM     22  C   UNL     1      -3.315   3.647  26.530  0.00  0.00    +0.221 C 
ATOM     35  H   UNL     1      -5.291  -1.406  25.347  0.00  0.00    +0.149 HD
ENDROOT
BRANCH  13   9
ATOM      3  O   UNL     1       2.266  -0.113  21.586  0.00  0.00    -0.276 OA
ATOM      9  N   UNL     1       0.828  -0.431  23.389  0.00  0.00    -0.311 N 
ATOM     21  C   UNL     1       2.032  -0.094  22.791  0.00  0.00    +0.216 C 
ATOM     36  H   UNL     1       0.749  -0.393  24.400  0.00  0.00    +0.149 HD
BRANCH  21  20
ATOM     20  C   UNL     1       3.062   0.340  23.791  0.00  0.00    +0.075 C 
ATOM     23  C   UNL     1       4.111   1.230  23.140  0.00  0.00    +0.013 C 
ATOM     24  C   UNL     1       3.866  -0.836  24.323  0.00  0.00    +0.013 C 
ATOM     25  C   UNL     1       5.177   0.282  22.596  0.00  0.00    +0.001 C 
ATOM     26  C   UNL     1       4.957  -1.063  23.283  0.00  0.00    +0.001 C 
ENDBRANCH  21  20
ENDBRANCH  13   9
BRANCH  22  27
ATOM     27  C   UNL     1      -1.808   3.577  26.506  0.00  0.00    +0.134 C 
BRANCH  27  28
ATOM     28  C   UNL     1      -1.265   4.327  25.330  0.00  0.00    +0.003 A 
ATOM     29  C   UNL     1      -0.220   3.801  24.575  0.00  0.00    +0.124 A 
ATOM     30  C   UNL     1      -1.820   5.562  24.999  0.00  0.00    +0.008 A 
ATOM     31  C   UNL     1       0.274   4.514  23.482  0.00  0.00    +0.046 A 
ATOM     32  C   UNL     1      -1.326   6.274  23.905  0.00  0.00    +0.001 A 
ATOM     33  C   UNL     1      -0.278   5.750  23.147  0.00  0.00    +0.004 A 
BRANCH  29   5
ATOM      5  O   UNL     1       0.332   2.596  24.887  0.00  0.00    -0.495 OA
ATOM     34  C   UNL     1       0.334   2.221  26.264  0.00  0.00    +0.277 C 
ENDBRANCH  29   5
ENDBRANCH  27  28
ENDBRANCH  22  27
TORSDOF 5
ENDMDL
MODEL 4
REMARK VINA RESULT:       8.1      2.275      4.901
REMARK  Name = 11865938
REMARK  6 active torsions:
REMARK  status: ('A' for Active; 'I' for Inactive)
REMARK    1  A    between atoms: O_5  and  C_29
REMARK    2  A    between atoms: O_5  and  C_34
REMARK    3  A    between atoms: N_9  and  C_13
REMARK    4  A    between atoms: C_20  and  C_21
REMARK    5  A    between atoms: C_22  and  C_27
REMARK    6  A    between atoms: C_27  and  C_28
REMARK                            x       y       z     vdW  Elec       q    Type
REMARK                         _______ _______ _______ _____ _____    ______ ____
ROOT
ATOM      1  O   UNL     1      -2.457   0.949  26.239  0.00  0.00    -0.273 OA
ATOM      2  O   UNL     1      -1.818   6.450  24.818  0.00  0.00    -0.274 OA
ATOM      4  O   UNL     1      -6.160  -0.019  24.259  0.00  0.00    -0.275 OA
ATOM      6  N   UNL     1      -1.383   2.919  25.641  0.00  0.00    -0.287 N 
ATOM      7  N   UNL     1      -4.863   1.718  25.062  0.00  0.00    -0.288 N 
ATOM      8  N   UNL     1      -3.515   5.070  25.388  0.00  0.00    -0.309 N 
ATOM     10  C   UNL     1      -3.701   2.609  25.003  0.00  0.00    +0.182 C 
ATOM     11  C   UNL     1      -1.269   4.106  24.787  0.00  0.00    +0.164 C 
ATOM     12  C   UNL     1      -4.102   3.828  25.844  0.00  0.00    +0.104 C 
ATOM     13  C   UNL     1       0.927   3.251  25.350  0.00  0.00    +0.092 C 
ATOM     14  C   UNL     1       0.204   4.532  24.944  0.00  0.00    +0.055 C 
ATOM     15  C   UNL     1      -0.101   2.564  26.236  0.00  0.00    +0.131 C 
ATOM     16  C   UNL     1      -5.627   3.813  25.780  0.00  0.00    +0.043 C 
ATOM     17  C   UNL     1      -2.464   2.044  25.675  0.00  0.00    +0.239 C 
ATOM     18  C   UNL     1      -5.935   2.324  25.840  0.00  0.00    +0.110 C 
ATOM     19  C   UNL     1      -2.196   5.299  25.066  0.00  0.00    +0.234 C 
ATOM     22  C   UNL     1      -5.077   0.568  24.319  0.00  0.00    +0.221 C 
ATOM     35  H   UNL     1      -4.087   5.901  25.503  0.00  0.00    +0.149 HD
ENDROOT
BRANCH  13   9
ATOM      3  O   UNL     1       0.408   0.419  24.971  0.00  0.00    -0.276 OA
ATOM      9  N   UNL     1       1.258   2.443  24.199  0.00  0.00    -0.311 N 
ATOM     21  C   UNL     1       0.969   1.091  24.111  0.00  0.00    +0.216 C 
ATOM     36  H   UNL     1       1.741   2.898  23.430  0.00  0.00    +0.149 HD
BRANCH  21  20
ATOM     20  C   UNL     1       1.398   0.502  22.800  0.00  0.00    +0.075 C 
ATOM     23  C   UNL     1       1.748  -0.972  22.955  0.00  0.00    +0.013 C 
ATOM     24  C   UNL     1       2.687   1.128  22.292  0.00  0.00    +0.013 C 
ATOM     25  C   UNL     1       3.225  -1.006  23.346  0.00  0.00    +0.001 C 
ATOM     26  C   UNL     1       3.798   0.368  23.009  0.00  0.00    +0.001 C 
ENDBRANCH  21  20
ENDBRANCH  13   9
BRANCH  22  27
ATOM     27  C   UNL     1      -3.889   0.029  23.560  0.00  0.00    +0.134 C 
BRANCH  27  28
ATOM     28  C   UNL     1      -3.757  -1.448  23.768  0.00  0.00    +0.003 A 
ATOM     29  C   UNL     1      -2.625  -1.979  24.380  0.00  0.00    +0.124 A 
ATOM     30  C   UNL     1      -4.783  -2.287  23.340  0.00  0.00    +0.008 A 
ATOM     31  C   UNL     1      -2.518  -3.358  24.566  0.00  0.00    +0.046 A 
ATOM     32  C   UNL     1      -4.677  -3.665  23.526  0.00  0.00    +0.001 A 
ATOM     33  C   UNL     1      -3.544  -4.201  24.139  0.00  0.00    +0.004 A 
BRANCH  29   5
ATOM      5  O   UNL     1      -1.614  -1.171  24.803  0.00  0.00    -0.495 OA
ATOM     34  C   UNL     1      -0.564  -1.783  25.551  0.00  0.00    +0.277 C 
ENDBRANCH  29   5
ENDBRANCH  27  28
ENDBRANCH  22  27
TORSDOF 5
ENDMDL
