MODEL 1
REMARK VINA RESULT:      -0.3      0.000      0.000
REMARK  Name = 45360523
REMARK  8 active torsions:
REMARK  status: ('A' for Active; 'I' for Inactive)
REMARK    1  A    between atoms: O_4  and  C_33
REMARK    2  A    between atoms: O_4  and  C_34
REMARK    3  A    between atoms: N_7  and  C_15
REMARK    4  A    between atoms: C_10  and  C_13
REMARK    5  A    between atoms: C_11  and  C_17
REMARK    6  A    between atoms: C_13  and  C_22
REMARK    7  A    between atoms: C_17  and  C_23
REMARK    8  A    between atoms: C_29  and  C_33
REMARK                            x       y       z     vdW  Elec       q    Type
REMARK                         _______ _______ _______ _____ _____    ______ ____
ROOT
ATOM      6  N   UNL     1      16.333  -2.108  24.853  0.00  0.00    -0.316 NA
ATOM     10  C   UNL     1      16.176  -4.972  25.544  0.00  0.00    +0.004 C 
ATOM     11  C   UNL     1      16.504  -3.877  26.587  0.00  0.00    +0.012 C 
ATOM     12  C   UNL     1      15.387  -4.342  24.385  0.00  0.00    +0.019 C 
ATOM     14  C   UNL     1      17.158  -2.648  25.933  0.00  0.00    +0.085 C 
ATOM     16  C   UNL     1      16.077  -3.104  23.814  0.00  0.00    +0.081 C 
ATOM     40  H   UNL     1      16.802  -1.303  24.440  0.00  0.00    +0.122 HD
ENDROOT
BRANCH  10  13
ATOM     13  C   UNL     1      17.405  -5.724  25.021  0.00  0.00    +0.100 C 
BRANCH  13  22
ATOM      1  O   UNL     1      16.751  -7.427  23.511  0.00  0.00    -0.276 OA
ATOM      5  N   UNL     1      17.031  -8.062  25.728  0.00  0.00    -0.301 N 
ATOM     15  C   UNL     1      15.910  -9.654  27.869  0.00  0.00    +0.095 C 
ATOM     18  C   UNL     1      16.297  -8.187  28.078  0.00  0.00    +0.044 C 
ATOM     19  C   UNL     1      15.555  -9.916  26.402  0.00  0.00    +0.044 C 
ATOM     20  C   UNL     1      17.405  -7.764  27.116  0.00  0.00    +0.110 C 
ATOM     21  C   UNL     1      16.677  -9.459  25.474  0.00  0.00    +0.110 C 
ATOM     22  C   UNL     1      17.033  -7.144  24.678  0.00  0.00    +0.216 C 
BRANCH  15   7
ATOM      3  O   UNL     1      13.152 -10.639  27.147  0.00  0.00    -0.247 OA
ATOM      7  N   UNL     1      14.815 -10.025  28.732  0.00  0.00    -0.289 N 
ATOM      8  N   UNL     1      12.796 -10.723  29.484  0.00  0.00    -0.306 N 
ATOM     24  C   UNL     1      14.839  -9.991  30.132  0.00  0.00    +0.070 A 
ATOM     25  C   UNL     1      13.543 -10.481  28.295  0.00  0.00    +0.328 A 
ATOM     26  C   UNL     1      13.595 -10.422  30.588  0.00  0.00    +0.067 A 
ATOM     28  C   UNL     1      15.840  -9.623  31.006  0.00  0.00    +0.028 A 
ATOM     30  C   UNL     1      13.287 -10.506  31.927  0.00  0.00    +0.028 A 
ATOM     31  C   UNL     1      15.552  -9.701  32.374  0.00  0.00    +0.002 A 
ATOM     32  C   UNL     1      14.290 -10.137  32.829  0.00  0.00    +0.002 A 
ATOM     41  H   UNL     1      11.841 -11.056  29.534  0.00  0.00    +0.170 HD
ENDBRANCH  15   7
ENDBRANCH  13  22
ENDBRANCH  10  13
BRANCH  11  17
ATOM     17  C   UNL     1      17.361  -4.390  27.745  0.00  0.00    +0.064 C 
BRANCH  17  23
ATOM      2  O   UNL     1      16.586  -2.378  30.629  0.00  0.00    -0.356 OA
ATOM      9  N   UNL     1      17.148  -2.560  29.371  0.00  0.00    -0.083 NA
ATOM     23  C   UNL     1      16.894  -3.834  29.059  0.00  0.00    +0.084 A 
ATOM     27  C   UNL     1      16.181  -4.499  30.072  0.00  0.00    +0.074 A 
ATOM     29  C   UNL     1      16.012  -3.540  31.035  0.00  0.00    +0.175 A 
BRANCH  29  33
ATOM     33  C   UNL     1      15.367  -3.525  32.353  0.00  0.00    +0.306 C 
BRANCH  33   4
ATOM      4  O   UNL     1      15.112  -4.861  32.797  0.00  0.00    -0.484 OA
BRANCH   4  34
ATOM     34  C   UNL     1      14.003  -5.473  32.281  0.00  0.00    +0.121 A 
ATOM     35  C   UNL     1      12.752  -5.245  32.852  0.00  0.00    +0.045 A 
ATOM     36  C   UNL     1      14.125  -6.325  31.183  0.00  0.00    +0.045 A 
ATOM     37  C   UNL     1      11.621  -5.869  32.325  0.00  0.00    +0.004 A 
ATOM     38  C   UNL     1      12.994  -6.948  30.656  0.00  0.00    +0.004 A 
ATOM     39  C   UNL     1      11.742  -6.721  31.226  0.00  0.00    +0.000 A 
ENDBRANCH   4  34
ENDBRANCH  33   4
ENDBRANCH  29  33
ENDBRANCH  17  23
ENDBRANCH  11  17
TORSDOF 8
ENDMDL
