MODEL 1
REMARK VINA RESULT:       7.4      0.000      0.000
REMARK  Name = 7164894
REMARK  12 active torsions:
REMARK  status: ('A' for Active; 'I' for Inactive)
REMARK    1  A    between atoms: S_1  and  N_9
REMARK    2  A    between atoms: S_1  and  C_19
REMARK    3  A    between atoms: O_6  and  C_24
REMARK    4  A    between atoms: O_6  and  C_39
REMARK    5  A    between atoms: O_8  and  C_36
REMARK    6  A    between atoms: O_8  and  C_41
REMARK    7  A    between atoms: N_11  and  C_20
REMARK    8  A    between atoms: N_12  and  C_28
REMARK    9  A    between atoms: C_13  and  C_17
REMARK   10  A    between atoms: C_20  and  C_21
REMARK   11  A    between atoms: C_20  and  C_24
REMARK   12  A    between atoms: C_21  and  C_25
REMARK                            x       y       z     vdW  Elec       q    Type
REMARK                         _______ _______ _______ _____ _____    ______ ____
ROOT
ATOM      5  O   UNL     1       1.914   1.059  22.655  0.00  0.00    -0.252 OA
ATOM      9  N   UNL     1      -2.234  -1.005  24.494  0.00  0.00    -0.162 NA
ATOM     10  N   UNL     1       0.373  -0.497  23.402  0.00  0.00    -0.282 N 
ATOM     12  N   UNL     1       2.682  -0.898  23.658  0.00  0.00    -0.269 N 
ATOM     13  C   UNL     1      -1.925   0.329  23.909  0.00  0.00    +0.183 C 
ATOM     14  C   UNL     1      -0.761   0.298  22.922  0.00  0.00    +0.139 C 
ATOM     15  C   UNL     1      -1.436  -2.126  23.937  0.00  0.00    +0.129 C 
ATOM     16  C   UNL     1       0.044  -1.780  24.036  0.00  0.00    +0.126 C 
ATOM     18  C   UNL     1       1.692  -0.028  23.193  0.00  0.00    +0.307 C 
ATOM     43  H   UNL     1       2.396  -1.759  24.109  0.00  0.00    +0.156 HD
ENDROOT
BRANCH  12  28
ATOM     28  C   UNL     1       4.088  -0.723  23.599  0.00  0.00    +0.035 A 
ATOM     32  C   UNL     1       4.623   0.508  23.221  0.00  0.00    +0.023 A 
ATOM     33  C   UNL     1       4.936  -1.784  23.920  0.00  0.00    +0.023 A 
ATOM     37  C   UNL     1       6.006   0.680  23.164  0.00  0.00    +0.002 A 
ATOM     38  C   UNL     1       6.319  -1.612  23.863  0.00  0.00    +0.002 A 
ATOM     40  C   UNL     1       6.854  -0.380  23.484  0.00  0.00    +0.000 A 
ENDBRANCH  12  28
BRANCH  13  17
ATOM      4  O   UNL     1      -1.771   0.793  26.242  0.00  0.00    -0.274 OA
ATOM     11  N   UNL     1      -1.154   2.443  24.720  0.00  0.00    -0.301 N 
ATOM     17  C   UNL     1      -1.610   1.190  25.091  0.00  0.00    +0.234 C 
ATOM     42  H   UNL     1      -1.039   2.659  23.735  0.00  0.00    +0.150 HD
BRANCH  11  20
ATOM     20  C   UNL     1      -0.802   3.470  25.675  0.00  0.00    +0.186 C 
BRANCH  20  24
ATOM      7  O   UNL     1      -0.490   5.622  24.622  0.00  0.00    -0.249 OA
ATOM     24  C   UNL     1      -1.238   4.857  25.221  0.00  0.00    +0.328 C 
BRANCH  24   6
ATOM      6  O   UNL     1      -2.525   5.131  25.574  0.00  0.00    -0.467 OA
ATOM     39  C   UNL     1      -3.074   4.307  26.607  0.00  0.00    +0.280 C 
ENDBRANCH  24   6
ENDBRANCH  20  24
BRANCH  20  21
ATOM     21  C   UNL     1       0.693   3.421  26.021  0.00  0.00    +0.069 C 
BRANCH  21  25
ATOM     25  C   UNL     1       0.999   3.014  27.446  0.00  0.00    -0.045 A 
ATOM     30  C   UNL     1      -0.039   2.702  28.321  0.00  0.00    +0.007 A 
ATOM     31  C   UNL     1       2.323   2.952  27.882  0.00  0.00    +0.007 A 
ATOM     34  C   UNL     1       0.244   2.327  29.634  0.00  0.00    +0.046 A 
ATOM     35  C   UNL     1       2.607   2.576  29.196  0.00  0.00    +0.046 A 
ATOM     36  C   UNL     1       1.567   2.264  30.071  0.00  0.00    +0.120 A 
BRANCH  36   8
ATOM      8  O   UNL     1       1.843   1.897  31.353  0.00  0.00    -0.495 OA
ATOM     41  C   UNL     1       0.792   2.033  32.308  0.00  0.00    +0.277 C 
ENDBRANCH  36   8
ENDBRANCH  21  25
ENDBRANCH  20  21
ENDBRANCH  11  20
ENDBRANCH  13  17
BRANCH   9   1
ATOM      1  S   UNL     1      -3.879  -1.340  24.821  0.00  0.00    +0.062 S 
ATOM      2  O   UNL     1      -3.996  -1.877  26.161  0.00  0.00    -0.153 OA
ATOM      3  O   UNL     1      -4.453  -2.033  23.688  0.00  0.00    -0.153 OA
BRANCH   1  19
ATOM     19  C   UNL     1      -4.531   0.302  24.840  0.00  0.00    +0.106 A 
ATOM     22  C   UNL     1      -4.244   1.178  23.793  0.00  0.00    +0.028 A 
ATOM     23  C   UNL     1      -5.334   0.722  25.901  0.00  0.00    +0.028 A 
ATOM     26  C   UNL     1      -4.759   2.474  23.808  0.00  0.00    +0.002 A 
ATOM     27  C   UNL     1      -5.850   2.017  25.914  0.00  0.00    +0.002 A 
ATOM     29  C   UNL     1      -5.562   2.893  24.868  0.00  0.00    +0.000 A 
ENDBRANCH   1  19
ENDBRANCH   9   1
TORSDOF 10
ENDMDL
MODEL 2
REMARK VINA RESULT:       8.0      2.019      4.663
REMARK  Name = 7164894
REMARK  12 active torsions:
REMARK  status: ('A' for Active; 'I' for Inactive)
REMARK    1  A    between atoms: S_1  and  N_9
REMARK    2  A    between atoms: S_1  and  C_19
REMARK    3  A    between atoms: O_6  and  C_24
REMARK    4  A    between atoms: O_6  and  C_39
REMARK    5  A    between atoms: O_8  and  C_36
REMARK    6  A    between atoms: O_8  and  C_41
REMARK    7  A    between atoms: N_11  and  C_20
REMARK    8  A    between atoms: N_12  and  C_28
REMARK    9  A    between atoms: C_13  and  C_17
REMARK   10  A    between atoms: C_20  and  C_21
REMARK   11  A    between atoms: C_20  and  C_24
REMARK   12  A    between atoms: C_21  and  C_25
REMARK                            x       y       z     vdW  Elec       q    Type
REMARK                         _______ _______ _______ _____ _____    ______ ____
ROOT
ATOM      5  O   UNL     1       2.403   2.664  23.990  0.00  0.00    -0.252 OA
ATOM      9  N   UNL     1      -2.549   2.892  23.462  0.00  0.00    -0.162 NA
ATOM     10  N   UNL     1       0.249   2.285  23.234  0.00  0.00    -0.282 N 
ATOM     12  N   UNL     1       1.848   0.554  23.176  0.00  0.00    -0.269 N 
ATOM     13  C   UNL     1      -1.545   3.781  24.110  0.00  0.00    +0.183 C 
ATOM     14  C   UNL     1      -0.154   3.671  23.488  0.00  0.00    +0.139 C 
ATOM     15  C   UNL     1      -2.048   2.153  22.276  0.00  0.00    +0.129 C 
ATOM     16  C   UNL     1      -0.776   1.406  22.656  0.00  0.00    +0.126 C 
ATOM     18  C   UNL     1       1.580   1.886  23.502  0.00  0.00    +0.307 C 
ATOM     43  H   UNL     1       1.095  -0.013  22.802  0.00  0.00    +0.156 HD
ENDROOT
BRANCH  12  28
ATOM     28  C   UNL     1       3.072  -0.146  23.321  0.00  0.00    +0.035 A 
ATOM     32  C   UNL     1       3.070  -1.479  23.731  0.00  0.00    +0.023 A 
ATOM     33  C   UNL     1       4.280   0.499  23.054  0.00  0.00    +0.023 A 
ATOM     37  C   UNL     1       4.274  -2.168  23.873  0.00  0.00    +0.002 A 
ATOM     38  C   UNL     1       5.485  -0.189  23.196  0.00  0.00    +0.002 A 
ATOM     40  C   UNL     1       5.482  -1.523  23.606  0.00  0.00    +0.000 A 
ENDBRANCH  12  28
BRANCH  13  17
ATOM      4  O   UNL     1      -2.221   3.905  26.392  0.00  0.00    -0.274 OA
ATOM     11  N   UNL     1      -0.664   2.293  25.763  0.00  0.00    -0.301 N 
ATOM     17  C   UNL     1      -1.534   3.347  25.541  0.00  0.00    +0.234 C 
ATOM     42  H   UNL     1      -0.158   1.893  24.979  0.00  0.00    +0.150 HD
BRANCH  11  20
ATOM     20  C   UNL     1      -0.453   1.703  27.066  0.00  0.00    +0.186 C 
BRANCH  20  24
ATOM      7  O   UNL     1       1.465   3.129  27.422  0.00  0.00    -0.249 OA
ATOM     24  C   UNL     1       0.531   2.503  27.911  0.00  0.00    +0.328 C 
BRANCH  24   6
ATOM      6  O   UNL     1       0.252   2.417  29.241  0.00  0.00    -0.467 OA
ATOM     39  C   UNL     1       1.387   2.392  30.113  0.00  0.00    +0.280 C 
ENDBRANCH  24   6
ENDBRANCH  20  24
BRANCH  20  21
ATOM     21  C   UNL     1      -0.046   0.227  26.951  0.00  0.00    +0.069 C 
BRANCH  21  25
ATOM     25  C   UNL     1      -0.992  -0.628  26.137  0.00  0.00    -0.045 A 
ATOM     30  C   UNL     1      -2.315  -0.787  26.545  0.00  0.00    +0.007 A 
ATOM     31  C   UNL     1      -0.538  -1.257  24.978  0.00  0.00    +0.007 A 
ATOM     34  C   UNL     1      -3.186  -1.576  25.794  0.00  0.00    +0.046 A 
ATOM     35  C   UNL     1      -1.409  -2.046  24.226  0.00  0.00    +0.046 A 
ATOM     36  C   UNL     1      -2.733  -2.205  24.634  0.00  0.00    +0.120 A 
BRANCH  36   8
ATOM      8  O   UNL     1      -3.584  -2.974  23.901  0.00  0.00    -0.495 OA
ATOM     41  C   UNL     1      -4.835  -2.391  23.536  0.00  0.00    +0.277 C 
ENDBRANCH  36   8
ENDBRANCH  21  25
ENDBRANCH  20  21
ENDBRANCH  11  20
ENDBRANCH  13  17
BRANCH   9   1
ATOM      1  S   UNL     1      -4.150   3.485  23.361  0.00  0.00    +0.062 S 
ATOM      2  O   UNL     1      -4.727   3.078  22.097  0.00  0.00    -0.153 OA
ATOM      3  O   UNL     1      -4.166   4.872  23.774  0.00  0.00    -0.153 OA
BRANCH   1  19
ATOM     19  C   UNL     1      -4.914   2.530  24.635  0.00  0.00    +0.106 A 
ATOM     22  C   UNL     1      -5.600   3.168  25.669  0.00  0.00    +0.028 A 
ATOM     23  C   UNL     1      -4.834   1.138  24.606  0.00  0.00    +0.028 A 
ATOM     26  C   UNL     1      -6.204   2.414  26.674  0.00  0.00    +0.002 A 
ATOM     27  C   UNL     1      -5.439   0.383  25.611  0.00  0.00    +0.002 A 
ATOM     29  C   UNL     1      -6.124   1.021  26.645  0.00  0.00    +0.000 A 
ENDBRANCH   1  19
ENDBRANCH   9   1
TORSDOF 10
ENDMDL
MODEL 3
REMARK VINA RESULT:       9.4      1.890      4.382
REMARK  Name = 7164894
REMARK  12 active torsions:
REMARK  status: ('A' for Active; 'I' for Inactive)
REMARK    1  A    between atoms: S_1  and  N_9
REMARK    2  A    between atoms: S_1  and  C_19
REMARK    3  A    between atoms: O_6  and  C_24
REMARK    4  A    between atoms: O_6  and  C_39
REMARK    5  A    between atoms: O_8  and  C_36
REMARK    6  A    between atoms: O_8  and  C_41
REMARK    7  A    between atoms: N_11  and  C_20
REMARK    8  A    between atoms: N_12  and  C_28
REMARK    9  A    between atoms: C_13  and  C_17
REMARK   10  A    between atoms: C_20  and  C_21
REMARK   11  A    between atoms: C_20  and  C_24
REMARK   12  A    between atoms: C_21  and  C_25
REMARK                            x       y       z     vdW  Elec       q    Type
REMARK                         _______ _______ _______ _____ _____    ______ ____
ROOT
ATOM      5  O   UNL     1       2.813   0.707  21.703  0.00  0.00    -0.252 OA
ATOM      9  N   UNL     1      -1.507   0.275  24.152  0.00  0.00    -0.162 NA
ATOM     10  N   UNL     1       1.122  -0.101  23.060  0.00  0.00    -0.282 N 
ATOM     12  N   UNL     1       3.377  -0.558  23.575  0.00  0.00    -0.269 N 
ATOM     13  C   UNL     1      -1.063   1.100  22.995  0.00  0.00    +0.183 C 
ATOM     14  C   UNL     1       0.075   0.461  22.202  0.00  0.00    +0.139 C 
ATOM     15  C   UNL     1      -0.846  -1.050  24.258  0.00  0.00    +0.129 C 
ATOM     16  C   UNL     1       0.664  -0.856  24.234  0.00  0.00    +0.126 C 
ATOM     18  C   UNL     1       2.481   0.062  22.700  0.00  0.00    +0.307 C 
ATOM     43  H   UNL     1       3.005  -1.045  24.382  0.00  0.00    +0.156 HD
ENDROOT
BRANCH  12  28
ATOM     28  C   UNL     1       4.792  -0.582  23.496  0.00  0.00    +0.035 A 
ATOM     32  C   UNL     1       5.451  -1.757  23.137  0.00  0.00    +0.023 A 
ATOM     33  C   UNL     1       5.526   0.571  23.778  0.00  0.00    +0.023 A 
ATOM     37  C   UNL     1       6.843  -1.781  23.058  0.00  0.00    +0.002 A 
ATOM     38  C   UNL     1       6.918   0.548  23.700  0.00  0.00    +0.002 A 
ATOM     40  C   UNL     1       7.577  -0.628  23.340  0.00  0.00    +0.000 A 
ENDBRANCH  12  28
BRANCH  13  17
ATOM      4  O   UNL     1      -0.586   3.435  22.952  0.00  0.00    -0.274 OA
ATOM     11  N   UNL     1      -0.301   2.262  24.942  0.00  0.00    -0.301 N 
ATOM     17  C   UNL     1      -0.636   2.397  23.606  0.00  0.00    +0.234 C 
ATOM     42  H   UNL     1      -0.401   1.356  25.390  0.00  0.00    +0.150 HD
BRANCH  11  20
ATOM     20  C   UNL     1       0.164   3.363  25.756  0.00  0.00    +0.186 C 
BRANCH  20  24
ATOM      7  O   UNL     1      -0.490   2.517  27.923  0.00  0.00    -0.249 OA
ATOM     24  C   UNL     1       0.402   2.952  27.203  0.00  0.00    +0.328 C 
BRANCH  24   6
ATOM      6  O   UNL     1       1.696   3.145  27.585  0.00  0.00    -0.467 OA
ATOM     39  C   UNL     1       2.017   2.739  28.919  0.00  0.00    +0.280 C 
ENDBRANCH  24   6
ENDBRANCH  20  24
BRANCH  20  21
ATOM     21  C   UNL     1      -0.775   4.573  25.647  0.00  0.00    +0.069 C 
BRANCH  21  25
ATOM     25  C   UNL     1      -2.247   4.228  25.591  0.00  0.00    -0.045 A 
ATOM     30  C   UNL     1      -2.936   3.918  26.762  0.00  0.00    +0.007 A 
ATOM     31  C   UNL     1      -2.913   4.220  24.366  0.00  0.00    +0.007 A 
ATOM     34  C   UNL     1      -4.293   3.600  26.709  0.00  0.00    +0.046 A 
ATOM     35  C   UNL     1      -4.271   3.902  24.313  0.00  0.00    +0.046 A 
ATOM     36  C   UNL     1      -4.960   3.592  25.485  0.00  0.00    +0.120 A 
BRANCH  36   8
ATOM      8  O   UNL     1      -6.285   3.282  25.433  0.00  0.00    -0.495 OA
ATOM     41  C   UNL     1      -6.623   1.919  25.182  0.00  0.00    +0.277 C 
ENDBRANCH  36   8
ENDBRANCH  21  25
ENDBRANCH  20  21
ENDBRANCH  11  20
ENDBRANCH  13  17
BRANCH   9   1
ATOM      1  S   UNL     1      -3.174   0.320  24.535  0.00  0.00    +0.062 S 
ATOM      2  O   UNL     1      -3.885   1.004  23.475  0.00  0.00    -0.153 OA
ATOM      3  O   UNL     1      -3.330   0.720  25.917  0.00  0.00    -0.153 OA
BRANCH   1  19
ATOM     19  C   UNL     1      -3.562  -1.400  24.421  0.00  0.00    +0.106 A 
ATOM     22  C   UNL     1      -4.340  -1.871  23.363  0.00  0.00    +0.028 A 
ATOM     23  C   UNL     1      -3.089  -2.287  25.388  0.00  0.00    +0.028 A 
ATOM     26  C   UNL     1      -4.646  -3.229  23.273  0.00  0.00    +0.002 A 
ATOM     27  C   UNL     1      -3.394  -3.645  25.298  0.00  0.00    +0.002 A 
ATOM     29  C   UNL     1      -4.173  -4.116  24.241  0.00  0.00    +0.000 A 
ENDBRANCH   1  19
ENDBRANCH   9   1
TORSDOF 10
ENDMDL
MODEL 4
REMARK VINA RESULT:      11.0      1.504      3.702
REMARK  Name = 7164894
REMARK  12 active torsions:
REMARK  status: ('A' for Active; 'I' for Inactive)
REMARK    1  A    between atoms: S_1  and  N_9
REMARK    2  A    between atoms: S_1  and  C_19
REMARK    3  A    between atoms: O_6  and  C_24
REMARK    4  A    between atoms: O_6  and  C_39
REMARK    5  A    between atoms: O_8  and  C_36
REMARK    6  A    between atoms: O_8  and  C_41
REMARK    7  A    between atoms: N_11  and  C_20
REMARK    8  A    between atoms: N_12  and  C_28
REMARK    9  A    between atoms: C_13  and  C_17
REMARK   10  A    between atoms: C_20  and  C_21
REMARK   11  A    between atoms: C_20  and  C_24
REMARK   12  A    between atoms: C_21  and  C_25
REMARK                            x       y       z     vdW  Elec       q    Type
REMARK                         _______ _______ _______ _____ _____    ______ ____
ROOT
ATOM      5  O   UNL     1       2.157   0.567  22.519  0.00  0.00    -0.252 OA
ATOM      9  N   UNL     1      -1.632  -1.289  25.174  0.00  0.00    -0.162 NA
ATOM     10  N   UNL     1       0.830  -0.870  23.756  0.00  0.00    -0.282 N 
ATOM     12  N   UNL     1       3.179  -1.020  23.883  0.00  0.00    -0.269 N 
ATOM     13  C   UNL     1      -1.495  -0.120  24.262  0.00  0.00    +0.183 C 
ATOM     14  C   UNL     1      -0.407  -0.305  23.207  0.00  0.00    +0.139 C 
ATOM     15  C   UNL     1      -0.772  -2.449  24.828  0.00  0.00    +0.129 C 
ATOM     16  C   UNL     1       0.671  -1.979  24.705  0.00  0.00    +0.126 C 
ATOM     18  C   UNL     1       2.079  -0.368  23.319  0.00  0.00    +0.307 C 
ATOM     43  H   UNL     1       3.009  -1.763  24.551  0.00  0.00    +0.156 HD
ENDROOT
BRANCH  12  28
ATOM     28  C   UNL     1       4.553  -0.760  23.655  0.00  0.00    +0.035 A 
ATOM     32  C   UNL     1       5.066   0.520  23.868  0.00  0.00    +0.023 A 
ATOM     33  C   UNL     1       5.393  -1.783  23.215  0.00  0.00    +0.023 A 
ATOM     37  C   UNL     1       6.419   0.776  23.644  0.00  0.00    +0.002 A 
ATOM     38  C   UNL     1       6.746  -1.527  22.990  0.00  0.00    +0.002 A 
ATOM     40  C   UNL     1       7.258  -0.247  23.205  0.00  0.00    +0.000 A 
ENDBRANCH  12  28
BRANCH  13  17
ATOM      4  O   UNL     1      -1.921   1.340  26.097  0.00  0.00    -0.274 OA
ATOM     11  N   UNL     1      -0.001   1.661  24.822  0.00  0.00    -0.301 N 
ATOM     17  C   UNL     1      -1.180   1.025  25.171  0.00  0.00    +0.234 C 
ATOM     42  H   UNL     1       0.547   1.302  24.046  0.00  0.00    +0.150 HD
BRANCH  11  20
ATOM     20  C   UNL     1       0.515   2.812  25.529  0.00  0.00    +0.186 C 
BRANCH  20  24
ATOM      7  O   UNL     1      -0.586   2.269  27.610  0.00  0.00    -0.249 OA
ATOM     24  C   UNL     1       0.432   2.647  27.041  0.00  0.00    +0.328 C 
BRANCH  24   6
ATOM      6  O   UNL     1       1.599   2.983  27.658  0.00  0.00    -0.467 OA
ATOM     39  C   UNL     1       1.750   2.510  29.000  0.00  0.00    +0.280 C 
ENDBRANCH  24   6
ENDBRANCH  20  24
BRANCH  20  21
ATOM     21  C   UNL     1      -0.158   4.107  25.053  0.00  0.00    +0.069 C 
BRANCH  21  25
ATOM     25  C   UNL     1      -1.653   4.163  25.280  0.00  0.00    -0.045 A 
ATOM     30  C   UNL     1      -2.161   4.206  26.577  0.00  0.00    +0.007 A 
ATOM     31  C   UNL     1      -2.522   4.171  24.189  0.00  0.00    +0.007 A 
ATOM     34  C   UNL     1      -3.539   4.257  26.785  0.00  0.00    +0.046 A 
ATOM     35  C   UNL     1      -3.901   4.222  24.396  0.00  0.00    +0.046 A 
ATOM     36  C   UNL     1      -4.409   4.265  25.694  0.00  0.00    +0.120 A 
BRANCH  36   8
ATOM      8  O   UNL     1      -5.754   4.316  25.897  0.00  0.00    -0.495 OA
ATOM     41  C   UNL     1      -6.462   5.393  25.285  0.00  0.00    +0.277 C 
ENDBRANCH  36   8
ENDBRANCH  21  25
ENDBRANCH  20  21
ENDBRANCH  11  20
ENDBRANCH  13  17
BRANCH   9   1
ATOM      1  S   UNL     1      -3.209  -1.657  25.723  0.00  0.00    +0.062 S 
ATOM      2  O   UNL     1      -3.253  -1.524  27.164  0.00  0.00    -0.153 OA
ATOM      3  O   UNL     1      -3.665  -2.867  25.073  0.00  0.00    -0.153 OA
BRANCH   1  19
ATOM     19  C   UNL     1      -4.102  -0.300  25.029  0.00  0.00    +0.106 A 
ATOM     22  C   UNL     1      -5.114   0.318  25.764  0.00  0.00    +0.028 A 
ATOM     23  C   UNL     1      -3.793   0.156  23.747  0.00  0.00    +0.028 A 
ATOM     26  C   UNL     1      -5.818   1.391  25.217  0.00  0.00    +0.002 A 
ATOM     27  C   UNL     1      -4.497   1.228  23.200  0.00  0.00    +0.002 A 
ATOM     29  C   UNL     1      -5.509   1.845  23.935  0.00  0.00    +0.000 A 
ENDBRANCH   1  19
ENDBRANCH   9   1
TORSDOF 10
ENDMDL
MODEL 5
REMARK VINA RESULT:      11.3      2.155      4.434
REMARK  Name = 7164894
REMARK  12 active torsions:
REMARK  status: ('A' for Active; 'I' for Inactive)
REMARK    1  A    between atoms: S_1  and  N_9
REMARK    2  A    between atoms: S_1  and  C_19
REMARK    3  A    between atoms: O_6  and  C_24
REMARK    4  A    between atoms: O_6  and  C_39
REMARK    5  A    between atoms: O_8  and  C_36
REMARK    6  A    between atoms: O_8  and  C_41
REMARK    7  A    between atoms: N_11  and  C_20
REMARK    8  A    between atoms: N_12  and  C_28
REMARK    9  A    between atoms: C_13  and  C_17
REMARK   10  A    between atoms: C_20  and  C_21
REMARK   11  A    between atoms: C_20  and  C_24
REMARK   12  A    between atoms: C_21  and  C_25
REMARK                            x       y       z     vdW  Elec       q    Type
REMARK                         _______ _______ _______ _____ _____    ______ ____
ROOT
ATOM      5  O   UNL     1       2.747  -0.074  21.869  0.00  0.00    -0.252 OA
ATOM      9  N   UNL     1      -1.094  -0.381  25.032  0.00  0.00    -0.162 NA
ATOM     10  N   UNL     1       1.405  -0.690  23.651  0.00  0.00    -0.282 N 
ATOM     12  N   UNL     1       3.751  -0.677  23.882  0.00  0.00    -0.269 N 
ATOM     13  C   UNL     1      -0.948   0.140  23.645  0.00  0.00    +0.183 C 
ATOM     14  C   UNL     1       0.177  -0.536  22.864  0.00  0.00    +0.139 C 
ATOM     15  C   UNL     1      -0.204  -1.522  25.363  0.00  0.00    +0.129 C 
ATOM     16  C   UNL     1       1.235  -1.141  25.038  0.00  0.00    +0.126 C 
ATOM     18  C   UNL     1       2.659  -0.453  23.039  0.00  0.00    +0.307 C 
ATOM     43  H   UNL     1       3.572  -0.964  24.838  0.00  0.00    +0.156 HD
ENDROOT
BRANCH  12  28
ATOM     28  C   UNL     1       5.127  -0.531  23.577  0.00  0.00    +0.035 A 
ATOM     32  C   UNL     1       5.818   0.607  23.992  0.00  0.00    +0.023 A 
ATOM     33  C   UNL     1       5.791  -1.526  22.859  0.00  0.00    +0.023 A 
ATOM     37  C   UNL     1       7.172   0.750  23.692  0.00  0.00    +0.002 A 
ATOM     38  C   UNL     1       7.146  -1.384  22.559  0.00  0.00    +0.002 A 
ATOM     40  C   UNL     1       7.836  -0.245  22.975  0.00  0.00    +0.000 A 
ENDBRANCH  12  28
BRANCH  13  17
ATOM      4  O   UNL     1       0.447   2.031  24.043  0.00  0.00    -0.274 OA
ATOM     11  N   UNL     1      -1.837   2.358  23.730  0.00  0.00    -0.301 N 
ATOM     17  C   UNL     1      -0.682   1.601  23.823  0.00  0.00    +0.234 C 
ATOM     42  H   UNL     1      -2.718   1.899  23.523  0.00  0.00    +0.150 HD
BRANCH  11  20
ATOM     20  C   UNL     1      -1.853   3.796  23.887  0.00  0.00    +0.186 C 
BRANCH  20  24
ATOM      7  O   UNL     1      -0.520   5.269  25.263  0.00  0.00    -0.249 OA
ATOM     24  C   UNL     1      -1.188   4.244  25.183  0.00  0.00    +0.328 C 
BRANCH  24   6
ATOM      6  O   UNL     1      -1.413   3.370  26.203  0.00  0.00    -0.467 OA
ATOM     39  C   UNL     1      -0.245   2.791  26.794  0.00  0.00    +0.280 C 
ENDBRANCH  24   6
ENDBRANCH  20  24
BRANCH  20  21
ATOM     21  C   UNL     1      -3.275   4.357  23.746  0.00  0.00    +0.069 C 
BRANCH  21  25
ATOM     25  C   UNL     1      -4.333   3.596  24.515  0.00  0.00    -0.045 A 
ATOM     30  C   UNL     1      -5.020   2.547  23.906  0.00  0.00    +0.007 A 
ATOM     31  C   UNL     1      -4.621   3.947  25.834  0.00  0.00    +0.007 A 
ATOM     34  C   UNL     1      -5.996   1.847  24.616  0.00  0.00    +0.046 A 
ATOM     35  C   UNL     1      -5.597   3.246  26.544  0.00  0.00    +0.046 A 
ATOM     36  C   UNL     1      -6.284   2.197  25.935  0.00  0.00    +0.120 A 
BRANCH  36   8
ATOM      8  O   UNL     1      -7.235   1.513  26.627  0.00  0.00    -0.495 OA
ATOM     41  C   UNL     1      -6.883   1.050  27.930  0.00  0.00    +0.277 C 
ENDBRANCH  36   8
ENDBRANCH  21  25
ENDBRANCH  20  21
ENDBRANCH  11  20
ENDBRANCH  13  17
BRANCH   9   1
ATOM      1  S   UNL     1      -2.682  -0.456  25.663  0.00  0.00    +0.062 S 
ATOM      2  O   UNL     1      -3.375   0.776  25.350  0.00  0.00    -0.153 OA
ATOM      3  O   UNL     1      -2.627  -0.956  27.020  0.00  0.00    -0.153 OA
BRANCH   1  19
ATOM     19  C   UNL     1      -3.359  -1.729  24.643  0.00  0.00    +0.106 A 
ATOM     22  C   UNL     1      -2.756  -2.987  24.604  0.00  0.00    +0.028 A 
ATOM     23  C   UNL     1      -4.498  -1.478  23.877  0.00  0.00    +0.028 A 
ATOM     26  C   UNL     1      -3.292  -3.993  23.800  0.00  0.00    +0.002 A 
ATOM     27  C   UNL     1      -5.034  -2.484  23.073  0.00  0.00    +0.002 A 
ATOM     29  C   UNL     1      -4.430  -3.741  23.034  0.00  0.00    +0.000 A 
ENDBRANCH   1  19
ENDBRANCH   9   1
TORSDOF 10
ENDMDL
