MODEL 1
REMARK VINA RESULT:      -6.9      0.000      0.000
REMARK  Name = 71693817
REMARK  10 active torsions:
REMARK  status: ('A' for Active; 'I' for Inactive)
REMARK    1  A    between atoms: O_1  and  C_7
REMARK    2  A    between atoms: O_2  and  C_9
REMARK    3  A    between atoms: O_3  and  C_12
REMARK    4  A    between atoms: N_4  and  C_5
REMARK    5  A    between atoms: N_4  and  C_11
REMARK    6  A    between atoms: C_6  and  C_10
REMARK    7  A    between atoms: C_11  and  C_12
REMARK    8  A    between atoms: C_12  and  C_16
REMARK    9  A    between atoms: C_12  and  C_17
REMARK   10  A    between atoms: C_13  and  C_18
REMARK                            x       y       z     vdW  Elec       q    Type
REMARK                         _______ _______ _______ _____ _____    ______ ____
ROOT
ATOM      5  C   UNL     1      -1.884  -0.624  24.650  0.00  0.00    +0.092 C 
ATOM      6  C   UNL     1      -3.087   0.258  25.054  0.00  0.00    +0.041 C 
ATOM      7  C   UNL     1      -2.265  -2.002  25.192  0.00  0.00    +0.160 C 
ATOM      8  C   UNL     1      -4.292  -0.713  25.172  0.00  0.00    +0.043 C 
ATOM      9  C   UNL     1      -3.746  -2.103  24.838  0.00  0.00    +0.145 C 
ENDROOT
BRANCH   6  10
ATOM     10  C   UNL     1      -3.318   1.419  24.112  0.00  0.00    -0.040 A 
ATOM     13  C   UNL     1      -4.148   2.481  24.471  0.00  0.00    -0.047 A 
ATOM     14  C   UNL     1      -2.687   1.417  22.867  0.00  0.00    +0.004 A 
ATOM     15  C   UNL     1      -4.346   3.542  23.587  0.00  0.00    +0.003 A 
ATOM     18  C   UNL     1      -4.833   2.506  25.798  0.00  0.00    +0.044 C 
ATOM     19  C   UNL     1      -2.887   2.478  21.982  0.00  0.00    +0.000 A 
ATOM     20  C   UNL     1      -3.716   3.540  22.342  0.00  0.00    +0.000 A 
ENDBRANCH   6  10
BRANCH   7   1
ATOM      1  O   UNL     1      -1.502  -3.030  24.590  0.00  0.00    -0.388 OA
ATOM     22  H   UNL     1      -0.664  -2.635  24.294  0.00  0.00    +0.210 HD
ENDBRANCH   7   1
BRANCH   9   2
ATOM      2  O   UNL     1      -3.901  -2.353  23.444  0.00  0.00    -0.389 OA
ATOM     23  H   UNL     1      -3.208  -2.983  23.182  0.00  0.00    +0.210 HD
ENDBRANCH   9   2
BRANCH   5   4
ATOM      4  N   UNL     1      -0.633  -0.143  25.226  0.00  0.00    -0.308 NA
ATOM     21  H   UNL     1      -0.237  -0.868  25.823  0.00  0.00    +0.122 HD
BRANCH   4  11
ATOM     11  C   UNL     1      -0.856   1.054  26.024  0.00  0.00    +0.115 C 
BRANCH  11  12
ATOM     12  C   UNL     1      -0.028   2.272  25.573  0.00  0.00    +0.073 C 
ATOM     16  C   UNL     1      -0.866   3.553  25.518  0.00  0.00    +0.042 C 
ATOM     17  C   UNL     1       0.664   2.024  24.230  0.00  0.00    +0.042 C 
BRANCH  12   3
ATOM      3  O   UNL     1       0.990   2.459  26.564  0.00  0.00    -0.388 OA
ATOM     24  H   UNL     1       1.030   3.406  26.779  0.00  0.00    +0.210 HD
ENDBRANCH  12   3
ENDBRANCH  11  12
ENDBRANCH   4  11
ENDBRANCH   5   4
TORSDOF 7
ENDMDL
MODEL 2
REMARK VINA RESULT:      -6.9      1.812      4.279
REMARK  Name = 71693817
REMARK  10 active torsions:
REMARK  status: ('A' for Active; 'I' for Inactive)
REMARK    1  A    between atoms: O_1  and  C_7
REMARK    2  A    between atoms: O_2  and  C_9
REMARK    3  A    between atoms: O_3  and  C_12
REMARK    4  A    between atoms: N_4  and  C_5
REMARK    5  A    between atoms: N_4  and  C_11
REMARK    6  A    between atoms: C_6  and  C_10
REMARK    7  A    between atoms: C_11  and  C_12
REMARK    8  A    between atoms: C_12  and  C_16
REMARK    9  A    between atoms: C_12  and  C_17
REMARK   10  A    between atoms: C_13  and  C_18
REMARK                            x       y       z     vdW  Elec       q    Type
REMARK                         _______ _______ _______ _____ _____    ______ ____
ROOT
ATOM      5  C   UNL     1      -1.276   1.736  25.781  0.00  0.00    +0.092 C 
ATOM      6  C   UNL     1      -2.195   1.815  24.540  0.00  0.00    +0.041 C 
ATOM      7  C   UNL     1       0.080   2.190  25.239  0.00  0.00    +0.160 C 
ATOM      8  C   UNL     1      -1.548   2.880  23.613  0.00  0.00    +0.043 C 
ATOM      9  C   UNL     1      -0.295   3.367  24.343  0.00  0.00    +0.145 C 
ENDROOT
BRANCH   6  10
ATOM     10  C   UNL     1      -3.641   2.093  24.887  0.00  0.00    -0.040 A 
ATOM     13  C   UNL     1      -4.626   1.127  24.684  0.00  0.00    -0.047 A 
ATOM     14  C   UNL     1      -3.984   3.338  25.418  0.00  0.00    +0.004 A 
ATOM     15  C   UNL     1      -5.953   1.404  25.011  0.00  0.00    +0.003 A 
ATOM     18  C   UNL     1      -4.284  -0.212  24.117  0.00  0.00    +0.044 C 
ATOM     19  C   UNL     1      -5.312   3.615  25.745  0.00  0.00    +0.000 A 
ATOM     20  C   UNL     1      -6.296   2.648  25.542  0.00  0.00    +0.000 A 
ENDBRANCH   6  10
BRANCH   7   1
ATOM      1  O   UNL     1       0.958   2.572  26.281  0.00  0.00    -0.388 OA
ATOM     22  H   UNL     1       0.535   3.301  26.765  0.00  0.00    +0.210 HD
ENDBRANCH   7   1
BRANCH   9   2
ATOM      2  O   UNL     1      -0.618   4.505  25.138  0.00  0.00    -0.389 OA
ATOM     23  H   UNL     1      -0.990   5.179  24.543  0.00  0.00    +0.210 HD
ENDBRANCH   9   2
BRANCH   5   4
ATOM      4  N   UNL     1      -1.214   0.387  26.331  0.00  0.00    -0.308 NA
ATOM     21  H   UNL     1      -0.239   0.133  26.492  0.00  0.00    +0.122 HD
BRANCH   4  11
ATOM     11  C   UNL     1      -1.805  -0.577  25.414  0.00  0.00    +0.115 C 
BRANCH  11  12
ATOM     12  C   UNL     1      -0.783  -1.515  24.745  0.00  0.00    +0.073 C 
ATOM     16  C   UNL     1       0.003  -0.816  23.631  0.00  0.00    +0.042 C 
ATOM     17  C   UNL     1      -1.442  -2.792  24.218  0.00  0.00    +0.042 C 
BRANCH  12   3
ATOM      3  O   UNL     1       0.149  -1.892  25.766  0.00  0.00    -0.388 OA
ATOM     24  H   UNL     1       0.967  -2.190  25.332  0.00  0.00    +0.210 HD
ENDBRANCH  12   3
ENDBRANCH  11  12
ENDBRANCH   4  11
ENDBRANCH   5   4
TORSDOF 7
ENDMDL
MODEL 3
REMARK VINA RESULT:      -6.7      1.852      2.699
REMARK  Name = 71693817
REMARK  10 active torsions:
REMARK  status: ('A' for Active; 'I' for Inactive)
REMARK    1  A    between atoms: O_1  and  C_7
REMARK    2  A    between atoms: O_2  and  C_9
REMARK    3  A    between atoms: O_3  and  C_12
REMARK    4  A    between atoms: N_4  and  C_5
REMARK    5  A    between atoms: N_4  and  C_11
REMARK    6  A    between atoms: C_6  and  C_10
REMARK    7  A    between atoms: C_11  and  C_12
REMARK    8  A    between atoms: C_12  and  C_16
REMARK    9  A    between atoms: C_12  and  C_17
REMARK   10  A    between atoms: C_13  and  C_18
REMARK                            x       y       z     vdW  Elec       q    Type
REMARK                         _______ _______ _______ _____ _____    ______ ____
ROOT
ATOM      5  C   UNL     1      -1.315  -0.699  24.462  0.00  0.00    +0.092 C 
ATOM      6  C   UNL     1      -2.103   0.079  25.541  0.00  0.00    +0.041 C 
ATOM      7  C   UNL     1      -1.670  -2.157  24.757  0.00  0.00    +0.160 C 
ATOM      8  C   UNL     1      -3.305  -0.830  25.913  0.00  0.00    +0.043 C 
ATOM      9  C   UNL     1      -3.166  -2.085  25.048  0.00  0.00    +0.145 C 
ENDROOT
BRANCH   6  10
ATOM     10  C   UNL     1      -2.495   1.474  25.102  0.00  0.00    -0.040 A 
ATOM     13  C   UNL     1      -1.732   2.582  25.469  0.00  0.00    -0.047 A 
ATOM     14  C   UNL     1      -3.638   1.642  24.320  0.00  0.00    +0.004 A 
ATOM     15  C   UNL     1      -2.111   3.859  25.053  0.00  0.00    +0.003 A 
ATOM     18  C   UNL     1      -0.504   2.427  26.306  0.00  0.00    +0.044 C 
ATOM     19  C   UNL     1      -4.017   2.919  23.904  0.00  0.00    +0.000 A 
ATOM     20  C   UNL     1      -3.254   4.026  24.271  0.00  0.00    +0.000 A 
ENDBRANCH   6  10
BRANCH   7   1
ATOM      1  O   UNL     1      -1.381  -2.997  23.656  0.00  0.00    -0.388 OA
ATOM     22  H   UNL     1      -2.101  -3.648  23.590  0.00  0.00    +0.210 HD
ENDBRANCH   7   1
BRANCH   9   2
ATOM      2  O   UNL     1      -3.894  -1.911  23.836  0.00  0.00    -0.389 OA
ATOM     23  H   UNL     1      -3.336  -2.244  23.111  0.00  0.00    +0.210 HD
ENDBRANCH   9   2
BRANCH   5   4
ATOM      4  N   UNL     1       0.121  -0.462  24.555  0.00  0.00    -0.308 NA
ATOM     21  H   UNL     1       0.336  -0.045  25.461  0.00  0.00    +0.122 HD
BRANCH   4  11
ATOM     11  C   UNL     1       0.568   0.441  23.504  0.00  0.00    +0.115 C 
BRANCH  11  12
ATOM     12  C   UNL     1       1.865  -0.003  22.804  0.00  0.00    +0.073 C 
ATOM     16  C   UNL     1       2.942   1.086  22.834  0.00  0.00    +0.042 C 
ATOM     17  C   UNL     1       1.607  -0.465  21.367  0.00  0.00    +0.042 C 
BRANCH  12   3
ATOM      3  O   UNL     1       2.360  -1.126  23.543  0.00  0.00    -0.388 OA
ATOM     24  H   UNL     1       3.274  -0.931  23.811  0.00  0.00    +0.210 HD
ENDBRANCH  12   3
ENDBRANCH  11  12
ENDBRANCH   4  11
ENDBRANCH   5   4
TORSDOF 7
ENDMDL
MODEL 4
REMARK VINA RESULT:      -6.6      2.424      5.165
REMARK  Name = 71693817
REMARK  10 active torsions:
REMARK  status: ('A' for Active; 'I' for Inactive)
REMARK    1  A    between atoms: O_1  and  C_7
REMARK    2  A    between atoms: O_2  and  C_9
REMARK    3  A    between atoms: O_3  and  C_12
REMARK    4  A    between atoms: N_4  and  C_5
REMARK    5  A    between atoms: N_4  and  C_11
REMARK    6  A    between atoms: C_6  and  C_10
REMARK    7  A    between atoms: C_11  and  C_12
REMARK    8  A    between atoms: C_12  and  C_16
REMARK    9  A    between atoms: C_12  and  C_17
REMARK   10  A    between atoms: C_13  and  C_18
REMARK                            x       y       z     vdW  Elec       q    Type
REMARK                         _______ _______ _______ _____ _____    ______ ____
ROOT
ATOM      5  C   UNL     1      -2.120   2.066  24.317  0.00  0.00    +0.092 C 
ATOM      6  C   UNL     1      -2.138   0.960  25.397  0.00  0.00    +0.041 C 
ATOM      7  C   UNL     1      -0.970   2.969  24.764  0.00  0.00    +0.160 C 
ATOM      8  C   UNL     1      -0.691   0.902  25.955  0.00  0.00    +0.043 C 
ATOM      9  C   UNL     1       0.099   1.966  25.189  0.00  0.00    +0.145 C 
ENDROOT
BRANCH   6  10
ATOM     10  C   UNL     1      -2.656  -0.366  24.883  0.00  0.00    -0.040 A 
ATOM     13  C   UNL     1      -1.868  -1.515  24.939  0.00  0.00    -0.047 A 
ATOM     14  C   UNL     1      -3.943  -0.429  24.347  0.00  0.00    +0.004 A 
ATOM     15  C   UNL     1      -2.365  -2.727  24.460  0.00  0.00    +0.003 A 
ATOM     18  C   UNL     1      -0.487  -1.472  25.508  0.00  0.00    +0.044 C 
ATOM     19  C   UNL     1      -4.441  -1.641  23.867  0.00  0.00    +0.000 A 
ATOM     20  C   UNL     1      -3.652  -2.789  23.924  0.00  0.00    +0.000 A 
ENDBRANCH   6  10
BRANCH   7   1
ATOM      1  O   UNL     1      -0.525   3.807  23.714  0.00  0.00    -0.388 OA
ATOM     22  H   UNL     1      -1.143   4.556  23.658  0.00  0.00    +0.210 HD
ENDBRANCH   7   1
BRANCH   9   2
ATOM      2  O   UNL     1       0.702   1.375  24.041  0.00  0.00    -0.389 OA
ATOM     23  H   UNL     1       0.910   0.452  24.264  0.00  0.00    +0.210 HD
ENDBRANCH   9   2
BRANCH   5   4
ATOM      4  N   UNL     1      -3.384   2.791  24.253  0.00  0.00    -0.308 NA
ATOM     21  H   UNL     1      -3.231   3.694  23.806  0.00  0.00    +0.122 HD
BRANCH   4  11
ATOM     11  C   UNL     1      -3.923   3.012  25.587  0.00  0.00    +0.115 C 
BRANCH  11  12
ATOM     12  C   UNL     1      -5.461   3.062  25.641  0.00  0.00    +0.073 C 
ATOM     16  C   UNL     1      -6.107   2.058  24.681  0.00  0.00    +0.042 C 
ATOM     17  C   UNL     1      -5.995   4.473  25.383  0.00  0.00    +0.042 C 
BRANCH  12   3
ATOM      3  O   UNL     1      -5.832   2.690  26.975  0.00  0.00    -0.388 OA
ATOM     24  H   UNL     1      -5.471   3.356  27.585  0.00  0.00    +0.210 HD
ENDBRANCH  12   3
ENDBRANCH  11  12
ENDBRANCH   4  11
ENDBRANCH   5   4
TORSDOF 7
ENDMDL
MODEL 5
REMARK VINA RESULT:      -6.6      2.437      4.880
REMARK  Name = 71693817
REMARK  10 active torsions:
REMARK  status: ('A' for Active; 'I' for Inactive)
REMARK    1  A    between atoms: O_1  and  C_7
REMARK    2  A    between atoms: O_2  and  C_9
REMARK    3  A    between atoms: O_3  and  C_12
REMARK    4  A    between atoms: N_4  and  C_5
REMARK    5  A    between atoms: N_4  and  C_11
REMARK    6  A    between atoms: C_6  and  C_10
REMARK    7  A    between atoms: C_11  and  C_12
REMARK    8  A    between atoms: C_12  and  C_16
REMARK    9  A    between atoms: C_12  and  C_17
REMARK   10  A    between atoms: C_13  and  C_18
REMARK                            x       y       z     vdW  Elec       q    Type
REMARK                         _______ _______ _______ _____ _____    ______ ____
ROOT
ATOM      5  C   UNL     1      -1.672   1.899  23.874  0.00  0.00    +0.092 C 
ATOM      6  C   UNL     1      -1.835   1.046  25.153  0.00  0.00    +0.041 C 
ATOM      7  C   UNL     1      -0.741   3.025  24.324  0.00  0.00    +0.160 C 
ATOM      8  C   UNL     1      -0.553   1.306  25.990  0.00  0.00    +0.043 C 
ATOM      9  C   UNL     1       0.290   2.289  25.175  0.00  0.00    +0.145 C 
ENDROOT
BRANCH   6  10
ATOM     10  C   UNL     1      -2.099  -0.416  24.865  0.00  0.00    -0.040 A 
ATOM     13  C   UNL     1      -3.382  -0.950  24.986  0.00  0.00    -0.047 A 
ATOM     14  C   UNL     1      -1.038  -1.232  24.473  0.00  0.00    +0.004 A 
ATOM     15  C   UNL     1      -3.604  -2.300  24.714  0.00  0.00    +0.003 A 
ATOM     18  C   UNL     1      -4.534  -0.096  25.403  0.00  0.00    +0.044 C 
ATOM     19  C   UNL     1      -1.260  -2.583  24.202  0.00  0.00    +0.000 A 
ATOM     20  C   UNL     1      -2.542  -3.116  24.322  0.00  0.00    +0.000 A 
ENDBRANCH   6  10
BRANCH   7   1
ATOM      1  O   UNL     1      -0.147   3.684  23.221  0.00  0.00    -0.388 OA
ATOM     22  H   UNL     1       0.072   3.006  22.560  0.00  0.00    +0.210 HD
ENDBRANCH   7   1
BRANCH   9   2
ATOM      2  O   UNL     1       1.189   1.566  24.340  0.00  0.00    -0.389 OA
ATOM     23  H   UNL     1       1.999   2.098  24.255  0.00  0.00    +0.210 HD
ENDBRANCH   9   2
BRANCH   5   4
ATOM      4  N   UNL     1      -2.948   2.413  23.391  0.00  0.00    -0.308 NA
ATOM     21  H   UNL     1      -2.822   3.367  23.056  0.00  0.00    +0.122 HD
BRANCH   4  11
ATOM     11  C   UNL     1      -3.942   2.416  24.455  0.00  0.00    +0.115 C 
BRANCH  11  12
ATOM     12  C   UNL     1      -4.207   3.807  25.062  0.00  0.00    +0.073 C 
ATOM     16  C   UNL     1      -3.253   4.125  26.217  0.00  0.00    +0.042 C 
ATOM     17  C   UNL     1      -5.663   3.966  25.506  0.00  0.00    +0.042 C 
BRANCH  12   3
ATOM      3  O   UNL     1      -3.960   4.757  24.018  0.00  0.00    -0.388 OA
ATOM     24  H   UNL     1      -4.746   5.324  23.935  0.00  0.00    +0.210 HD
ENDBRANCH  12   3
ENDBRANCH  11  12
ENDBRANCH   4  11
ENDBRANCH   5   4
TORSDOF 7
ENDMDL
MODEL 6
REMARK VINA RESULT:      -6.5      1.560      4.384
REMARK  Name = 71693817
REMARK  10 active torsions:
REMARK  status: ('A' for Active; 'I' for Inactive)
REMARK    1  A    between atoms: O_1  and  C_7
REMARK    2  A    between atoms: O_2  and  C_9
REMARK    3  A    between atoms: O_3  and  C_12
REMARK    4  A    between atoms: N_4  and  C_5
REMARK    5  A    between atoms: N_4  and  C_11
REMARK    6  A    between atoms: C_6  and  C_10
REMARK    7  A    between atoms: C_11  and  C_12
REMARK    8  A    between atoms: C_12  and  C_16
REMARK    9  A    between atoms: C_12  and  C_17
REMARK   10  A    between atoms: C_13  and  C_18
REMARK                            x       y       z     vdW  Elec       q    Type
REMARK                         _______ _______ _______ _____ _____    ______ ____
ROOT
ATOM      5  C   UNL     1      -1.367   0.578  24.158  0.00  0.00    +0.092 C 
ATOM      6  C   UNL     1      -1.875   1.974  23.730  0.00  0.00    +0.041 C 
ATOM      7  C   UNL     1       0.137   0.661  23.896  0.00  0.00    +0.160 C 
ATOM      8  C   UNL     1      -0.660   2.927  23.897  0.00  0.00    +0.043 C 
ATOM      9  C   UNL     1       0.490   2.055  24.406  0.00  0.00    +0.145 C 
ENDROOT
BRANCH   6  10
ATOM     10  C   UNL     1      -3.113   2.413  24.481  0.00  0.00    -0.040 A 
ATOM     13  C   UNL     1      -3.109   3.573  25.255  0.00  0.00    -0.047 A 
ATOM     14  C   UNL     1      -4.271   1.639  24.390  0.00  0.00    +0.004 A 
ATOM     15  C   UNL     1      -4.262   3.960  25.938  0.00  0.00    +0.003 A 
ATOM     18  C   UNL     1      -1.882   4.418  25.366  0.00  0.00    +0.044 C 
ATOM     19  C   UNL     1      -5.424   2.026  25.075  0.00  0.00    +0.000 A 
ATOM     20  C   UNL     1      -5.419   3.186  25.848  0.00  0.00    +0.000 A 
ENDBRANCH   6  10
BRANCH   7   1
ATOM      1  O   UNL     1       0.844  -0.353  24.586  0.00  0.00    -0.388 OA
ATOM     22  H   UNL     1       1.793  -0.178  24.468  0.00  0.00    +0.210 HD
ENDBRANCH   7   1
BRANCH   9   2
ATOM      2  O   UNL     1       0.503   2.068  25.831  0.00  0.00    -0.389 OA
ATOM     23  H   UNL     1       0.305   1.164  26.131  0.00  0.00    +0.210 HD
ENDBRANCH   9   2
BRANCH   5   4
ATOM      4  N   UNL     1      -1.992  -0.492  23.389  0.00  0.00    -0.308 NA
ATOM     21  H   UNL     1      -2.952  -0.231  23.168  0.00  0.00    +0.122 HD
BRANCH   4  11
ATOM     11  C   UNL     1      -2.006  -1.735  24.147  0.00  0.00    +0.115 C 
BRANCH  11  12
ATOM     12  C   UNL     1      -3.367  -2.063  24.789  0.00  0.00    +0.073 C 
ATOM     16  C   UNL     1      -4.537  -1.781  23.841  0.00  0.00    +0.042 C 
ATOM     17  C   UNL     1      -3.561  -1.329  26.118  0.00  0.00    +0.042 C 
BRANCH  12   3
ATOM      3  O   UNL     1      -3.357  -3.470  25.062  0.00  0.00    -0.388 OA
ATOM     24  H   UNL     1      -2.750  -3.628  25.805  0.00  0.00    +0.210 HD
ENDBRANCH  12   3
ENDBRANCH  11  12
ENDBRANCH   4  11
ENDBRANCH   5   4
TORSDOF 7
ENDMDL
MODEL 7
REMARK VINA RESULT:      -5.9      2.633      4.386
REMARK  Name = 71693817
REMARK  10 active torsions:
REMARK  status: ('A' for Active; 'I' for Inactive)
REMARK    1  A    between atoms: O_1  and  C_7
REMARK    2  A    between atoms: O_2  and  C_9
REMARK    3  A    between atoms: O_3  and  C_12
REMARK    4  A    between atoms: N_4  and  C_5
REMARK    5  A    between atoms: N_4  and  C_11
REMARK    6  A    between atoms: C_6  and  C_10
REMARK    7  A    between atoms: C_11  and  C_12
REMARK    8  A    between atoms: C_12  and  C_16
REMARK    9  A    between atoms: C_12  and  C_17
REMARK   10  A    between atoms: C_13  and  C_18
REMARK                            x       y       z     vdW  Elec       q    Type
REMARK                         _______ _______ _______ _____ _____    ______ ____
ROOT
ATOM      5  C   UNL     1      -3.796   2.189  24.607  0.00  0.00    +0.092 C 
ATOM      6  C   UNL     1      -4.131   0.755  24.137  0.00  0.00    +0.041 C 
ATOM      7  C   UNL     1      -5.170   2.854  24.702  0.00  0.00    +0.160 C 
ATOM      8  C   UNL     1      -5.582   0.489  24.622  0.00  0.00    +0.043 C 
ATOM      9  C   UNL     1      -6.026   1.765  25.342  0.00  0.00    +0.145 C 
ENDROOT
BRANCH   6  10
ATOM     10  C   UNL     1      -3.125  -0.275  24.602  0.00  0.00    -0.040 A 
ATOM     13  C   UNL     1      -3.291  -1.627  24.303  0.00  0.00    -0.047 A 
ATOM     14  C   UNL     1      -2.018   0.145  25.342  0.00  0.00    +0.004 A 
ATOM     15  C   UNL     1      -2.350  -2.559  24.741  0.00  0.00    +0.003 A 
ATOM     18  C   UNL     1      -4.467  -2.100  23.513  0.00  0.00    +0.044 C 
ATOM     19  C   UNL     1      -1.078  -0.788  25.780  0.00  0.00    +0.000 A 
ATOM     20  C   UNL     1      -1.244  -2.139  25.480  0.00  0.00    +0.000 A 
ENDBRANCH   6  10
BRANCH   7   1
ATOM      1  O   UNL     1      -5.128   4.029  25.489  0.00  0.00    -0.388 OA
ATOM     22  H   UNL     1      -5.717   3.890  26.250  0.00  0.00    +0.210 HD
ENDBRANCH   7   1
BRANCH   9   2
ATOM      2  O   UNL     1      -5.724   1.656  26.731  0.00  0.00    -0.389 OA
ATOM     23  H   UNL     1      -5.528   0.721  26.914  0.00  0.00    +0.210 HD
ENDBRANCH   9   2
BRANCH   5   4
ATOM      4  N   UNL     1      -2.923   2.884  23.667  0.00  0.00    -0.308 NA
ATOM     21  H   UNL     1      -3.059   2.497  22.733  0.00  0.00    +0.122 HD
BRANCH   4  11
ATOM     11  C   UNL     1      -1.525   2.726  24.043  0.00  0.00    +0.115 C 
BRANCH  11  12
ATOM     12  C   UNL     1      -1.093   3.603  25.233  0.00  0.00    +0.073 C 
ATOM     16  C   UNL     1      -0.711   5.021  24.798  0.00  0.00    +0.042 C 
ATOM     17  C   UNL     1       0.045   2.960  26.030  0.00  0.00    +0.042 C 
BRANCH  12   3
ATOM      3  O   UNL     1      -2.232   3.703  26.097  0.00  0.00    -0.388 OA
ATOM     24  H   UNL     1      -3.031   3.710  25.543  0.00  0.00    +0.210 HD
ENDBRANCH  12   3
ENDBRANCH  11  12
ENDBRANCH   4  11
ENDBRANCH   5   4
TORSDOF 7
ENDMDL
MODEL 8
REMARK VINA RESULT:      -5.7      1.943      4.245
REMARK  Name = 71693817
REMARK  10 active torsions:
REMARK  status: ('A' for Active; 'I' for Inactive)
REMARK    1  A    between atoms: O_1  and  C_7
REMARK    2  A    between atoms: O_2  and  C_9
REMARK    3  A    between atoms: O_3  and  C_12
REMARK    4  A    between atoms: N_4  and  C_5
REMARK    5  A    between atoms: N_4  and  C_11
REMARK    6  A    between atoms: C_6  and  C_10
REMARK    7  A    between atoms: C_11  and  C_12
REMARK    8  A    between atoms: C_12  and  C_16
REMARK    9  A    between atoms: C_12  and  C_17
REMARK   10  A    between atoms: C_13  and  C_18
REMARK                            x       y       z     vdW  Elec       q    Type
REMARK                         _______ _______ _______ _____ _____    ______ ____
ROOT
ATOM      5  C   UNL     1      -0.621   0.275  24.876  0.00  0.00    +0.092 C 
ATOM      6  C   UNL     1      -1.357   1.218  23.897  0.00  0.00    +0.041 C 
ATOM      7  C   UNL     1       0.219  -0.603  23.948  0.00  0.00    +0.160 C 
ATOM      8  C   UNL     1      -0.453   1.295  22.637  0.00  0.00    +0.043 C 
ATOM      9  C   UNL     1       0.754   0.401  22.931  0.00  0.00    +0.145 C 
ENDROOT
BRANCH   6  10
ATOM     10  C   UNL     1      -1.689   2.565  24.503  0.00  0.00    -0.040 A 
ATOM     13  C   UNL     1      -2.972   2.844  24.972  0.00  0.00    -0.047 A 
ATOM     14  C   UNL     1      -0.688   3.534  24.588  0.00  0.00    +0.004 A 
ATOM     15  C   UNL     1      -3.256   4.091  25.528  0.00  0.00    +0.003 A 
ATOM     18  C   UNL     1      -4.059   1.822  24.892  0.00  0.00    +0.044 C 
ATOM     19  C   UNL     1      -0.973   4.782  25.144  0.00  0.00    +0.000 A 
ATOM     20  C   UNL     1      -2.256   5.061  25.613  0.00  0.00    +0.000 A 
ENDBRANCH   6  10
BRANCH   7   1
ATOM      1  O   UNL     1       1.260  -1.257  24.648  0.00  0.00    -0.388 OA
ATOM     22  H   UNL     1       0.848  -1.791  25.349  0.00  0.00    +0.210 HD
ENDBRANCH   7   1
BRANCH   9   2
ATOM      2  O   UNL     1       1.794   1.183  23.513  0.00  0.00    -0.389 OA
ATOM     23  H   UNL     1       1.808   2.039  23.051  0.00  0.00    +0.210 HD
ENDBRANCH   9   2
BRANCH   5   4
ATOM      4  N   UNL     1      -1.549  -0.517  25.676  0.00  0.00    -0.308 NA
ATOM     21  H   UNL     1      -1.112  -0.745  26.569  0.00  0.00    +0.122 HD
BRANCH   4  11
ATOM     11  C   UNL     1      -1.898  -1.754  24.993  0.00  0.00    +0.115 C 
BRANCH  11  12
ATOM     12  C   UNL     1      -3.413  -1.993  24.863  0.00  0.00    +0.073 C 
ATOM     16  C   UNL     1      -3.761  -3.484  24.795  0.00  0.00    +0.042 C 
ATOM     17  C   UNL     1      -4.007  -1.247  23.666  0.00  0.00    +0.042 C 
BRANCH  12   3
ATOM      3  O   UNL     1      -4.010  -1.461  26.052  0.00  0.00    -0.388 OA
ATOM     24  H   UNL     1      -4.952  -1.298  25.869  0.00  0.00    +0.210 HD
ENDBRANCH  12   3
ENDBRANCH  11  12
ENDBRANCH   4  11
ENDBRANCH   5   4
TORSDOF 7
ENDMDL
MODEL 9
REMARK VINA RESULT:      -4.9      2.440      4.903
REMARK  Name = 71693817
REMARK  10 active torsions:
REMARK  status: ('A' for Active; 'I' for Inactive)
REMARK    1  A    between atoms: O_1  and  C_7
REMARK    2  A    between atoms: O_2  and  C_9
REMARK    3  A    between atoms: O_3  and  C_12
REMARK    4  A    between atoms: N_4  and  C_5
REMARK    5  A    between atoms: N_4  and  C_11
REMARK    6  A    between atoms: C_6  and  C_10
REMARK    7  A    between atoms: C_11  and  C_12
REMARK    8  A    between atoms: C_12  and  C_16
REMARK    9  A    between atoms: C_12  and  C_17
REMARK   10  A    between atoms: C_13  and  C_18
REMARK                            x       y       z     vdW  Elec       q    Type
REMARK                         _______ _______ _______ _____ _____    ______ ____
ROOT
ATOM      5  C   UNL     1      -4.159   1.563  25.039  0.00  0.00    +0.092 C 
ATOM      6  C   UNL     1      -2.876   2.141  25.677  0.00  0.00    +0.041 C 
ATOM      7  C   UNL     1      -5.250   2.518  25.525  0.00  0.00    +0.160 C 
ATOM      8  C   UNL     1      -3.164   3.651  25.893  0.00  0.00    +0.043 C 
ATOM      9  C   UNL     1      -4.587   3.885  25.381  0.00  0.00    +0.145 C 
ENDROOT
BRANCH   6  10
ATOM     10  C   UNL     1      -1.629   1.859  24.867  0.00  0.00    -0.040 A 
ATOM     13  C   UNL     1      -0.361   1.998  25.431  0.00  0.00    -0.047 A 
ATOM     14  C   UNL     1      -1.761   1.455  23.538  0.00  0.00    +0.004 A 
ATOM     15  C   UNL     1       0.776   1.732  24.667  0.00  0.00    +0.003 A 
ATOM     18  C   UNL     1      -0.194   2.428  26.852  0.00  0.00    +0.044 C 
ATOM     19  C   UNL     1      -0.624   1.190  22.773  0.00  0.00    +0.000 A 
ATOM     20  C   UNL     1       0.643   1.329  23.337  0.00  0.00    +0.000 A 
ENDBRANCH   6  10
BRANCH   7   1
ATOM      1  O   UNL     1      -6.425   2.410  24.744  0.00  0.00    -0.388 OA
ATOM     22  H   UNL     1      -7.085   3.012  25.128  0.00  0.00    +0.210 HD
ENDBRANCH   7   1
BRANCH   9   2
ATOM      2  O   UNL     1      -4.542   4.265  24.008  0.00  0.00    -0.389 OA
ATOM     23  H   UNL     1      -3.985   5.060  23.945  0.00  0.00    +0.210 HD
ENDBRANCH   9   2
BRANCH   5   4
ATOM      4  N   UNL     1      -4.413   0.191  25.464  0.00  0.00    -0.308 NA
ATOM     21  H   UNL     1      -3.871  -0.007  26.305  0.00  0.00    +0.122 HD
BRANCH   4  11
ATOM     11  C   UNL     1      -4.029  -0.754  24.425  0.00  0.00    +0.115 C 
BRANCH  11  12
ATOM     12  C   UNL     1      -3.211  -1.954  24.938  0.00  0.00    +0.073 C 
ATOM     16  C   UNL     1      -1.716  -1.806  24.640  0.00  0.00    +0.042 C 
ATOM     17  C   UNL     1      -3.741  -3.281  24.389  0.00  0.00    +0.042 C 
BRANCH  12   3
ATOM      3  O   UNL     1      -3.372  -1.973  26.362  0.00  0.00    -0.388 OA
ATOM     24  H   UNL     1      -2.533  -2.267  26.756  0.00  0.00    +0.210 HD
ENDBRANCH  12   3
ENDBRANCH  11  12
ENDBRANCH   4  11
ENDBRANCH   5   4
TORSDOF 7
ENDMDL
MODEL 10
REMARK VINA RESULT:      -4.8      2.449      4.477
REMARK  Name = 71693817
REMARK  10 active torsions:
REMARK  status: ('A' for Active; 'I' for Inactive)
REMARK    1  A    between atoms: O_1  and  C_7
REMARK    2  A    between atoms: O_2  and  C_9
REMARK    3  A    between atoms: O_3  and  C_12
REMARK    4  A    between atoms: N_4  and  C_5
REMARK    5  A    between atoms: N_4  and  C_11
REMARK    6  A    between atoms: C_6  and  C_10
REMARK    7  A    between atoms: C_11  and  C_12
REMARK    8  A    between atoms: C_12  and  C_16
REMARK    9  A    between atoms: C_12  and  C_17
REMARK   10  A    between atoms: C_13  and  C_18
REMARK                            x       y       z     vdW  Elec       q    Type
REMARK                         _______ _______ _______ _____ _____    ______ ____
ROOT
ATOM      5  C   UNL     1      -3.575   2.612  25.466  0.00  0.00    +0.092 C 
ATOM      6  C   UNL     1      -4.246   1.590  24.520  0.00  0.00    +0.041 C 
ATOM      7  C   UNL     1      -4.596   3.748  25.531  0.00  0.00    +0.160 C 
ATOM      8  C   UNL     1      -5.772   1.851  24.644  0.00  0.00    +0.043 C 
ATOM      9  C   UNL     1      -5.922   3.001  25.641  0.00  0.00    +0.145 C 
ENDROOT
BRANCH   6  10
ATOM     10  C   UNL     1      -3.838   0.160  24.802  0.00  0.00    -0.040 A 
ATOM     13  C   UNL     1      -3.411  -0.680  23.774  0.00  0.00    -0.047 A 
ATOM     14  C   UNL     1      -3.895  -0.315  26.113  0.00  0.00    +0.004 A 
ATOM     15  C   UNL     1      -3.039  -1.994  24.056  0.00  0.00    +0.003 A 
ATOM     18  C   UNL     1      -3.342  -0.194  22.363  0.00  0.00    +0.044 C 
ATOM     19  C   UNL     1      -3.523  -1.630  26.395  0.00  0.00    +0.000 A 
ATOM     20  C   UNL     1      -3.095  -2.469  25.367  0.00  0.00    +0.000 A 
ENDBRANCH   6  10
BRANCH   7   1
ATOM      1  O   UNL     1      -4.367   4.593  26.643  0.00  0.00    -0.388 OA
ATOM     22  H   UNL     1      -4.912   4.262  27.377  0.00  0.00    +0.210 HD
ENDBRANCH   7   1
BRANCH   9   2
ATOM      2  O   UNL     1      -6.080   2.474  26.955  0.00  0.00    -0.389 OA
ATOM     23  H   UNL     1      -5.759   3.147  27.580  0.00  0.00    +0.210 HD
ENDBRANCH   9   2
BRANCH   5   4
ATOM      4  N   UNL     1      -2.288   3.069  24.955  0.00  0.00    -0.308 NA
ATOM     21  H   UNL     1      -2.441   3.816  24.277  0.00  0.00    +0.122 HD
BRANCH   4  11
ATOM     11  C   UNL     1      -1.572   1.982  24.304  0.00  0.00    +0.115 C 
BRANCH  11  12
ATOM     12  C   UNL     1      -0.246   1.604  24.990  0.00  0.00    +0.073 C 
ATOM     16  C   UNL     1       0.070   2.515  26.181  0.00  0.00    +0.042 C 
ATOM     17  C   UNL     1       0.922   1.586  24.002  0.00  0.00    +0.042 C 
BRANCH  12   3
ATOM      3  O   UNL     1      -0.416   0.273  25.493  0.00  0.00    -0.388 OA
ATOM     24  H   UNL     1       0.072   0.203  26.332  0.00  0.00    +0.210 HD
ENDBRANCH  12   3
ENDBRANCH  11  12
ENDBRANCH   4  11
ENDBRANCH   5   4
TORSDOF 7
ENDMDL
