MODEL 1
REMARK VINA RESULT:      14.3      0.000      0.000
REMARK  Name = 51136820
REMARK  5 active torsions:
REMARK  status: ('A' for Active; 'I' for Inactive)
REMARK    1  A    between atoms: N_3  and  C_10
REMARK    2  A    between atoms: N_4  and  C_20
REMARK    3  A    between atoms: C_11  and  C_19
REMARK    4  A    between atoms: C_21  and  C_24
REMARK    5  A    between atoms: C_30  and  C_32
REMARK                            x       y       z     vdW  Elec       q    Type
REMARK                         _______ _______ _______ _____ _____    ______ ____
ROOT
ATOM      1  O   UNL     1      -5.989   1.007  25.027  0.00  0.00    -0.336 OA
ATOM      5  N   UNL     1      -3.773   1.185  25.294  0.00  0.00    -0.190 NA
ATOM      6  N   UNL     1      -5.444  -0.200  24.573  0.00  0.00    -0.056 NA
ATOM     19  C   UNL     1      -4.938   1.766  25.433  0.00  0.00    +0.245 A 
ATOM     21  C   UNL     1      -4.134  -0.019  24.763  0.00  0.00    +0.202 A 
ENDROOT
BRANCH  21  24
ATOM      2  O   UNL     1       4.684   0.890  22.094  0.00  0.00    -0.276 OA
ATOM      7  N   UNL     1       0.378  -1.278  23.627  0.00  0.00    -0.312 N 
ATOM      8  N   UNL     1       3.110  -0.435  23.176  0.00  0.00    -0.299 N 
ATOM      9  N   UNL     1      -1.262  -2.969  23.790  0.00  0.00    -0.240 NA
ATOM     22  C   UNL     1       0.681   0.025  23.026  0.00  0.00    +0.125 C 
ATOM     23  C   UNL     1       1.494  -2.180  23.923  0.00  0.00    +0.125 C 
ATOM     24  C   UNL     1      -3.160  -1.020  24.432  0.00  0.00    +0.027 A 
ATOM     25  C   UNL     1       2.022  -0.017  22.296  0.00  0.00    +0.126 C 
ATOM     26  C   UNL     1       2.764  -1.387  24.233  0.00  0.00    +0.126 C 
ATOM     27  C   UNL     1      -0.939  -1.659  23.872  0.00  0.00    +0.122 A 
ATOM     28  C   UNL     1      -1.841  -0.654  24.186  0.00  0.00    +0.055 A 
ATOM     29  C   UNL     1      -3.531  -2.357  24.358  0.00  0.00    +0.031 A 
ATOM     30  C   UNL     1       4.389   0.088  22.983  0.00  0.00    +0.213 C 
ATOM     31  C   UNL     1      -2.554  -3.285  24.036  0.00  0.00    +0.113 A 
ATOM     32  C   UNL     1       5.455  -0.388  23.940  0.00  0.00    +0.109 C 
ENDBRANCH  21  24
BRANCH  19  11
ATOM      3  N   UNL     1      -4.630   4.224  25.200  0.00  0.00    -0.288 NA
ATOM     11  C   UNL     1      -5.266   3.140  25.975  0.00  0.00    +0.146 C 
ATOM     12  C   UNL     1      -5.509   5.388  25.319  0.00  0.00    +0.085 C 
ATOM     15  C   UNL     1      -6.772   3.455  25.925  0.00  0.00    +0.030 C 
ATOM     16  C   UNL     1      -6.880   4.764  25.154  0.00  0.00    +0.017 C 
BRANCH   3  10
ATOM      4  N   UNL     1      -0.438   3.774  25.739  0.00  0.00    -0.305 NA
ATOM     10  C   UNL     1      -3.267   4.519  25.633  0.00  0.00    +0.060 C 
ATOM     13  C   UNL     1      -2.743   3.431  26.574  0.00  0.00    +0.034 C 
ATOM     14  C   UNL     1      -2.342   4.650  24.421  0.00  0.00    +0.034 C 
ATOM     17  C   UNL     1      -1.277   3.681  26.942  0.00  0.00    +0.085 C 
ATOM     18  C   UNL     1      -0.890   4.861  24.859  0.00  0.00    +0.085 C 
ATOM     20  C   UNL     1       0.965   3.964  26.107  0.00  0.00    +0.104 C 
ENDBRANCH   3  10
ENDBRANCH  19  11
TORSDOF 3
ENDMDL
