MODEL 1
REMARK VINA RESULT:      -1.7      0.000      0.000
REMARK  Name = 45783278
REMARK  8 active torsions:
REMARK  status: ('A' for Active; 'I' for Inactive)
REMARK    1  A    between atoms: O_2  and  C_27
REMARK    2  A    between atoms: O_2  and  C_28
REMARK    3  A    between atoms: N_3  and  C_13
REMARK    4  A    between atoms: N_7  and  C_26
REMARK    5  A    between atoms: C_9  and  C_14
REMARK    6  A    between atoms: C_13  and  C_15
REMARK    7  A    between atoms: C_16  and  C_18
REMARK    8  A    between atoms: C_26  and  C_27
REMARK                            x       y       z     vdW  Elec       q    Type
REMARK                         _______ _______ _______ _____ _____    ______ ____
ROOT
ATOM      1  O   UNL     1      -1.132   2.393  25.583  0.00  0.00    -0.336 OA
ATOM      4  N   UNL     1      -1.520   1.782  23.464  0.00  0.00    -0.190 NA
ATOM      5  N   UNL     1       0.026   1.735  25.149  0.00  0.00    -0.056 NA
ATOM     14  C   UNL     1      -1.991   2.376  24.531  0.00  0.00    +0.245 A 
ATOM     16  C   UNL     1      -0.280   1.406  23.891  0.00  0.00    +0.202 A 
ENDROOT
BRANCH  16  18
ATOM      7  N   UNL     1       4.231   0.380  22.464  0.00  0.00    -0.327 N 
ATOM      8  N   UNL     1       2.400  -0.682  21.371  0.00  0.00    -0.240 NA
ATOM     18  C   UNL     1       0.629   0.699  23.035  0.00  0.00    +0.027 A 
ATOM     22  C   UNL     1       2.000   0.886  23.167  0.00  0.00    +0.055 A 
ATOM     23  C   UNL     1       0.142  -0.178  22.072  0.00  0.00    +0.031 A 
ATOM     24  C   UNL     1       2.836   0.178  22.318  0.00  0.00    +0.119 A 
ATOM     25  C   UNL     1       1.060  -0.837  21.272  0.00  0.00    +0.113 A 
ATOM     29  H   UNL     1       4.832  -0.147  21.839  0.00  0.00    +0.148 HD
BRANCH   7  26
ATOM     26  C   UNL     1       4.783   1.268  23.434  0.00  0.00    +0.131 C 
BRANCH  26  27
ATOM     27  C   UNL     1       5.705   0.505  24.370  0.00  0.00    +0.178 C 
BRANCH  27   2
ATOM      2  O   UNL     1       5.984  -0.776  23.820  0.00  0.00    -0.381 OA
ATOM     28  C   UNL     1       4.956  -1.708  24.123  0.00  0.00    +0.194 C 
ENDBRANCH  27   2
ENDBRANCH  26  27
ENDBRANCH   7  26
ENDBRANCH  16  18
BRANCH  14   9
ATOM      3  N   UNL     1      -4.263   2.193  25.529  0.00  0.00    -0.286 NA
ATOM      9  C   UNL     1      -3.337   3.036  24.748  0.00  0.00    +0.146 C 
ATOM     10  C   UNL     1      -3.235   4.348  25.545  0.00  0.00    +0.030 C 
ATOM     11  C   UNL     1      -4.183   4.173  26.724  0.00  0.00    +0.017 C 
ATOM     12  C   UNL     1      -5.151   3.109  26.247  0.00  0.00    +0.085 C 
BRANCH   3  13
ATOM     13  C   UNL     1      -5.004   1.241  24.711  0.00  0.00    +0.140 C 
BRANCH  13  15
ATOM      6  N   UNL     1      -3.722  -0.451  25.901  0.00  0.00    -0.259 NA
ATOM     15  C   UNL     1      -4.407  -0.140  24.778  0.00  0.00    +0.055 A 
ATOM     17  C   UNL     1      -4.585  -1.008  23.713  0.00  0.00    +0.024 A 
ATOM     19  C   UNL     1      -4.021  -2.276  23.805  0.00  0.00    +0.003 A 
ATOM     20  C   UNL     1      -3.189  -1.692  25.955  0.00  0.00    +0.111 A 
ATOM     21  C   UNL     1      -3.309  -2.632  24.944  0.00  0.00    +0.020 A 
ENDBRANCH  13  15
ENDBRANCH   3  13
ENDBRANCH  14   9
TORSDOF 7
ENDMDL
MODEL 2
REMARK VINA RESULT:       0.0      1.395      1.621
REMARK  Name = 45783278
REMARK  8 active torsions:
REMARK  status: ('A' for Active; 'I' for Inactive)
REMARK    1  A    between atoms: O_2  and  C_27
REMARK    2  A    between atoms: O_2  and  C_28
REMARK    3  A    between atoms: N_3  and  C_13
REMARK    4  A    between atoms: N_7  and  C_26
REMARK    5  A    between atoms: C_9  and  C_14
REMARK    6  A    between atoms: C_13  and  C_15
REMARK    7  A    between atoms: C_16  and  C_18
REMARK    8  A    between atoms: C_26  and  C_27
REMARK                            x       y       z     vdW  Elec       q    Type
REMARK                         _______ _______ _______ _____ _____    ______ ____
ROOT
ATOM      1  O   UNL     1      -1.784   3.383  24.079  0.00  0.00    -0.336 OA
ATOM      4  N   UNL     1      -2.380   1.230  24.230  0.00  0.00    -0.190 NA
ATOM      5  N   UNL     1      -0.592   2.648  24.063  0.00  0.00    -0.056 NA
ATOM     14  C   UNL     1      -2.787   2.473  24.179  0.00  0.00    +0.245 A 
ATOM     16  C   UNL     1      -1.026   1.388  24.155  0.00  0.00    +0.202 A 
ENDROOT
BRANCH  16  18
ATOM      7  N   UNL     1       3.110  -0.738  22.810  0.00  0.00    -0.327 N 
ATOM      8  N   UNL     1       1.603  -1.925  24.224  0.00  0.00    -0.240 NA
ATOM     18  C   UNL     1      -0.135   0.264  24.177  0.00  0.00    +0.027 A 
ATOM     22  C   UNL     1       1.065   0.310  23.476  0.00  0.00    +0.055 A 
ATOM     23  C   UNL     1      -0.467  -0.876  24.902  0.00  0.00    +0.031 A 
ATOM     24  C   UNL     1       1.891  -0.800  23.531  0.00  0.00    +0.119 A 
ATOM     25  C   UNL     1       0.428  -1.933  24.892  0.00  0.00    +0.113 A 
ATOM     29  H   UNL     1       3.708  -1.555  22.862  0.00  0.00    +0.148 HD
BRANCH   7  26
ATOM     26  C   UNL     1       3.498   0.405  22.051  0.00  0.00    +0.131 C 
BRANCH  26  27
ATOM     27  C   UNL     1       4.672   1.100  22.721  0.00  0.00    +0.178 C 
BRANCH  27   2
ATOM      2  O   UNL     1       5.640   0.132  23.102  0.00  0.00    -0.381 OA
ATOM     28  C   UNL     1       5.590  -0.133  24.498  0.00  0.00    +0.194 C 
ENDBRANCH  27   2
ENDBRANCH  26  27
ENDBRANCH   7  26
ENDBRANCH  16  18
BRANCH  14   9
ATOM      3  N   UNL     1      -5.070   2.287  25.151  0.00  0.00    -0.286 NA
ATOM      9  C   UNL     1      -4.198   3.023  24.216  0.00  0.00    +0.146 C 
ATOM     10  C   UNL     1      -4.254   4.484  24.696  0.00  0.00    +0.030 C 
ATOM     11  C   UNL     1      -5.228   4.481  25.866  0.00  0.00    +0.017 C 
ATOM     12  C   UNL     1      -6.070   3.244  25.625  0.00  0.00    +0.085 C 
BRANCH   3  13
ATOM     13  C   UNL     1      -5.683   1.105  24.557  0.00  0.00    +0.140 C 
BRANCH  13  15
ATOM      6  N   UNL     1      -4.269  -0.259  25.992  0.00  0.00    -0.259 NA
ATOM     15  C   UNL     1      -4.851  -0.130  24.780  0.00  0.00    +0.055 A 
ATOM     17  C   UNL     1      -4.725  -1.056  23.757  0.00  0.00    +0.024 A 
ATOM     19  C   UNL     1      -3.950  -2.187  23.994  0.00  0.00    +0.003 A 
ATOM     20  C   UNL     1      -3.524  -1.371  26.186  0.00  0.00    +0.111 A 
ATOM     21  C   UNL     1      -3.335  -2.354  25.229  0.00  0.00    +0.020 A 
ENDBRANCH  13  15
ENDBRANCH   3  13
ENDBRANCH  14   9
TORSDOF 7
ENDMDL
MODEL 3
REMARK VINA RESULT:       0.8      2.072      3.860
REMARK  Name = 45783278
REMARK  8 active torsions:
REMARK  status: ('A' for Active; 'I' for Inactive)
REMARK    1  A    between atoms: O_2  and  C_27
REMARK    2  A    between atoms: O_2  and  C_28
REMARK    3  A    between atoms: N_3  and  C_13
REMARK    4  A    between atoms: N_7  and  C_26
REMARK    5  A    between atoms: C_9  and  C_14
REMARK    6  A    between atoms: C_13  and  C_15
REMARK    7  A    between atoms: C_16  and  C_18
REMARK    8  A    between atoms: C_26  and  C_27
REMARK                            x       y       z     vdW  Elec       q    Type
REMARK                         _______ _______ _______ _____ _____    ______ ____
ROOT
ATOM      1  O   UNL     1      -3.727   1.391  23.661  0.00  0.00    -0.336 OA
ATOM      4  N   UNL     1      -2.715   0.709  25.539  0.00  0.00    -0.190 NA
ATOM      5  N   UNL     1      -2.655   0.586  23.256  0.00  0.00    -0.056 NA
ATOM     14  C   UNL     1      -3.689   1.411  25.019  0.00  0.00    +0.245 A 
ATOM     16  C   UNL     1      -2.108   0.221  24.418  0.00  0.00    +0.202 A 
ENDROOT
BRANCH  16  18
ATOM      7  N   UNL     1       2.477  -0.776  23.226  0.00  0.00    -0.327 N 
ATOM      8  N   UNL     1       1.297  -2.278  24.650  0.00  0.00    -0.240 NA
ATOM     18  C   UNL     1      -0.953  -0.627  24.496  0.00  0.00    +0.027 A 
ATOM     22  C   UNL     1       0.210  -0.286  23.816  0.00  0.00    +0.055 A 
ATOM     23  C   UNL     1      -0.994  -1.794  25.252  0.00  0.00    +0.031 A 
ATOM     24  C   UNL     1       1.298  -1.137  23.925  0.00  0.00    +0.119 A 
ATOM     25  C   UNL     1       0.147  -2.578  25.296  0.00  0.00    +0.113 A 
ATOM     29  H   UNL     1       3.267  -1.406  23.317  0.00  0.00    +0.148 HD
BRANCH   7  26
ATOM     26  C   UNL     1       2.571   0.407  22.436  0.00  0.00    +0.131 C 
BRANCH  26  27
ATOM     27  C   UNL     1       3.888   1.114  22.714  0.00  0.00    +0.178 C 
BRANCH  27   2
ATOM      2  O   UNL     1       4.939   0.157  22.755  0.00  0.00    -0.381 OA
ATOM     28  C   UNL     1       5.634   0.200  23.994  0.00  0.00    +0.194 C 
ENDBRANCH  27   2
ENDBRANCH  26  27
ENDBRANCH   7  26
ENDBRANCH  16  18
BRANCH  14   9
ATOM      3  N   UNL     1      -4.674   3.665  25.396  0.00  0.00    -0.286 NA
ATOM      9  C   UNL     1      -4.761   2.226  25.712  0.00  0.00    +0.146 C 
ATOM     10  C   UNL     1      -6.184   1.819  25.291  0.00  0.00    +0.030 C 
ATOM     11  C   UNL     1      -6.840   3.105  24.807  0.00  0.00    +0.017 C 
ATOM     12  C   UNL     1      -6.035   4.193  25.489  0.00  0.00    +0.085 C 
BRANCH   3  13
ATOM     13  C   UNL     1      -3.746   4.388  26.257  0.00  0.00    +0.140 C 
BRANCH  13  15
ATOM      6  N   UNL     1      -1.614   3.234  26.457  0.00  0.00    -0.259 NA
ATOM     15  C   UNL     1      -2.316   4.200  25.825  0.00  0.00    +0.055 A 
ATOM     17  C   UNL     1      -1.799   5.004  24.823  0.00  0.00    +0.024 A 
ATOM     19  C   UNL     1      -0.475   4.806  24.446  0.00  0.00    +0.003 A 
ATOM     20  C   UNL     1      -0.331   3.069  26.065  0.00  0.00    +0.111 A 
ATOM     21  C   UNL     1       0.280   3.821  25.075  0.00  0.00    +0.020 A 
ENDBRANCH  13  15
ENDBRANCH   3  13
ENDBRANCH  14   9
TORSDOF 7
ENDMDL
MODEL 4
REMARK VINA RESULT:       1.1      2.378      6.835
REMARK  Name = 45783278
REMARK  8 active torsions:
REMARK  status: ('A' for Active; 'I' for Inactive)
REMARK    1  A    between atoms: O_2  and  C_27
REMARK    2  A    between atoms: O_2  and  C_28
REMARK    3  A    between atoms: N_3  and  C_13
REMARK    4  A    between atoms: N_7  and  C_26
REMARK    5  A    between atoms: C_9  and  C_14
REMARK    6  A    between atoms: C_13  and  C_15
REMARK    7  A    between atoms: C_16  and  C_18
REMARK    8  A    between atoms: C_26  and  C_27
REMARK                            x       y       z     vdW  Elec       q    Type
REMARK                         _______ _______ _______ _____ _____    ______ ____
ROOT
ATOM      1  O   UNL     1       0.462   3.250  23.884  0.00  0.00    -0.336 OA
ATOM      4  N   UNL     1      -1.036   1.974  24.952  0.00  0.00    -0.190 NA
ATOM      5  N   UNL     1      -0.602   4.096  24.217  0.00  0.00    -0.056 NA
ATOM     14  C   UNL     1       0.126   2.021  24.352  0.00  0.00    +0.245 A 
ATOM     16  C   UNL     1      -1.445   3.272  24.845  0.00  0.00    +0.202 A 
ENDROOT
BRANCH  16  18
ATOM      7  N   UNL     1      -6.218   2.682  25.403  0.00  0.00    -0.327 N 
ATOM      8  N   UNL     1      -5.157   4.564  26.408  0.00  0.00    -0.240 NA
ATOM     18  C   UNL     1      -2.705   3.711  25.374  0.00  0.00    +0.027 A 
ATOM     22  C   UNL     1      -3.859   2.976  25.128  0.00  0.00    +0.055 A 
ATOM     23  C   UNL     1      -2.775   4.872  26.136  0.00  0.00    +0.031 A 
ATOM     24  C   UNL     1      -5.049   3.441  25.663  0.00  0.00    +0.119 A 
ATOM     25  C   UNL     1      -4.013   5.252  26.625  0.00  0.00    +0.113 A 
ATOM     29  H   UNL     1      -7.082   3.031  25.804  0.00  0.00    +0.148 HD
BRANCH   7  26
ATOM     26  C   UNL     1      -6.202   1.486  24.628  0.00  0.00    +0.131 C 
BRANCH  26  27
ATOM     27  C   UNL     1      -4.975   0.658  24.975  0.00  0.00    +0.178 C 
BRANCH  27   2
ATOM      2  O   UNL     1      -4.545  -0.056  23.824  0.00  0.00    -0.381 OA
ATOM     28  C   UNL     1      -3.425   0.568  23.212  0.00  0.00    +0.194 C 
ENDBRANCH  27   2
ENDBRANCH  26  27
ENDBRANCH   7  26
ENDBRANCH  16  18
BRANCH  14   9
ATOM      3  N   UNL     1       0.483  -0.394  23.865  0.00  0.00    -0.286 NA
ATOM      9  C   UNL     1       1.129   0.910  24.115  0.00  0.00    +0.146 C 
ATOM     10  C   UNL     1       2.007   1.156  22.875  0.00  0.00    +0.030 C 
ATOM     11  C   UNL     1       1.837  -0.088  22.013  0.00  0.00    +0.017 C 
ATOM     12  C   UNL     1       1.394  -1.148  23.002  0.00  0.00    +0.085 C 
BRANCH   3  13
ATOM     13  C   UNL     1       0.161  -1.119  25.087  0.00  0.00    +0.140 C 
BRANCH  13  15
ATOM      6  N   UNL     1      -1.488  -2.546  24.007  0.00  0.00    -0.259 NA
ATOM     15  C   UNL     1      -1.222  -1.714  25.038  0.00  0.00    +0.055 A 
ATOM     17  C   UNL     1      -2.134  -1.390  26.029  0.00  0.00    +0.024 A 
ATOM     19  C   UNL     1      -3.403  -1.956  25.955  0.00  0.00    +0.003 A 
ATOM     20  C   UNL     1      -2.731  -3.077  23.969  0.00  0.00    +0.111 A 
ATOM     21  C   UNL     1      -3.714  -2.817  24.909  0.00  0.00    +0.020 A 
ENDBRANCH  13  15
ENDBRANCH   3  13
ENDBRANCH  14   9
TORSDOF 7
ENDMDL
MODEL 5
REMARK VINA RESULT:       1.1      1.606      3.564
REMARK  Name = 45783278
REMARK  8 active torsions:
REMARK  status: ('A' for Active; 'I' for Inactive)
REMARK    1  A    between atoms: O_2  and  C_27
REMARK    2  A    between atoms: O_2  and  C_28
REMARK    3  A    between atoms: N_3  and  C_13
REMARK    4  A    between atoms: N_7  and  C_26
REMARK    5  A    between atoms: C_9  and  C_14
REMARK    6  A    between atoms: C_13  and  C_15
REMARK    7  A    between atoms: C_16  and  C_18
REMARK    8  A    between atoms: C_26  and  C_27
REMARK                            x       y       z     vdW  Elec       q    Type
REMARK                         _______ _______ _______ _____ _____    ______ ____
ROOT
ATOM      1  O   UNL     1      -1.652  -0.314  26.048  0.00  0.00    -0.336 OA
ATOM      4  N   UNL     1      -1.894   0.503  23.977  0.00  0.00    -0.190 NA
ATOM      5  N   UNL     1      -0.466  -0.619  25.368  0.00  0.00    -0.056 NA
ATOM     14  C   UNL     1      -2.437   0.345  25.157  0.00  0.00    +0.245 A 
ATOM     16  C   UNL     1      -0.685  -0.105  24.154  0.00  0.00    +0.202 A 
ENDROOT
BRANCH  16  18
ATOM      7  N   UNL     1       3.827   0.514  22.514  0.00  0.00    -0.327 N 
ATOM      8  N   UNL     1       2.164  -0.339  21.037  0.00  0.00    -0.240 NA
ATOM     18  C   UNL     1       0.281  -0.183  23.097  0.00  0.00    +0.027 A 
ATOM     22  C   UNL     1       1.596   0.207  23.322  0.00  0.00    +0.055 A 
ATOM     23  C   UNL     1      -0.094  -0.651  21.842  0.00  0.00    +0.031 A 
ATOM     24  C   UNL     1       2.491   0.111  22.269  0.00  0.00    +0.119 A 
ATOM     25  C   UNL     1       0.876  -0.709  20.855  0.00  0.00    +0.113 A 
ATOM     29  H   UNL     1       4.474   0.434  21.736  0.00  0.00    +0.148 HD
BRANCH   7  26
ATOM     26  C   UNL     1       4.264   1.002  23.781  0.00  0.00    +0.131 C 
BRANCH  26  27
ATOM     27  C   UNL     1       5.667   0.498  24.076  0.00  0.00    +0.178 C 
BRANCH  27   2
ATOM      2  O   UNL     1       5.590  -0.769  24.716  0.00  0.00    -0.381 OA
ATOM     28  C   UNL     1       4.802  -1.684  23.967  0.00  0.00    +0.194 C 
ENDBRANCH  27   2
ENDBRANCH  26  27
ENDBRANCH   7  26
ENDBRANCH  16  18
BRANCH  14   9
ATOM      3  N   UNL     1      -4.109   2.184  25.282  0.00  0.00    -0.286 NA
ATOM      9  C   UNL     1      -3.797   0.791  25.656  0.00  0.00    +0.146 C 
ATOM     10  C   UNL     1      -4.949  -0.040  25.064  0.00  0.00    +0.030 C 
ATOM     11  C   UNL     1      -5.889   0.976  24.431  0.00  0.00    +0.017 C 
ATOM     12  C   UNL     1      -5.565   2.264  25.162  0.00  0.00    +0.085 C 
BRANCH   3  13
ATOM     13  C   UNL     1      -3.584   3.164  26.225  0.00  0.00    +0.140 C 
BRANCH  13  15
ATOM      6  N   UNL     1      -2.491   5.085  25.206  0.00  0.00    -0.259 NA
ATOM     15  C   UNL     1      -2.342   3.837  25.702  0.00  0.00    +0.055 A 
ATOM     17  C   UNL     1      -1.133   3.162  25.753  0.00  0.00    +0.024 A 
ATOM     19  C   UNL     1      -0.004   3.810  25.261  0.00  0.00    +0.003 A 
ATOM     20  C   UNL     1      -1.373   5.683  24.738  0.00  0.00    +0.111 A 
ATOM     21  C   UNL     1      -0.119   5.095  24.743  0.00  0.00    +0.020 A 
ENDBRANCH  13  15
ENDBRANCH   3  13
ENDBRANCH  14   9
TORSDOF 7
ENDMDL
