MODEL 1
REMARK VINA RESULT:       1.4      0.000      0.000
REMARK  Name = 40778210
REMARK  10 active torsions:
REMARK  status: ('A' for Active; 'I' for Inactive)
REMARK    1  A    between atoms: O_2  and  C_11
REMARK    2  A    between atoms: O_3  and  C_12
REMARK    3  A    between atoms: O_5  and  C_23
REMARK    4  A    between atoms: O_5  and  C_31
REMARK    5  A    between atoms: N_8  and  C_21
REMARK    6  A    between atoms: N_9  and  C_15
REMARK    7  A    between atoms: C_10  and  C_14
REMARK    8  A    between atoms: C_13  and  C_15
REMARK    9  A    between atoms: C_14  and  C_16
REMARK   10  A    between atoms: C_22  and  C_25
REMARK                            x       y       z     vdW  Elec       q    Type
REMARK                         _______ _______ _______ _____ _____    ______ ____
ROOT
ATOM      1  O   UNL     1      -0.519   4.386  24.484  0.00  0.00    -0.366 OA
ATOM     10  C   UNL     1      -1.679   4.680  25.295  0.00  0.00    +0.159 C 
ATOM     11  C   UNL     1      -1.844   3.505  26.254  0.00  0.00    +0.175 C 
ATOM     12  C   UNL     1      -1.243   2.363  25.459  0.00  0.00    +0.176 C 
ATOM     13  C   UNL     1      -0.071   3.050  24.778  0.00  0.00    +0.167 C 
ENDROOT
BRANCH  11   2
ATOM      2  O   UNL     1      -1.058   3.768  27.415  0.00  0.00    -0.387 OA
ATOM     35  H   UNL     1      -0.128   3.617  27.177  0.00  0.00    +0.210 HD
ENDBRANCH  11   2
BRANCH  12   3
ATOM      3  O   UNL     1      -0.829   1.280  26.262  0.00  0.00    -0.387 OA
ATOM     36  H   UNL     1      -0.423   0.620  25.675  0.00  0.00    +0.210 HD
ENDBRANCH  12   3
BRANCH  10  14
ATOM     14  C   UNL     1      -2.868   4.856  24.360  0.00  0.00    +0.130 C 
BRANCH  14  16
ATOM      4  O   UNL     1      -4.947   4.607  25.478  0.00  0.00    -0.276 OA
ATOM      7  N   UNL     1      -4.014   2.682  24.572  0.00  0.00    -0.298 N 
ATOM      8  N   UNL     1      -3.952  -0.191  24.228  0.00  0.00    -0.324 N 
ATOM     16  C   UNL     1      -4.040   4.047  24.859  0.00  0.00    +0.218 C 
ATOM     17  C   UNL     1      -5.109   1.829  25.027  0.00  0.00    +0.126 C 
ATOM     18  C   UNL     1      -2.935   2.019  23.836  0.00  0.00    +0.126 C 
ATOM     19  C   UNL     1      -4.630   0.421  25.374  0.00  0.00    +0.124 C 
ATOM     20  C   UNL     1      -3.370   0.692  23.214  0.00  0.00    +0.124 C 
BRANCH   8  21
ATOM     21  C   UNL     1      -3.896  -1.576  24.092  0.00  0.00    +0.072 A 
ATOM     23  C   UNL     1      -2.843  -2.303  24.647  0.00  0.00    +0.141 A 
ATOM     24  C   UNL     1      -4.906  -2.236  23.391  0.00  0.00    +0.027 A 
ATOM     26  C   UNL     1      -2.800  -3.690  24.502  0.00  0.00    +0.047 A 
ATOM     27  C   UNL     1      -4.863  -3.624  23.246  0.00  0.00    +0.002 A 
ATOM     28  C   UNL     1      -3.810  -4.350  23.802  0.00  0.00    +0.004 A 
BRANCH  23   5
ATOM      5  O   UNL     1      -1.846  -1.677  25.334  0.00  0.00    -0.493 OA
ATOM     31  C   UNL     1      -0.598  -1.519  24.664  0.00  0.00    +0.277 C 
ENDBRANCH  23   5
ENDBRANCH   8  21
ENDBRANCH  14  16
ENDBRANCH  10  14
BRANCH  13  15
ATOM     15  C   UNL     1       0.367   2.364  23.496  0.00  0.00    +0.138 C 
BRANCH  15   9
ATOM      6  O   UNL     1       1.303  -0.001  22.167  0.00  0.00    -0.270 OA
ATOM      9  N   UNL     1       1.670   1.734  23.659  0.00  0.00    -0.309 N 
ATOM     22  C   UNL     1       2.021   0.593  22.967  0.00  0.00    +0.244 C 
ATOM     37  H   UNL     1       2.333   2.207  24.262  0.00  0.00    +0.149 HD
BRANCH  22  25
ATOM     25  C   UNL     1       3.375   0.058  23.264  0.00  0.00    +0.037 A 
ATOM     29  C   UNL     1       4.493   0.883  23.146  0.00  0.00    +0.013 A 
ATOM     30  C   UNL     1       3.528  -1.271  23.663  0.00  0.00    +0.013 A 
ATOM     32  C   UNL     1       5.764   0.381  23.427  0.00  0.00    +0.001 A 
ATOM     33  C   UNL     1       4.797  -1.772  23.945  0.00  0.00    +0.001 A 
ATOM     34  C   UNL     1       5.917  -0.947  23.827  0.00  0.00    +0.000 A 
ENDBRANCH  22  25
ENDBRANCH  15   9
ENDBRANCH  13  15
TORSDOF 9
ENDMDL
MODEL 2
REMARK VINA RESULT:       2.3      1.866      5.696
REMARK  Name = 40778210
REMARK  10 active torsions:
REMARK  status: ('A' for Active; 'I' for Inactive)
REMARK    1  A    between atoms: O_2  and  C_11
REMARK    2  A    between atoms: O_3  and  C_12
REMARK    3  A    between atoms: O_5  and  C_23
REMARK    4  A    between atoms: O_5  and  C_31
REMARK    5  A    between atoms: N_8  and  C_21
REMARK    6  A    between atoms: N_9  and  C_15
REMARK    7  A    between atoms: C_10  and  C_14
REMARK    8  A    between atoms: C_13  and  C_15
REMARK    9  A    between atoms: C_14  and  C_16
REMARK   10  A    between atoms: C_22  and  C_25
REMARK                            x       y       z     vdW  Elec       q    Type
REMARK                         _______ _______ _______ _____ _____    ______ ____
ROOT
ATOM      1  O   UNL     1      -5.436   3.238  25.825  0.00  0.00    -0.366 OA
ATOM     10  C   UNL     1      -4.497   4.225  25.339  0.00  0.00    +0.159 C 
ATOM     11  C   UNL     1      -4.009   3.724  23.984  0.00  0.00    +0.175 C 
ATOM     12  C   UNL     1      -4.138   2.222  24.138  0.00  0.00    +0.176 C 
ATOM     13  C   UNL     1      -5.427   2.108  24.935  0.00  0.00    +0.167 C 
ENDROOT
BRANCH  11   2
ATOM      2  O   UNL     1      -4.912   4.200  22.986  0.00  0.00    -0.387 OA
ATOM     35  H   UNL     1      -4.419   4.253  22.150  0.00  0.00    +0.210 HD
ENDBRANCH  11   2
BRANCH  12   3
ATOM      3  O   UNL     1      -4.215   1.539  22.906  0.00  0.00    -0.387 OA
ATOM     36  H   UNL     1      -3.748   2.077  22.244  0.00  0.00    +0.210 HD
ENDBRANCH  12   3
BRANCH  10  14
ATOM     14  C   UNL     1      -3.380   4.348  26.366  0.00  0.00    +0.130 C 
BRANCH  14  16
ATOM      4  O   UNL     1      -2.039   6.160  25.620  0.00  0.00    -0.276 OA
ATOM      7  N   UNL     1      -1.193   4.024  25.270  0.00  0.00    -0.298 N 
ATOM      8  N   UNL     1       0.746   2.221  24.102  0.00  0.00    -0.324 N 
ATOM     16  C   UNL     1      -2.150   4.936  25.719  0.00  0.00    +0.218 C 
ATOM     17  C   UNL     1       0.023   4.515  24.626  0.00  0.00    +0.126 C 
ATOM     18  C   UNL     1      -1.326   2.571  25.390  0.00  0.00    +0.126 C 
ATOM     19  C   UNL     1       0.522   3.558  23.546  0.00  0.00    +0.124 C 
ATOM     20  C   UNL     1       0.018   1.845  25.317  0.00  0.00    +0.124 C 
BRANCH   8  21
ATOM     21  C   UNL     1       1.655   1.347  23.510  0.00  0.00    +0.072 A 
ATOM     23  C   UNL     1       1.238   0.104  23.036  0.00  0.00    +0.141 A 
ATOM     24  C   UNL     1       2.993   1.726  23.396  0.00  0.00    +0.027 A 
ATOM     26  C   UNL     1       2.160  -0.762  22.445  0.00  0.00    +0.047 A 
ATOM     27  C   UNL     1       3.914   0.860  22.805  0.00  0.00    +0.002 A 
ATOM     28  C   UNL     1       3.498  -0.384  22.330  0.00  0.00    +0.004 A 
BRANCH  23   5
ATOM      5  O   UNL     1      -0.064  -0.286  23.139  0.00  0.00    -0.493 OA
ATOM     31  C   UNL     1      -1.024   0.456  22.390  0.00  0.00    +0.277 C 
ENDBRANCH  23   5
ENDBRANCH   8  21
ENDBRANCH  14  16
ENDBRANCH  10  14
BRANCH  13  15
ATOM     15  C   UNL     1      -5.525   0.823  25.739  0.00  0.00    +0.138 C 
BRANCH  15   9
ATOM      6  O   UNL     1      -4.746  -1.321  23.997  0.00  0.00    -0.270 OA
ATOM      9  N   UNL     1      -4.253   0.114  25.749  0.00  0.00    -0.309 N 
ATOM     22  C   UNL     1      -3.979  -0.907  24.862  0.00  0.00    +0.244 C 
ATOM     37  H   UNL     1      -3.551   0.446  26.401  0.00  0.00    +0.149 HD
BRANCH  22  25
ATOM     25  C   UNL     1      -2.647  -1.547  25.018  0.00  0.00    +0.037 A 
ATOM     29  C   UNL     1      -2.317  -2.667  24.256  0.00  0.00    +0.013 A 
ATOM     30  C   UNL     1      -1.726  -1.027  25.928  0.00  0.00    +0.013 A 
ATOM     32  C   UNL     1      -1.066  -3.267  24.401  0.00  0.00    +0.001 A 
ATOM     33  C   UNL     1      -0.475  -1.626  26.073  0.00  0.00    +0.001 A 
ATOM     34  C   UNL     1      -0.144  -2.747  25.310  0.00  0.00    +0.000 A 
ENDBRANCH  22  25
ENDBRANCH  15   9
ENDBRANCH  13  15
TORSDOF 9
ENDMDL
MODEL 3
REMARK VINA RESULT:       4.8      1.981      6.454
REMARK  Name = 40778210
REMARK  10 active torsions:
REMARK  status: ('A' for Active; 'I' for Inactive)
REMARK    1  A    between atoms: O_2  and  C_11
REMARK    2  A    between atoms: O_3  and  C_12
REMARK    3  A    between atoms: O_5  and  C_23
REMARK    4  A    between atoms: O_5  and  C_31
REMARK    5  A    between atoms: N_8  and  C_21
REMARK    6  A    between atoms: N_9  and  C_15
REMARK    7  A    between atoms: C_10  and  C_14
REMARK    8  A    between atoms: C_13  and  C_15
REMARK    9  A    between atoms: C_14  and  C_16
REMARK   10  A    between atoms: C_22  and  C_25
REMARK                            x       y       z     vdW  Elec       q    Type
REMARK                         _______ _______ _______ _____ _____    ______ ____
ROOT
ATOM      1  O   UNL     1       3.038  -1.028  22.738  0.00  0.00    -0.366 OA
ATOM     10  C   UNL     1       3.449   0.338  22.500  0.00  0.00    +0.159 C 
ATOM     11  C   UNL     1       4.726   0.551  23.307  0.00  0.00    +0.175 C 
ATOM     12  C   UNL     1       4.538  -0.421  24.455  0.00  0.00    +0.176 C 
ATOM     13  C   UNL     1       3.884  -1.599  23.752  0.00  0.00    +0.167 C 
ENDROOT
BRANCH  11   2
ATOM      2  O   UNL     1       5.832   0.155  22.498  0.00  0.00    -0.387 OA
ATOM     35  H   UNL     1       5.738   0.600  21.639  0.00  0.00    +0.210 HD
ENDBRANCH  11   2
BRANCH  12   3
ATOM      3  O   UNL     1       5.748  -0.784  25.083  0.00  0.00    -0.387 OA
ATOM     36  H   UNL     1       6.406  -0.103  24.863  0.00  0.00    +0.210 HD
ENDBRANCH  12   3
BRANCH  10  14
ATOM     14  C   UNL     1       2.310   1.249  22.936  0.00  0.00    +0.130 C 
BRANCH  14  16
ATOM      4  O   UNL     1       0.956  -0.251  21.691  0.00  0.00    -0.276 OA
ATOM      7  N   UNL     1      -0.143   1.155  23.179  0.00  0.00    -0.298 N 
ATOM      8  N   UNL     1      -2.566   2.293  24.280  0.00  0.00    -0.324 N 
ATOM     16  C   UNL     1       0.986   0.644  22.538  0.00  0.00    +0.218 C 
ATOM     17  C   UNL     1      -1.463   0.626  22.843  0.00  0.00    +0.126 C 
ATOM     18  C   UNL     1      -0.104   2.219  24.185  0.00  0.00    +0.126 C 
ATOM     19  C   UNL     1      -2.548   1.696  22.942  0.00  0.00    +0.124 C 
ATOM     20  C   UNL     1      -1.342   2.230  25.083  0.00  0.00    +0.124 C 
BRANCH   8  21
ATOM     21  C   UNL     1      -3.728   2.870  24.786  0.00  0.00    +0.072 A 
ATOM     23  C   UNL     1      -3.872   4.257  24.827  0.00  0.00    +0.141 A 
ATOM     24  C   UNL     1      -4.753   2.048  25.254  0.00  0.00    +0.027 A 
ATOM     26  C   UNL     1      -5.041   4.823  25.337  0.00  0.00    +0.047 A 
ATOM     27  C   UNL     1      -5.923   2.614  25.764  0.00  0.00    +0.002 A 
ATOM     28  C   UNL     1      -6.067   4.001  25.805  0.00  0.00    +0.004 A 
BRANCH  23   5
ATOM      5  O   UNL     1      -2.882   5.078  24.376  0.00  0.00    -0.493 OA
ATOM     31  C   UNL     1      -1.852   5.421  25.300  0.00  0.00    +0.277 C 
ENDBRANCH  23   5
ENDBRANCH   8  21
ENDBRANCH  14  16
ENDBRANCH  10  14
BRANCH  13  15
ATOM     15  C   UNL     1       3.055  -2.469  24.679  0.00  0.00    +0.138 C 
BRANCH  15   9
ATOM      6  O   UNL     1       0.826  -3.879  25.812  0.00  0.00    -0.270 OA
ATOM      9  N   UNL     1       1.671  -2.017  24.721  0.00  0.00    -0.309 N 
ATOM     22  C   UNL     1       0.671  -2.777  25.293  0.00  0.00    +0.244 C 
ATOM     37  H   UNL     1       1.484  -1.088  24.362  0.00  0.00    +0.149 HD
BRANCH  22  25
ATOM     25  C   UNL     1      -0.692  -2.188  25.232  0.00  0.00    +0.037 A 
ATOM     29  C   UNL     1      -1.634  -2.701  24.341  0.00  0.00    +0.013 A 
ATOM     30  C   UNL     1      -1.030  -1.123  26.068  0.00  0.00    +0.013 A 
ATOM     32  C   UNL     1      -2.914  -2.149  24.285  0.00  0.00    +0.001 A 
ATOM     33  C   UNL     1      -2.309  -0.572  26.012  0.00  0.00    +0.001 A 
ATOM     34  C   UNL     1      -3.252  -1.085  25.121  0.00  0.00    +0.000 A 
ENDBRANCH  22  25
ENDBRANCH  15   9
ENDBRANCH  13  15
TORSDOF 9
ENDMDL
MODEL 4
REMARK VINA RESULT:       5.0      1.689      6.490
REMARK  Name = 40778210
REMARK  10 active torsions:
REMARK  status: ('A' for Active; 'I' for Inactive)
REMARK    1  A    between atoms: O_2  and  C_11
REMARK    2  A    between atoms: O_3  and  C_12
REMARK    3  A    between atoms: O_5  and  C_23
REMARK    4  A    between atoms: O_5  and  C_31
REMARK    5  A    between atoms: N_8  and  C_21
REMARK    6  A    between atoms: N_9  and  C_15
REMARK    7  A    between atoms: C_10  and  C_14
REMARK    8  A    between atoms: C_13  and  C_15
REMARK    9  A    between atoms: C_14  and  C_16
REMARK   10  A    between atoms: C_22  and  C_25
REMARK                            x       y       z     vdW  Elec       q    Type
REMARK                         _______ _______ _______ _____ _____    ______ ____
ROOT
ATOM      1  O   UNL     1      -3.559   2.185  25.460  0.00  0.00    -0.366 OA
ATOM     10  C   UNL     1      -2.799   3.411  25.359  0.00  0.00    +0.159 C 
ATOM     11  C   UNL     1      -3.754   4.541  25.729  0.00  0.00    +0.175 C 
ATOM     12  C   UNL     1      -5.095   3.969  25.314  0.00  0.00    +0.176 C 
ATOM     13  C   UNL     1      -4.938   2.510  25.708  0.00  0.00    +0.167 C 
ENDROOT
BRANCH  11   2
ATOM      2  O   UNL     1      -3.706   4.714  27.144  0.00  0.00    -0.387 OA
ATOM     35  H   UNL     1      -4.445   5.295  27.392  0.00  0.00    +0.210 HD
ENDBRANCH  11   2
BRANCH  12   3
ATOM      3  O   UNL     1      -6.188   4.579  25.965  0.00  0.00    -0.387 OA
ATOM     36  H   UNL     1      -6.594   5.198  25.335  0.00  0.00    +0.210 HD
ENDBRANCH  12   3
BRANCH  10  14
ATOM     14  C   UNL     1      -2.275   3.517  23.933  0.00  0.00    +0.130 C 
BRANCH  14  16
ATOM      4  O   UNL     1      -3.079   1.530  22.913  0.00  0.00    -0.276 OA
ATOM      7  N   UNL     1      -0.796   1.638  23.330  0.00  0.00    -0.298 N 
ATOM      8  N   UNL     1       1.824   0.413  23.453  0.00  0.00    -0.324 N 
ATOM     16  C   UNL     1      -2.098   2.139  23.346  0.00  0.00    +0.218 C 
ATOM     17  C   UNL     1      -0.542   0.306  22.784  0.00  0.00    +0.126 C 
ATOM     18  C   UNL     1       0.368   2.363  23.844  0.00  0.00    +0.126 C 
ATOM     19  C   UNL     1       0.604  -0.398  23.506  0.00  0.00    +0.124 C 
ATOM     20  C   UNL     1       1.687   1.859  23.257  0.00  0.00    +0.124 C 
BRANCH   8  21
ATOM     21  C   UNL     1       3.079  -0.183  23.550  0.00  0.00    +0.072 A 
ATOM     23  C   UNL     1       4.239   0.569  23.364  0.00  0.00    +0.141 A 
ATOM     24  C   UNL     1       3.169  -1.546  23.836  0.00  0.00    +0.027 A 
ATOM     26  C   UNL     1       5.490  -0.042  23.464  0.00  0.00    +0.047 A 
ATOM     27  C   UNL     1       4.420  -2.156  23.936  0.00  0.00    +0.002 A 
ATOM     28  C   UNL     1       5.580  -1.404  23.749  0.00  0.00    +0.004 A 
BRANCH  23   5
ATOM      5  O   UNL     1       4.173   1.901  23.083  0.00  0.00    -0.493 OA
ATOM     31  C   UNL     1       4.266   2.280  21.711  0.00  0.00    +0.277 C 
ENDBRANCH  23   5
ENDBRANCH   8  21
ENDBRANCH  14  16
ENDBRANCH  10  14
BRANCH  13  15
ATOM     15  C   UNL     1      -5.834   1.573  24.918  0.00  0.00    +0.138 C 
BRANCH  15   9
ATOM      6  O   UNL     1      -4.390  -0.271  26.578  0.00  0.00    -0.270 OA
ATOM      9  N   UNL     1      -5.099   0.396  24.475  0.00  0.00    -0.309 N 
ATOM     22  C   UNL     1      -4.437  -0.428  25.361  0.00  0.00    +0.244 C 
ATOM     37  H   UNL     1      -5.147   0.175  23.486  0.00  0.00    +0.149 HD
BRANCH  22  25
ATOM     25  C   UNL     1      -3.712  -1.572  24.748  0.00  0.00    +0.037 A 
ATOM     29  C   UNL     1      -4.379  -2.437  23.881  0.00  0.00    +0.013 A 
ATOM     30  C   UNL     1      -2.364  -1.780  25.040  0.00  0.00    +0.013 A 
ATOM     32  C   UNL     1      -3.698  -3.509  23.305  0.00  0.00    +0.001 A 
ATOM     33  C   UNL     1      -1.683  -2.852  24.464  0.00  0.00    +0.001 A 
ATOM     34  C   UNL     1      -2.350  -3.717  23.596  0.00  0.00    +0.000 A 
ENDBRANCH  22  25
ENDBRANCH  15   9
ENDBRANCH  13  15
TORSDOF 9
ENDMDL
MODEL 5
REMARK VINA RESULT:       5.0      2.026      6.040
REMARK  Name = 40778210
REMARK  10 active torsions:
REMARK  status: ('A' for Active; 'I' for Inactive)
REMARK    1  A    between atoms: O_2  and  C_11
REMARK    2  A    between atoms: O_3  and  C_12
REMARK    3  A    between atoms: O_5  and  C_23
REMARK    4  A    between atoms: O_5  and  C_31
REMARK    5  A    between atoms: N_8  and  C_21
REMARK    6  A    between atoms: N_9  and  C_15
REMARK    7  A    between atoms: C_10  and  C_14
REMARK    8  A    between atoms: C_13  and  C_15
REMARK    9  A    between atoms: C_14  and  C_16
REMARK   10  A    between atoms: C_22  and  C_25
REMARK                            x       y       z     vdW  Elec       q    Type
REMARK                         _______ _______ _______ _____ _____    ______ ____
ROOT
ATOM      1  O   UNL     1      -4.260   1.545  24.141  0.00  0.00    -0.366 OA
ATOM     10  C   UNL     1      -5.065   0.680  24.974  0.00  0.00    +0.159 C 
ATOM     11  C   UNL     1      -6.108   1.571  25.641  0.00  0.00    +0.175 C 
ATOM     12  C   UNL     1      -5.387   2.903  25.707  0.00  0.00    +0.176 C 
ATOM     13  C   UNL     1      -4.642   2.912  24.383  0.00  0.00    +0.167 C 
ENDROOT
BRANCH  11   2
ATOM      2  O   UNL     1      -7.235   1.660  24.770  0.00  0.00    -0.387 OA
ATOM     35  H   UNL     1      -7.705   0.811  24.815  0.00  0.00    +0.210 HD
ENDBRANCH  11   2
BRANCH  12   3
ATOM      3  O   UNL     1      -6.260   4.004  25.831  0.00  0.00    -0.387 OA
ATOM     36  H   UNL     1      -5.920   4.566  26.548  0.00  0.00    +0.210 HD
ENDBRANCH  12   3
BRANCH  10  14
ATOM     14  C   UNL     1      -4.138  -0.001  25.971  0.00  0.00    +0.130 C 
BRANCH  14  16
ATOM      4  O   UNL     1      -3.806  -2.251  25.292  0.00  0.00    -0.276 OA
ATOM      7  N   UNL     1      -2.168  -0.723  24.674  0.00  0.00    -0.298 N 
ATOM      8  N   UNL     1       0.432  -0.095  23.567  0.00  0.00    -0.324 N 
ATOM     16  C   UNL     1      -3.364  -1.100  25.287  0.00  0.00    +0.218 C 
ATOM     17  C   UNL     1      -1.357  -1.732  23.995  0.00  0.00    +0.126 C 
ATOM     18  C   UNL     1      -1.645   0.645  24.668  0.00  0.00    +0.126 C 
ATOM     19  C   UNL     1       0.136  -1.428  24.100  0.00  0.00    +0.124 C 
ATOM     20  C   UNL     1      -0.649   0.894  23.535  0.00  0.00    +0.124 C 
BRANCH   8  21
ATOM     21  C   UNL     1       1.697   0.207  23.070  0.00  0.00    +0.072 A 
ATOM     23  C   UNL     1       2.107  -0.276  21.828  0.00  0.00    +0.141 A 
ATOM     24  C   UNL     1       2.558   1.000  23.829  0.00  0.00    +0.027 A 
ATOM     26  C   UNL     1       3.378   0.034  21.343  0.00  0.00    +0.047 A 
ATOM     27  C   UNL     1       3.830   1.310  23.344  0.00  0.00    +0.002 A 
ATOM     28  C   UNL     1       4.239   0.827  22.101  0.00  0.00    +0.004 A 
BRANCH  23   5
ATOM      5  O   UNL     1       1.281  -1.053  21.071  0.00  0.00    -0.493 OA
ATOM     31  C   UNL     1       0.155  -0.414  20.474  0.00  0.00    +0.277 C 
ENDBRANCH  23   5
ENDBRANCH   8  21
ENDBRANCH  14  16
ENDBRANCH  10  14
BRANCH  13  15
ATOM     15  C   UNL     1      -3.406   3.793  24.394  0.00  0.00    +0.138 C 
BRANCH  15   9
ATOM      6  O   UNL     1      -0.554   4.114  24.483  0.00  0.00    -0.270 OA
ATOM      9  N   UNL     1      -2.526   3.447  25.502  0.00  0.00    -0.309 N 
ATOM     22  C   UNL     1      -1.162   3.644  25.441  0.00  0.00    +0.244 C 
ATOM     37  H   UNL     1      -2.970   3.108  26.348  0.00  0.00    +0.149 HD
BRANCH  22  25
ATOM     25  C   UNL     1      -0.400   3.214  26.643  0.00  0.00    +0.037 A 
ATOM     29  C   UNL     1      -1.053   3.068  27.867  0.00  0.00    +0.013 A 
ATOM     30  C   UNL     1       0.967   2.955  26.546  0.00  0.00    +0.013 A 
ATOM     32  C   UNL     1      -0.339   2.663  28.994  0.00  0.00    +0.001 A 
ATOM     33  C   UNL     1       1.681   2.550  27.673  0.00  0.00    +0.001 A 
ATOM     34  C   UNL     1       1.029   2.403  28.898  0.00  0.00    +0.000 A 
ENDBRANCH  22  25
ENDBRANCH  15   9
ENDBRANCH  13  15
TORSDOF 9
ENDMDL
MODEL 6
REMARK VINA RESULT:       5.1      1.202      1.402
REMARK  Name = 40778210
REMARK  10 active torsions:
REMARK  status: ('A' for Active; 'I' for Inactive)
REMARK    1  A    between atoms: O_2  and  C_11
REMARK    2  A    between atoms: O_3  and  C_12
REMARK    3  A    between atoms: O_5  and  C_23
REMARK    4  A    between atoms: O_5  and  C_31
REMARK    5  A    between atoms: N_8  and  C_21
REMARK    6  A    between atoms: N_9  and  C_15
REMARK    7  A    between atoms: C_10  and  C_14
REMARK    8  A    between atoms: C_13  and  C_15
REMARK    9  A    between atoms: C_14  and  C_16
REMARK   10  A    between atoms: C_22  and  C_25
REMARK                            x       y       z     vdW  Elec       q    Type
REMARK                         _______ _______ _______ _____ _____    ______ ____
ROOT
ATOM      1  O   UNL     1      -2.400   3.701  24.146  0.00  0.00    -0.366 OA
ATOM     10  C   UNL     1      -2.599   4.856  24.993  0.00  0.00    +0.159 C 
ATOM     11  C   UNL     1      -1.210   5.334  25.404  0.00  0.00    +0.175 C 
ATOM     12  C   UNL     1      -0.411   4.047  25.367  0.00  0.00    +0.176 C 
ATOM     13  C   UNL     1      -1.003   3.356  24.149  0.00  0.00    +0.167 C 
ENDROOT
BRANCH  11   2
ATOM      2  O   UNL     1      -0.740   6.238  24.406  0.00  0.00    -0.387 OA
ATOM     35  H   UNL     1      -1.022   5.892  23.543  0.00  0.00    +0.210 HD
ENDBRANCH  11   2
BRANCH  12   3
ATOM      3  O   UNL     1       0.978   4.255  25.235  0.00  0.00    -0.387 OA
ATOM     36  H   UNL     1       1.406   3.873  26.019  0.00  0.00    +0.210 HD
ENDBRANCH  12   3
BRANCH  10  14
ATOM     14  C   UNL     1      -3.455   4.424  26.175  0.00  0.00    +0.130 C 
BRANCH  14  16
ATOM      4  O   UNL     1      -5.770   4.225  25.690  0.00  0.00    -0.276 OA
ATOM      7  N   UNL     1      -4.448   2.368  25.243  0.00  0.00    -0.298 N 
ATOM      8  N   UNL     1      -4.143  -0.417  24.515  0.00  0.00    -0.324 N 
ATOM     16  C   UNL     1      -4.668   3.673  25.685  0.00  0.00    +0.218 C 
ATOM     17  C   UNL     1      -5.573   1.571  24.759  0.00  0.00    +0.126 C 
ATOM     18  C   UNL     1      -3.137   1.714  25.237  0.00  0.00    +0.126 C 
ATOM     19  C   UNL     1      -5.400   0.088  25.075  0.00  0.00    +0.124 C 
ATOM     20  C   UNL     1      -3.065   0.541  24.258  0.00  0.00    +0.124 C 
BRANCH   8  21
ATOM     21  C   UNL     1      -3.995  -1.766  24.203  0.00  0.00    +0.072 A 
ATOM     23  C   UNL     1      -2.893  -2.485  24.665  0.00  0.00    +0.141 A 
ATOM     24  C   UNL     1      -4.962  -2.398  23.420  0.00  0.00    +0.027 A 
ATOM     26  C   UNL     1      -2.756  -3.837  24.344  0.00  0.00    +0.047 A 
ATOM     27  C   UNL     1      -4.825  -3.750  23.100  0.00  0.00    +0.002 A 
ATOM     28  C   UNL     1      -3.723  -4.468  23.561  0.00  0.00    +0.004 A 
BRANCH  23   5
ATOM      5  O   UNL     1      -1.936  -1.887  25.430  0.00  0.00    -0.493 OA
ATOM     31  C   UNL     1      -0.577  -2.157  25.097  0.00  0.00    +0.277 C 
ENDBRANCH  23   5
ENDBRANCH   8  21
ENDBRANCH  14  16
ENDBRANCH  10  14
BRANCH  13  15
ATOM     15  C   UNL     1      -0.849   1.846  24.179  0.00  0.00    +0.138 C 
BRANCH  15   9
ATOM      6  O   UNL     1       0.297  -0.087  22.394  0.00  0.00    -0.270 OA
ATOM      9  N   UNL     1       0.553   1.461  24.099  0.00  0.00    -0.309 N 
ATOM     22  C   UNL     1       1.001   0.516  23.199  0.00  0.00    +0.244 C 
ATOM     37  H   UNL     1       1.199   1.965  24.697  0.00  0.00    +0.149 HD
BRANCH  22  25
ATOM     25  C   UNL     1       2.455   0.215  23.261  0.00  0.00    +0.037 A 
ATOM     29  C   UNL     1       3.386   1.202  22.936  0.00  0.00    +0.013 A 
ATOM     30  C   UNL     1       2.889  -1.054  23.644  0.00  0.00    +0.013 A 
ATOM     32  C   UNL     1       4.751   0.920  22.996  0.00  0.00    +0.001 A 
ATOM     33  C   UNL     1       4.253  -1.336  23.705  0.00  0.00    +0.001 A 
ATOM     34  C   UNL     1       5.185  -0.350  23.381  0.00  0.00    +0.000 A 
ENDBRANCH  22  25
ENDBRANCH  15   9
ENDBRANCH  13  15
TORSDOF 9
ENDMDL
