MODEL 1
REMARK VINA RESULT:       1.4      0.000      0.000
REMARK  Name = 11941510
REMARK  5 active torsions:
REMARK  status: ('A' for Active; 'I' for Inactive)
REMARK    1  A    between atoms: O_3  and  C_26
REMARK    2  A    between atoms: O_3  and  C_27
REMARK    3  A    between atoms: N_5  and  C_8
REMARK    4  A    between atoms: C_17  and  C_19
REMARK    5  A    between atoms: C_20  and  C_21
REMARK                            x       y       z     vdW  Elec       q    Type
REMARK                         _______ _______ _______ _____ _____    ______ ____
ROOT
ATOM      1  O   UNL     1      -9.719 -10.780  11.708  0.00  0.00    -0.273 OA
ATOM      2  O   UNL     1      -5.974  -9.673   8.124  0.00  0.00    -0.270 OA
ATOM      4  N   UNL     1      -7.876  -9.272   9.357  0.00  0.00    -0.284 N 
ATOM      6  N   UNL     1      -7.457 -10.771  11.881  0.00  0.00    -0.283 N 
ATOM      7  C   UNL     1      -8.563  -8.975  10.603  0.00  0.00    +0.179 C 
ATOM      8  C   UNL     1      -9.943  -8.445  10.169  0.00  0.00    +0.082 C 
ATOM      9  C   UNL     1      -9.719  -7.977   8.733  0.00  0.00    +0.040 C 
ATOM     10  C   UNL     1      -8.728  -8.999   8.208  0.00  0.00    +0.110 C 
ATOM     11  C   UNL     1      -8.642 -10.265  11.397  0.00  0.00    +0.239 C 
ATOM     12  C   UNL     1      -6.532  -9.547   9.216  0.00  0.00    +0.249 C 
ATOM     13  C   UNL     1      -5.708  -9.708  10.441  0.00  0.00    +0.059 A 
ATOM     14  C   UNL     1      -6.139 -10.350  11.611  0.00  0.00    +0.046 A 
ATOM     15  C   UNL     1      -4.360  -9.321  10.323  0.00  0.00    +0.022 A 
ATOM     16  C   UNL     1      -5.194 -10.650  12.609  0.00  0.00    +0.024 A 
ATOM     17  C   UNL     1      -3.447  -9.584  11.343  0.00  0.00    -0.024 A 
ATOM     18  C   UNL     1      -3.861 -10.261  12.481  0.00  0.00    +0.010 A 
ATOM     30  H   UNL     1      -7.553 -11.490  12.596  0.00  0.00    +0.155 HD
ENDROOT
BRANCH   8   5
ATOM      5  N   UNL     1     -10.420  -7.394  11.024  0.00  0.00    -0.325 NA
ATOM     28  H   UNL     1      -9.749  -6.627  11.043  0.00  0.00    +0.119 HD
ATOM     29  H   UNL     1     -10.495  -7.724  11.986  0.00  0.00    +0.119 HD
ENDBRANCH   8   5
BRANCH  17  19
ATOM     19  C   UNL     1      -2.058  -9.175  11.204  0.00  0.00    +0.008 C 
ATOM     20  C   UNL     1      -1.371  -8.428  12.098  0.00  0.00    +0.008 C 
BRANCH  20  21
ATOM     21  C   UNL     1       0.042  -8.029  11.966  0.00  0.00    -0.025 A 
ATOM     22  C   UNL     1       0.524  -6.978  12.727  0.00  0.00    +0.011 A 
ATOM     23  C   UNL     1       0.859  -8.715  11.082  0.00  0.00    +0.011 A 
ATOM     24  C   UNL     1       1.861  -6.599  12.600  0.00  0.00    +0.046 A 
ATOM     25  C   UNL     1       2.197  -8.338  10.957  0.00  0.00    +0.046 A 
ATOM     26  C   UNL     1       2.697  -7.280  11.715  0.00  0.00    +0.120 A 
BRANCH  26   3
ATOM      3  O   UNL     1       4.002  -6.911  11.592  0.00  0.00    -0.495 OA
ATOM     27  C   UNL     1       4.903  -7.366  12.600  0.00  0.00    +0.277 C 
ENDBRANCH  26   3
ENDBRANCH  20  21
ENDBRANCH  17  19
TORSDOF 4
ENDMDL
MODEL 2
REMARK VINA RESULT:       3.7     15.679     16.707
REMARK  Name = 11941510
REMARK  5 active torsions:
REMARK  status: ('A' for Active; 'I' for Inactive)
REMARK    1  A    between atoms: O_3  and  C_26
REMARK    2  A    between atoms: O_3  and  C_27
REMARK    3  A    between atoms: N_5  and  C_8
REMARK    4  A    between atoms: C_17  and  C_19
REMARK    5  A    between atoms: C_20  and  C_21
REMARK                            x       y       z     vdW  Elec       q    Type
REMARK                         _______ _______ _______ _____ _____    ______ ____
ROOT
ATOM      1  O   UNL     1      -6.755   0.433  24.521  0.00  0.00    -0.273 OA
ATOM      2  O   UNL     1      -2.303   2.819  22.915  0.00  0.00    -0.270 OA
ATOM      4  N   UNL     1      -4.159   2.527  24.245  0.00  0.00    -0.284 N 
ATOM      6  N   UNL     1      -4.670  -0.394  24.176  0.00  0.00    -0.283 N 
ATOM      7  C   UNL     1      -4.916   1.809  25.257  0.00  0.00    +0.179 C 
ATOM      8  C   UNL     1      -5.962   2.826  25.752  0.00  0.00    +0.082 C 
ATOM      9  C   UNL     1      -5.362   4.179  25.377  0.00  0.00    +0.040 C 
ATOM     10  C   UNL     1      -4.672   3.876  24.060  0.00  0.00    +0.110 C 
ATOM     11  C   UNL     1      -5.533   0.596  24.588  0.00  0.00    +0.239 C 
ATOM     12  C   UNL     1      -2.968   2.119  23.680  0.00  0.00    +0.249 C 
ATOM     13  C   UNL     1      -2.457   0.763  24.003  0.00  0.00    +0.059 A 
ATOM     14  C   UNL     1      -3.261  -0.379  24.138  0.00  0.00    +0.046 A 
ATOM     15  C   UNL     1      -1.056   0.624  24.007  0.00  0.00    +0.022 A 
ATOM     16  C   UNL     1      -2.643  -1.641  24.205  0.00  0.00    +0.024 A 
ATOM     17  C   UNL     1      -0.460  -0.631  24.123  0.00  0.00    -0.024 A 
ATOM     18  C   UNL     1      -1.254  -1.765  24.209  0.00  0.00    +0.010 A 
ATOM     30  H   UNL     1      -5.108  -1.285  23.951  0.00  0.00    +0.155 HD
ENDROOT
BRANCH   8   5
ATOM      5  N   UNL     1      -6.218   2.708  27.161  0.00  0.00    -0.325 NA
ATOM     28  H   UNL     1      -6.381   1.732  27.405  0.00  0.00    +0.119 HD
ATOM     29  H   UNL     1      -7.074   3.204  27.409  0.00  0.00    +0.119 HD
ENDBRANCH   8   5
BRANCH  17  19
ATOM     19  C   UNL     1       0.989  -0.753  24.126  0.00  0.00    +0.008 C 
ATOM     20  C   UNL     1       1.836  -0.032  23.355  0.00  0.00    +0.008 C 
BRANCH  20  21
ATOM     21  C   UNL     1       3.305  -0.143  23.372  0.00  0.00    -0.025 A 
ATOM     22  C   UNL     1       3.892  -1.311  23.827  0.00  0.00    +0.011 A 
ATOM     23  C   UNL     1       4.070   0.926  22.932  0.00  0.00    +0.011 A 
ATOM     24  C   UNL     1       5.283  -1.416  23.845  0.00  0.00    +0.046 A 
ATOM     25  C   UNL     1       5.461   0.821  22.949  0.00  0.00    +0.046 A 
ATOM     26  C   UNL     1       6.067  -0.349  23.405  0.00  0.00    +0.120 A 
BRANCH  26   3
ATOM      3  O   UNL     1       7.425  -0.451  23.422  0.00  0.00    -0.495 OA
ATOM     27  C   UNL     1       8.040  -1.108  22.315  0.00  0.00    +0.277 C 
ENDBRANCH  26   3
ENDBRANCH  20  21
ENDBRANCH  17  19
TORSDOF 4
ENDMDL
