MODEL 1
REMARK VINA RESULT:       0.6      0.000      0.000
REMARK  Name = 71693625
REMARK  7 active torsions:
REMARK  status: ('A' for Active; 'I' for Inactive)
REMARK    1  A    between atoms: O_2  and  C_12
REMARK    2  A    between atoms: N_6  and  C_15
REMARK    3  A    between atoms: N_7  and  C_20
REMARK    4  A    between atoms: C_9  and  C_12
REMARK    5  A    between atoms: C_10  and  C_11
REMARK    6  A    between atoms: C_21  and  C_22
REMARK    7  A    between atoms: C_24  and  C_25
REMARK                            x       y       z     vdW  Elec       q    Type
REMARK                         _______ _______ _______ _____ _____    ______ ____
ROOT
ATOM     11  C   UNL     1      -2.116   1.204  24.120  0.00  0.00    -0.017 A 
ATOM     16  C   UNL     1      -1.732  -0.125  24.293  0.00  0.00    +0.008 A 
ATOM     17  C   UNL     1      -1.149   2.186  23.901  0.00  0.00    +0.008 A 
ATOM     18  C   UNL     1      -0.382  -0.474  24.249  0.00  0.00    +0.023 A 
ATOM     19  C   UNL     1       0.201   1.838  23.857  0.00  0.00    +0.023 A 
ATOM     20  C   UNL     1       0.585   0.508  24.030  0.00  0.00    +0.034 A 
ENDROOT
BRANCH  11  10
ATOM      1  O   UNL     1      -4.275   0.483  24.762  0.00  0.00    -0.361 OA
ATOM      3  O   UNL     1      -7.429   1.992  25.446  0.00  0.00    -0.273 OA
ATOM      6  N   UNL     1      -5.343   3.005  25.216  0.00  0.00    -0.295 N 
ATOM      9  C   UNL     1      -3.884   2.841  25.003  0.00  0.00    +0.134 C 
ATOM     10  C   UNL     1      -3.582   1.581  24.169  0.00  0.00    +0.171 C 
ATOM     13  C   UNL     1      -5.668   0.633  24.616  0.00  0.00    +0.256 C 
ATOM     14  C   UNL     1      -6.234   1.932  25.154  0.00  0.00    +0.242 C 
ATOM     15  C   UNL     1      -5.821   4.281  25.742  0.00  0.00    +0.132 C 
BRANCH   9  12
ATOM     12  C   UNL     1      -3.241   4.079  24.362  0.00  0.00    +0.181 C 
BRANCH  12   2
ATOM      2  O   UNL     1      -2.437   4.713  25.334  0.00  0.00    -0.393 OA
ATOM     26  H   UNL     1      -2.012   5.474  24.905  0.00  0.00    +0.209 HD
ENDBRANCH  12   2
ENDBRANCH   9  12
ENDBRANCH  11  10
BRANCH  20   7
ATOM      4  O   UNL     1       2.397   0.073  21.683  0.00  0.00    -0.268 OA
ATOM      7  N   UNL     1       1.935   0.161  23.986  0.00  0.00    -0.280 N 
ATOM     21  C   UNL     1       2.740  -0.031  22.855  0.00  0.00    +0.270 C 
ATOM     27  H   UNL     1       2.383   0.036  24.892  0.00  0.00    +0.155 HD
BRANCH  21  22
ATOM      5  O   UNL     1       5.844  -1.459  23.946  0.00  0.00    -0.359 OA
ATOM      8  N   UNL     1       4.456  -1.433  23.890  0.00  0.00    -0.073 NA
ATOM     22  C   UNL     1       4.160  -0.371  23.133  0.00  0.00    +0.168 A 
ATOM     23  C   UNL     1       5.310   0.303  22.689  0.00  0.00    +0.080 A 
ATOM     24  C   UNL     1       6.341  -0.419  23.227  0.00  0.00    +0.135 A 
ATOM     25  C   UNL     1       7.802  -0.295  23.179  0.00  0.00    +0.089 C 
ENDBRANCH  21  22
ENDBRANCH  20   7
TORSDOF 5
ENDMDL
MODEL 2
REMARK VINA RESULT:       1.5      1.378      2.292
REMARK  Name = 71693625
REMARK  7 active torsions:
REMARK  status: ('A' for Active; 'I' for Inactive)
REMARK    1  A    between atoms: O_2  and  C_12
REMARK    2  A    between atoms: N_6  and  C_15
REMARK    3  A    between atoms: N_7  and  C_20
REMARK    4  A    between atoms: C_9  and  C_12
REMARK    5  A    between atoms: C_10  and  C_11
REMARK    6  A    between atoms: C_21  and  C_22
REMARK    7  A    between atoms: C_24  and  C_25
REMARK                            x       y       z     vdW  Elec       q    Type
REMARK                         _______ _______ _______ _____ _____    ______ ____
ROOT
ATOM     11  C   UNL     1      -1.866   2.283  25.186  0.00  0.00    -0.017 A 
ATOM     16  C   UNL     1      -1.423   0.976  25.382  0.00  0.00    +0.008 A 
ATOM     17  C   UNL     1      -1.020   3.226  24.600  0.00  0.00    +0.008 A 
ATOM     18  C   UNL     1      -0.135   0.610  24.994  0.00  0.00    +0.023 A 
ATOM     19  C   UNL     1       0.268   2.860  24.213  0.00  0.00    +0.023 A 
ATOM     20  C   UNL     1       0.712   1.553  24.409  0.00  0.00    +0.034 A 
ENDROOT
BRANCH  11  10
ATOM      1  O   UNL     1      -3.384   4.087  25.392  0.00  0.00    -0.361 OA
ATOM      3  O   UNL     1      -6.910   4.502  25.692  0.00  0.00    -0.273 OA
ATOM      6  N   UNL     1      -5.707   2.596  25.100  0.00  0.00    -0.295 N 
ATOM      9  C   UNL     1      -4.388   1.981  24.815  0.00  0.00    +0.134 C 
ATOM     10  C   UNL     1      -3.266   2.679  25.608  0.00  0.00    +0.171 C 
ATOM     13  C   UNL     1      -4.555   4.588  25.992  0.00  0.00    +0.256 C 
ATOM     14  C   UNL     1      -5.839   3.906  25.562  0.00  0.00    +0.242 C 
ATOM     15  C   UNL     1      -6.905   1.888  24.653  0.00  0.00    +0.132 C 
BRANCH   9  12
ATOM     12  C   UNL     1      -4.374   0.469  25.079  0.00  0.00    +0.181 C 
BRANCH  12   2
ATOM      2  O   UNL     1      -4.046  -0.187  23.873  0.00  0.00    -0.393 OA
ATOM     26  H   UNL     1      -4.271   0.417  23.145  0.00  0.00    +0.209 HD
ENDBRANCH  12   2
ENDBRANCH   9  12
ENDBRANCH  11  10
BRANCH  20   7
ATOM      4  O   UNL     1       1.631  -0.304  22.242  0.00  0.00    -0.268 OA
ATOM      7  N   UNL     1       2.001   1.188  24.021  0.00  0.00    -0.280 N 
ATOM     21  C   UNL     1       2.378   0.310  22.995  0.00  0.00    +0.270 C 
ATOM     27  H   UNL     1       2.755   1.620  24.552  0.00  0.00    +0.155 HD
BRANCH  21  22
ATOM      5  O   UNL     1       5.741   0.094  21.768  0.00  0.00    -0.359 OA
ATOM      8  N   UNL     1       4.382   0.322  21.593  0.00  0.00    -0.073 NA
ATOM     22  C   UNL     1       3.843   0.145  22.804  0.00  0.00    +0.168 A 
ATOM     23  C   UNL     1       4.805  -0.192  23.771  0.00  0.00    +0.080 A 
ATOM     24  C   UNL     1       5.981  -0.211  23.070  0.00  0.00    +0.135 A 
ATOM     25  C   UNL     1       7.376  -0.483  23.433  0.00  0.00    +0.089 C 
ENDBRANCH  21  22
ENDBRANCH  20   7
TORSDOF 5
ENDMDL
