MODEL 1
REMARK VINA RESULT:      -3.0      0.000      0.000
REMARK  Name = 38030802
REMARK  14 active torsions:
REMARK  status: ('A' for Active; 'I' for Inactive)
REMARK    1  A    between atoms: O_2  and  C_28
REMARK    2  A    between atoms: O_2  and  C_29
REMARK    3  A    between atoms: N_3  and  C_13
REMARK    4  A    between atoms: N_3  and  C_19
REMARK    5  A    between atoms: C_6  and  C_10
REMARK    6  A    between atoms: C_7  and  C_13
REMARK    7  A    between atoms: C_9  and  C_14
REMARK    8  A    between atoms: C_10  and  C_15
REMARK    9  A    between atoms: C_10  and  C_16
REMARK   10  A    between atoms: C_11  and  C_17
REMARK   11  A    between atoms: C_14  and  C_18
REMARK   12  A    between atoms: C_19  and  C_20
REMARK   13  A    between atoms: C_19  and  C_21
REMARK   14  A    between atoms: C_22  and  C_23
REMARK                            x       y       z     vdW  Elec       q    Type
REMARK                         _______ _______ _______ _____ _____    ______ ____
ROOT
ATOM      6  C   UNL     1      -3.522   2.234  24.039  0.00  0.00    +0.000 C 
ATOM      7  C   UNL     1      -4.349   3.413  24.608  0.00  0.00    +0.029 C 
ATOM      8  C   UNL     1      -4.412   0.997  23.846  0.00  0.00    +0.012 C 
ATOM      9  C   UNL     1      -5.070   0.542  25.163  0.00  0.00    +0.024 C 
ATOM     11  C   UNL     1      -5.681   1.704  25.919  0.00  0.00    -0.073 C 
ATOM     12  C   UNL     1      -5.357   2.982  25.648  0.00  0.00    -0.023 C 
ATOM     17  C   UNL     1      -6.708   1.368  26.963  0.00  0.00    +0.039 C 
ENDROOT
BRANCH   6  10
ATOM     10  C   UNL     1      -2.848   2.600  22.713  0.00  0.00    -0.013 C 
ATOM     15  C   UNL     1      -2.470   1.339  21.943  0.00  0.00    +0.007 C 
ATOM     16  C   UNL     1      -3.763   3.491  21.879  0.00  0.00    +0.007 C 
ENDBRANCH   6  10
BRANCH   7  13
ATOM     13  C   UNL     1      -3.439   4.495  25.198  0.00  0.00    +0.089 C 
BRANCH  13   3
ATOM      3  N   UNL     1      -2.497   3.915  26.141  0.00  0.00    -0.313 NA
ATOM     30  H   UNL     1      -2.313   4.581  26.891  0.00  0.00    +0.122 HD
BRANCH   3  19
ATOM     19  C   UNL     1      -1.243   3.567  25.484  0.00  0.00    +0.047 C 
ATOM     20  C   UNL     1      -0.301   2.884  26.471  0.00  0.00    +0.023 C 
ATOM     21  C   UNL     1      -0.609   4.827  24.902  0.00  0.00    +0.023 C 
ENDBRANCH   3  19
ENDBRANCH  13   3
ENDBRANCH   7  13
BRANCH   9  14
ATOM     14  C   UNL     1      -4.074  -0.222  26.042  0.00  0.00    +0.105 C 
BRANCH  14  18
ATOM      1  O   UNL     1      -1.862  -0.038  25.026  0.00  0.00    -0.420 OA
ATOM      4  N   UNL     1      -2.882  -1.995  24.656  0.00  0.00    -0.112 NA
ATOM      5  N   UNL     1      -1.651  -2.030  24.028  0.00  0.00    -0.107 NA
ATOM     18  C   UNL     1      -2.962  -0.815  25.224  0.00  0.00    +0.218 A 
ATOM     22  C   UNL     1      -1.092  -0.867  24.271  0.00  0.00    +0.248 A 
BRANCH  22  23
ATOM     23  C   UNL     1       0.184  -0.346  23.871  0.00  0.00    +0.039 A 
ATOM     24  C   UNL     1       1.208  -1.216  23.498  0.00  0.00    +0.017 A 
ATOM     25  C   UNL     1       0.400   1.032  23.855  0.00  0.00    +0.017 A 
ATOM     26  C   UNL     1       2.447  -0.709  23.109  0.00  0.00    +0.046 A 
ATOM     27  C   UNL     1       1.639   1.539  23.465  0.00  0.00    +0.046 A 
ATOM     28  C   UNL     1       2.663   0.669  23.092  0.00  0.00    +0.120 A 
BRANCH  28   2
ATOM      2  O   UNL     1       3.872   1.163  22.710  0.00  0.00    -0.495 OA
ATOM     29  C   UNL     1       5.030   0.437  23.122  0.00  0.00    +0.277 C 
ENDBRANCH  28   2
ENDBRANCH  22  23
ENDBRANCH  14  18
ENDBRANCH   9  14
TORSDOF 8
ENDMDL
MODEL 2
REMARK VINA RESULT:       0.1      1.626      4.231
REMARK  Name = 38030802
REMARK  14 active torsions:
REMARK  status: ('A' for Active; 'I' for Inactive)
REMARK    1  A    between atoms: O_2  and  C_28
REMARK    2  A    between atoms: O_2  and  C_29
REMARK    3  A    between atoms: N_3  and  C_13
REMARK    4  A    between atoms: N_3  and  C_19
REMARK    5  A    between atoms: C_6  and  C_10
REMARK    6  A    between atoms: C_7  and  C_13
REMARK    7  A    between atoms: C_9  and  C_14
REMARK    8  A    between atoms: C_10  and  C_15
REMARK    9  A    between atoms: C_10  and  C_16
REMARK   10  A    between atoms: C_11  and  C_17
REMARK   11  A    between atoms: C_14  and  C_18
REMARK   12  A    between atoms: C_19  and  C_20
REMARK   13  A    between atoms: C_19  and  C_21
REMARK   14  A    between atoms: C_22  and  C_23
REMARK                            x       y       z     vdW  Elec       q    Type
REMARK                         _______ _______ _______ _____ _____    ______ ____
ROOT
ATOM      6  C   UNL     1      -4.346   2.569  25.317  0.00  0.00    +0.000 C 
ATOM      7  C   UNL     1      -4.673   1.326  24.453  0.00  0.00    +0.029 C 
ATOM      8  C   UNL     1      -3.997   3.768  24.421  0.00  0.00    +0.012 C 
ATOM      9  C   UNL     1      -2.793   3.479  23.504  0.00  0.00    +0.024 C 
ATOM     11  C   UNL     1      -2.918   2.134  22.817  0.00  0.00    -0.073 C 
ATOM     12  C   UNL     1      -3.773   1.189  23.248  0.00  0.00    -0.023 C 
ATOM     17  C   UNL     1      -2.069   1.917  21.595  0.00  0.00    +0.039 C 
ENDROOT
BRANCH   6  10
ATOM     10  C   UNL     1      -5.506   2.938  26.246  0.00  0.00    -0.013 C 
ATOM     15  C   UNL     1      -6.151   4.246  25.801  0.00  0.00    +0.007 C 
ATOM     16  C   UNL     1      -6.536   1.812  26.285  0.00  0.00    +0.007 C 
ENDBRANCH   6  10
BRANCH   7  13
ATOM     13  C   UNL     1      -4.608   0.041  25.286  0.00  0.00    +0.089 C 
BRANCH  13   3
ATOM      3  N   UNL     1      -3.288  -0.560  25.200  0.00  0.00    -0.313 NA
ATOM     30  H   UNL     1      -2.777  -0.146  24.421  0.00  0.00    +0.122 HD
BRANCH   3  19
ATOM     19  C   UNL     1      -3.380  -2.002  25.008  0.00  0.00    +0.047 C 
ATOM     20  C   UNL     1      -2.000  -2.586  24.719  0.00  0.00    +0.023 C 
ATOM     21  C   UNL     1      -4.351  -2.302  23.870  0.00  0.00    +0.023 C 
ENDBRANCH   3  19
ENDBRANCH  13   3
ENDBRANCH   7  13
BRANCH   9  14
ATOM     14  C   UNL     1      -1.474   3.580  24.278  0.00  0.00    +0.105 C 
BRANCH  14  18
ATOM      1  O   UNL     1       0.538   2.273  23.826  0.00  0.00    -0.420 OA
ATOM      4  N   UNL     1      -1.154   1.085  24.682  0.00  0.00    -0.112 NA
ATOM      5  N   UNL     1      -0.090   0.227  24.477  0.00  0.00    -0.107 NA
ATOM     18  C   UNL     1      -0.742   2.268  24.288  0.00  0.00    +0.218 A 
ATOM     22  C   UNL     1       0.875   0.964  23.977  0.00  0.00    +0.248 A 
BRANCH  22  23
ATOM     23  C   UNL     1       2.204   0.608  23.572  0.00  0.00    +0.039 A 
ATOM     24  C   UNL     1       3.045   1.570  23.014  0.00  0.00    +0.017 A 
ATOM     25  C   UNL     1       2.656  -0.701  23.738  0.00  0.00    +0.017 A 
ATOM     26  C   UNL     1       4.337   1.224  22.620  0.00  0.00    +0.046 A 
ATOM     27  C   UNL     1       3.949  -1.047  23.345  0.00  0.00    +0.046 A 
ATOM     28  C   UNL     1       4.790  -0.085  22.786  0.00  0.00    +0.120 A 
BRANCH  28   2
ATOM      2  O   UNL     1       6.052  -0.422  22.405  0.00  0.00    -0.495 OA
ATOM     29  C   UNL     1       7.076  -0.330  23.395  0.00  0.00    +0.277 C 
ENDBRANCH  28   2
ENDBRANCH  22  23
ENDBRANCH  14  18
ENDBRANCH   9  14
TORSDOF 8
ENDMDL
MODEL 3
REMARK VINA RESULT:       0.9      1.663      2.848
REMARK  Name = 38030802
REMARK  14 active torsions:
REMARK  status: ('A' for Active; 'I' for Inactive)
REMARK    1  A    between atoms: O_2  and  C_28
REMARK    2  A    between atoms: O_2  and  C_29
REMARK    3  A    between atoms: N_3  and  C_13
REMARK    4  A    between atoms: N_3  and  C_19
REMARK    5  A    between atoms: C_6  and  C_10
REMARK    6  A    between atoms: C_7  and  C_13
REMARK    7  A    between atoms: C_9  and  C_14
REMARK    8  A    between atoms: C_10  and  C_15
REMARK    9  A    between atoms: C_10  and  C_16
REMARK   10  A    between atoms: C_11  and  C_17
REMARK   11  A    between atoms: C_14  and  C_18
REMARK   12  A    between atoms: C_19  and  C_20
REMARK   13  A    between atoms: C_19  and  C_21
REMARK   14  A    between atoms: C_22  and  C_23
REMARK                            x       y       z     vdW  Elec       q    Type
REMARK                         _______ _______ _______ _____ _____    ______ ____
ROOT
ATOM      6  C   UNL     1      -1.567   3.766  24.780  0.00  0.00    +0.000 C 
ATOM      7  C   UNL     1      -1.752   3.373  26.266  0.00  0.00    +0.029 C 
ATOM      8  C   UNL     1      -2.849   4.410  24.231  0.00  0.00    +0.012 C 
ATOM      9  C   UNL     1      -4.066   3.471  24.340  0.00  0.00    +0.024 C 
ATOM     11  C   UNL     1      -4.162   2.831  25.711  0.00  0.00    -0.073 C 
ATOM     12  C   UNL     1      -3.122   2.809  26.563  0.00  0.00    -0.023 C 
ATOM     17  C   UNL     1      -5.497   2.258  26.097  0.00  0.00    +0.039 C 
ENDROOT
BRANCH   6  10
ATOM     10  C   UNL     1      -0.384   4.719  24.586  0.00  0.00    -0.013 C 
ATOM     15  C   UNL     1       0.138   4.637  23.156  0.00  0.00    +0.007 C 
ATOM     16  C   UNL     1      -0.790   6.148  24.933  0.00  0.00    +0.007 C 
ENDBRANCH   6  10
BRANCH   7  13
ATOM     13  C   UNL     1      -0.681   2.372  26.712  0.00  0.00    +0.089 C 
BRANCH  13   3
ATOM      3  N   UNL     1       0.541   3.062  27.089  0.00  0.00    -0.313 NA
ATOM     30  H   UNL     1       1.191   3.057  26.304  0.00  0.00    +0.122 HD
BRANCH   3  19
ATOM     19  C   UNL     1       1.169   2.425  28.241  0.00  0.00    +0.047 C 
ATOM     20  C   UNL     1       0.341   2.671  29.499  0.00  0.00    +0.023 C 
ATOM     21  C   UNL     1       2.588   2.961  28.406  0.00  0.00    +0.023 C 
ENDBRANCH   3  19
ENDBRANCH  13   3
ENDBRANCH   7  13
BRANCH   9  14
ATOM     14  C   UNL     1      -4.041   2.406  23.238  0.00  0.00    +0.105 C 
BRANCH  14  18
ATOM      1  O   UNL     1      -1.723   1.656  23.095  0.00  0.00    -0.420 OA
ATOM      4  N   UNL     1      -3.100   0.194  24.080  0.00  0.00    -0.112 NA
ATOM      5  N   UNL     1      -1.833  -0.357  24.066  0.00  0.00    -0.107 NA
ATOM     18  C   UNL     1      -2.989   1.367  23.503  0.00  0.00    +0.218 A 
ATOM     22  C   UNL     1      -1.062   0.531  23.482  0.00  0.00    +0.248 A 
BRANCH  22  23
ATOM     23  C   UNL     1       0.343   0.500  23.195  0.00  0.00    +0.039 A 
ATOM     24  C   UNL     1       0.846  -0.416  22.271  0.00  0.00    +0.017 A 
ATOM     25  C   UNL     1       1.206   1.385  23.840  0.00  0.00    +0.017 A 
ATOM     26  C   UNL     1       2.213  -0.446  21.993  0.00  0.00    +0.046 A 
ATOM     27  C   UNL     1       2.573   1.355  23.561  0.00  0.00    +0.046 A 
ATOM     28  C   UNL     1       3.076   0.439  22.637  0.00  0.00    +0.120 A 
BRANCH  28   2
ATOM      2  O   UNL     1       4.408   0.411  22.363  0.00  0.00    -0.495 OA
ATOM     29  C   UNL     1       5.285   0.066  23.436  0.00  0.00    +0.277 C 
ENDBRANCH  28   2
ENDBRANCH  22  23
ENDBRANCH  14  18
ENDBRANCH   9  14
TORSDOF 8
ENDMDL
