MODEL 1
REMARK VINA RESULT:      -3.6      0.000      0.000
REMARK  Name = 51137096
REMARK  3 active torsions:
REMARK  status: ('A' for Active; 'I' for Inactive)
REMARK    1  A    between atoms: N_1  and  C_4
REMARK    2  A    between atoms: C_5  and  C_14
REMARK    3  A    between atoms: C_19  and  C_21
REMARK                            x       y       z     vdW  Elec       q    Type
REMARK                         _______ _______ _______ _____ _____    ______ ____
ROOT
ATOM      1  N   UNL     1      -4.383 -10.221  10.656  0.00  0.00    -0.299 NA
ATOM      5  C   UNL     1      -6.652 -10.212  11.250  0.00  0.00    +0.070 C 
ATOM      6  C   UNL     1      -5.278 -10.727  11.700  0.00  0.00    +0.096 C 
ATOM      7  C   UNL     1      -4.824  -8.847  10.415  0.00  0.00    +0.085 C 
ATOM      8  C   UNL     1      -6.342  -8.978  10.385  0.00  0.00    +0.028 C 
ENDROOT
BRANCH   5  14
ATOM      2  N   UNL     1      -7.140  -9.913  13.694  0.00  0.00    -0.342 N 
ATOM      3  N   UNL     1      -8.889  -9.756  12.332  0.00  0.00    -0.232 NA
ATOM     14  C   UNL     1      -7.593  -9.957  12.405  0.00  0.00    +0.113 A 
ATOM     15  C   UNL     1      -8.217  -9.666  14.507  0.00  0.00    +0.066 A 
ATOM     16  C   UNL     1      -9.296  -9.572  13.634  0.00  0.00    +0.089 A 
ATOM     17  C   UNL     1      -8.335  -9.522  15.890  0.00  0.00    +0.031 A 
ATOM     18  C   UNL     1     -10.577  -9.320  14.152  0.00  0.00    +0.030 A 
ATOM     19  C   UNL     1      -9.617  -9.271  16.389  0.00  0.00    -0.048 A 
ATOM     20  C   UNL     1     -10.720  -9.171  15.538  0.00  0.00    +0.005 A 
ATOM     21  C   UNL     1      -9.808  -9.106  17.861  0.00  0.00    +0.044 C 
ATOM     22  H   UNL     1      -6.184 -10.039  13.998  0.00  0.00    +0.167 HD
ENDBRANCH   5  14
BRANCH   1   4
ATOM      4  C   UNL     1      -2.976 -10.293  11.046  0.00  0.00    +0.057 C 
ATOM      9  C   UNL     1      -2.866 -10.502  12.561  0.00  0.00    +0.019 C 
ATOM     10  C   UNL     1      -2.248  -9.018  10.610  0.00  0.00    +0.019 C 
ATOM     11  C   UNL     1      -1.408 -10.507  13.017  0.00  0.00    +0.002 C 
ATOM     12  C   UNL     1      -0.791  -9.024  11.069  0.00  0.00    +0.002 C 
ATOM     13  C   UNL     1      -0.675  -9.244  12.574  0.00  0.00    +0.000 C 
ENDBRANCH   1   4
TORSDOF 2
ENDMDL
MODEL 2
REMARK VINA RESULT:      -2.9      2.400      3.867
REMARK  Name = 51137096
REMARK  3 active torsions:
REMARK  status: ('A' for Active; 'I' for Inactive)
REMARK    1  A    between atoms: N_1  and  C_4
REMARK    2  A    between atoms: C_5  and  C_14
REMARK    3  A    between atoms: C_19  and  C_21
REMARK                            x       y       z     vdW  Elec       q    Type
REMARK                         _______ _______ _______ _____ _____    ______ ____
ROOT
ATOM      1  N   UNL     1      -1.469  -9.679  11.607  0.00  0.00    -0.299 NA
ATOM      5  C   UNL     1      -3.026 -10.781  12.971  0.00  0.00    +0.070 C 
ATOM      6  C   UNL     1      -1.754  -9.923  13.023  0.00  0.00    +0.096 C 
ATOM      7  C   UNL     1      -2.768  -9.376  11.007  0.00  0.00    +0.085 C 
ATOM      8  C   UNL     1      -3.681 -10.427  11.626  0.00  0.00    +0.028 C 
ENDROOT
BRANCH   5  14
ATOM      2  N   UNL     1      -5.221 -10.213  14.048  0.00  0.00    -0.342 N 
ATOM      3  N   UNL     1      -3.574 -10.755  15.438  0.00  0.00    -0.232 NA
ATOM     14  C   UNL     1      -3.914 -10.592  14.179  0.00  0.00    +0.113 A 
ATOM     15  C   UNL     1      -5.760 -10.127  15.306  0.00  0.00    +0.066 A 
ATOM     16  C   UNL     1      -4.712 -10.469  16.156  0.00  0.00    +0.089 A 
ATOM     17  C   UNL     1      -7.035  -9.789  15.760  0.00  0.00    +0.031 A 
ATOM     18  C   UNL     1      -4.931 -10.480  17.544  0.00  0.00    +0.030 A 
ATOM     19  C   UNL     1      -7.236  -9.804  17.144  0.00  0.00    -0.048 A 
ATOM     20  C   UNL     1      -6.205 -10.144  18.022  0.00  0.00    +0.005 A 
ATOM     21  C   UNL     1      -8.580  -9.452  17.691  0.00  0.00    +0.044 C 
ATOM     22  H   UNL     1      -5.707 -10.029  13.181  0.00  0.00    +0.167 HD
ENDBRANCH   5  14
BRANCH   1   4
ATOM      4  C   UNL     1      -0.500  -8.603  11.411  0.00  0.00    +0.057 C 
ATOM      9  C   UNL     1       0.814  -9.177  10.870  0.00  0.00    +0.019 C 
ATOM     10  C   UNL     1      -0.275  -7.858  12.731  0.00  0.00    +0.019 C 
ATOM     11  C   UNL     1       1.878  -8.090  10.724  0.00  0.00    +0.002 C 
ATOM     12  C   UNL     1       0.790  -6.774  12.584  0.00  0.00    +0.002 C 
ATOM     13  C   UNL     1       2.097  -7.338  12.034  0.00  0.00    +0.000 C 
ENDBRANCH   1   4
TORSDOF 2
ENDMDL
MODEL 3
REMARK VINA RESULT:      -2.8     15.432     17.952
REMARK  Name = 51137096
REMARK  3 active torsions:
REMARK  status: ('A' for Active; 'I' for Inactive)
REMARK    1  A    between atoms: N_1  and  C_4
REMARK    2  A    between atoms: C_5  and  C_14
REMARK    3  A    between atoms: C_19  and  C_21
REMARK                            x       y       z     vdW  Elec       q    Type
REMARK                         _______ _______ _______ _____ _____    ______ ____
ROOT
ATOM      1  N   UNL     1      -2.914   0.200  24.636  0.00  0.00    -0.299 NA
ATOM      5  C   UNL     1      -0.969  -0.527  23.547  0.00  0.00    +0.070 C 
ATOM      6  C   UNL     1      -1.772   0.735  23.890  0.00  0.00    +0.096 C 
ATOM      7  C   UNL     1      -2.342  -0.806  25.530  0.00  0.00    +0.085 C 
ATOM      8  C   UNL     1      -1.366  -1.548  24.626  0.00  0.00    +0.028 C 
ENDROOT
BRANCH   5  14
ATOM      2  N   UNL     1       1.433  -1.215  23.795  0.00  0.00    -0.342 N 
ATOM      3  N   UNL     1       1.091   0.832  23.000  0.00  0.00    -0.232 NA
ATOM     14  C   UNL     1       0.516  -0.267  23.434  0.00  0.00    +0.113 A 
ATOM     15  C   UNL     1       2.682  -0.692  23.580  0.00  0.00    +0.066 A 
ATOM     16  C   UNL     1       2.442   0.586  23.085  0.00  0.00    +0.089 A 
ATOM     17  C   UNL     1       3.962  -1.212  23.771  0.00  0.00    +0.031 A 
ATOM     18  C   UNL     1       3.532   1.409  22.754  0.00  0.00    +0.030 A 
ATOM     19  C   UNL     1       5.036  -0.380  23.438  0.00  0.00    -0.048 A 
ATOM     20  C   UNL     1       4.827   0.907  22.938  0.00  0.00    +0.005 A 
ATOM     21  C   UNL     1       6.432  -0.880  23.620  0.00  0.00    +0.044 C 
ATOM     22  H   UNL     1       1.230  -2.137  24.156  0.00  0.00    +0.167 HD
ENDBRANCH   5  14
BRANCH   1   4
ATOM      4  C   UNL     1      -3.642   1.241  25.360  0.00  0.00    +0.057 C 
ATOM      9  C   UNL     1      -5.126   1.199  24.978  0.00  0.00    +0.019 C 
ATOM     10  C   UNL     1      -3.031   2.612  25.056  0.00  0.00    +0.019 C 
ATOM     11  C   UNL     1      -5.907   2.322  25.659  0.00  0.00    +0.002 C 
ATOM     12  C   UNL     1      -3.814   3.734  25.736  0.00  0.00    +0.002 C 
ATOM     13  C   UNL     1      -5.295   3.690  25.368  0.00  0.00    +0.000 C 
ENDBRANCH   1   4
TORSDOF 2
ENDMDL
MODEL 4
REMARK VINA RESULT:      -1.3     15.253     16.821
REMARK  Name = 51137096
REMARK  3 active torsions:
REMARK  status: ('A' for Active; 'I' for Inactive)
REMARK    1  A    between atoms: N_1  and  C_4
REMARK    2  A    between atoms: C_5  and  C_14
REMARK    3  A    between atoms: C_19  and  C_21
REMARK                            x       y       z     vdW  Elec       q    Type
REMARK                         _______ _______ _______ _____ _____    ______ ____
ROOT
ATOM      1  N   UNL     1       1.982  -0.871  22.763  0.00  0.00    -0.299 NA
ATOM      5  C   UNL     1      -0.202  -0.372  23.460  0.00  0.00    +0.070 C 
ATOM      6  C   UNL     1       1.266  -0.295  23.904  0.00  0.00    +0.096 C 
ATOM      7  C   UNL     1       1.338  -0.293  21.583  0.00  0.00    +0.085 C 
ATOM      8  C   UNL     1      -0.144  -0.390  21.923  0.00  0.00    +0.028 C 
ENDROOT
BRANCH   5  14
ATOM      2  N   UNL     1      -2.414   0.728  23.901  0.00  0.00    -0.342 N 
ATOM      3  N   UNL     1      -0.636   1.760  24.744  0.00  0.00    -0.232 NA
ATOM     14  C   UNL     1      -1.055   0.726  24.050  0.00  0.00    +0.113 A 
ATOM     15  C   UNL     1      -2.904   1.838  24.541  0.00  0.00    +0.066 A 
ATOM     16  C   UNL     1      -1.775   2.466  25.058  0.00  0.00    +0.089 A 
ATOM     17  C   UNL     1      -4.198   2.331  24.705  0.00  0.00    +0.031 A 
ATOM     18  C   UNL     1      -1.926   3.658  25.786  0.00  0.00    +0.030 A 
ATOM     19  C   UNL     1      -4.332   3.519  25.432  0.00  0.00    -0.048 A 
ATOM     20  C   UNL     1      -3.218   4.172  25.964  0.00  0.00    +0.005 A 
ATOM     21  C   UNL     1      -5.692   4.098  25.643  0.00  0.00    +0.044 C 
ATOM     22  H   UNL     1      -2.964   0.038  23.407  0.00  0.00    +0.167 HD
ENDBRANCH   5  14
BRANCH   1   4
ATOM      4  C   UNL     1       3.416  -0.593  22.808  0.00  0.00    +0.057 C 
ATOM      9  C   UNL     1       4.074  -1.431  23.911  0.00  0.00    +0.019 C 
ATOM     10  C   UNL     1       3.650   0.904  23.038  0.00  0.00    +0.019 C 
ATOM     11  C   UNL     1       5.562  -1.111  24.039  0.00  0.00    +0.002 C 
ATOM     12  C   UNL     1       5.137   1.222  23.168  0.00  0.00    +0.002 C 
ATOM     13  C   UNL     1       5.800   0.381  24.256  0.00  0.00    +0.000 C 
ENDBRANCH   1   4
TORSDOF 2
ENDMDL
MODEL 5
REMARK VINA RESULT:      -0.5     15.422     18.228
REMARK  Name = 51137096
REMARK  3 active torsions:
REMARK  status: ('A' for Active; 'I' for Inactive)
REMARK    1  A    between atoms: N_1  and  C_4
REMARK    2  A    between atoms: C_5  and  C_14
REMARK    3  A    between atoms: C_19  and  C_21
REMARK                            x       y       z     vdW  Elec       q    Type
REMARK                         _______ _______ _______ _____ _____    ______ ____
ROOT
ATOM      1  N   UNL     1      -2.355   1.433  23.604  0.00  0.00    -0.299 NA
ATOM      5  C   UNL     1      -0.567   0.064  22.948  0.00  0.00    +0.070 C 
ATOM      6  C   UNL     1      -0.976   1.533  23.117  0.00  0.00    +0.096 C 
ATOM      7  C   UNL     1      -2.327   0.358  24.596  0.00  0.00    +0.085 C 
ATOM      8  C   UNL     1      -1.479  -0.710  23.916  0.00  0.00    +0.028 C 
ENDROOT
BRANCH   5  14
ATOM      2  N   UNL     1       1.825   0.825  22.902  0.00  0.00    -0.342 N 
ATOM      3  N   UNL     1       1.488  -1.268  23.570  0.00  0.00    -0.232 NA
ATOM     14  C   UNL     1       0.913  -0.163  23.152  0.00  0.00    +0.113 A 
ATOM     15  C   UNL     1       3.071   0.323  23.178  0.00  0.00    +0.066 A 
ATOM     16  C   UNL     1       2.834  -0.984  23.592  0.00  0.00    +0.089 A 
ATOM     17  C   UNL     1       4.346   0.885  23.102  0.00  0.00    +0.031 A 
ATOM     18  C   UNL     1       3.922  -1.795  23.958  0.00  0.00    +0.030 A 
ATOM     19  C   UNL     1       5.418   0.064  23.468  0.00  0.00    -0.048 A 
ATOM     20  C   UNL     1       5.212  -1.252  23.889  0.00  0.00    +0.005 A 
ATOM     21  C   UNL     1       6.808   0.607  23.409  0.00  0.00    +0.044 C 
ATOM     22  H   UNL     1       1.621   1.758  22.572  0.00  0.00    +0.167 HD
ENDBRANCH   5  14
BRANCH   1   4
ATOM      4  C   UNL     1      -2.841   2.693  24.162  0.00  0.00    +0.057 C 
ATOM      9  C   UNL     1      -1.752   3.331  25.033  0.00  0.00    +0.019 C 
ATOM     10  C   UNL     1      -4.120   2.447  24.968  0.00  0.00    +0.019 C 
ATOM     11  C   UNL     1      -2.251   4.614  25.696  0.00  0.00    +0.002 C 
ATOM     12  C   UNL     1      -4.616   3.730  25.631  0.00  0.00    +0.002 C 
ATOM     13  C   UNL     1      -3.532   4.376  26.490  0.00  0.00    +0.000 C 
ENDBRANCH   1   4
TORSDOF 2
ENDMDL
MODEL 6
REMARK VINA RESULT:      -0.5     14.754     16.264
REMARK  Name = 51137096
REMARK  3 active torsions:
REMARK  status: ('A' for Active; 'I' for Inactive)
REMARK    1  A    between atoms: N_1  and  C_4
REMARK    2  A    between atoms: C_5  and  C_14
REMARK    3  A    between atoms: C_19  and  C_21
REMARK                            x       y       z     vdW  Elec       q    Type
REMARK                         _______ _______ _______ _____ _____    ______ ____
ROOT
ATOM      1  N   UNL     1       1.774  -0.809  23.196  0.00  0.00    -0.299 NA
ATOM      5  C   UNL     1      -0.565  -0.848  23.359  0.00  0.00    +0.070 C 
ATOM      6  C   UNL     1       0.709  -0.630  24.186  0.00  0.00    +0.096 C 
ATOM      7  C   UNL     1       1.308  -0.095  22.007  0.00  0.00    +0.085 C 
ATOM      8  C   UNL     1      -0.156  -0.510  21.915  0.00  0.00    +0.028 C 
ENDROOT
BRANCH   5  14
ATOM      2  N   UNL     1      -1.740   1.300  23.916  0.00  0.00    -0.342 N 
ATOM      3  N   UNL     1      -2.874  -0.562  24.345  0.00  0.00    -0.232 NA
ATOM     14  C   UNL     1      -1.749  -0.067  23.882  0.00  0.00    +0.113 A 
ATOM     15  C   UNL     1      -2.940   1.713  24.435  0.00  0.00    +0.066 A 
ATOM     16  C   UNL     1      -3.630   0.533  24.695  0.00  0.00    +0.089 A 
ATOM     17  C   UNL     1      -3.465   2.980  24.691  0.00  0.00    +0.031 A 
ATOM     18  C   UNL     1      -4.921   0.601  25.244  0.00  0.00    +0.030 A 
ATOM     19  C   UNL     1      -4.751   3.030  25.238  0.00  0.00    -0.048 A 
ATOM     20  C   UNL     1      -5.468   1.863  25.510  0.00  0.00    +0.005 A 
ATOM     21  C   UNL     1      -5.368   4.357  25.535  0.00  0.00    +0.044 C 
ATOM     22  H   UNL     1      -0.986   1.902  23.613  0.00  0.00    +0.167 HD
ENDBRANCH   5  14
BRANCH   1   4
ATOM      4  C   UNL     1       3.065  -0.315  23.672  0.00  0.00    +0.057 C 
ATOM      9  C   UNL     1       3.610   0.736  22.698  0.00  0.00    +0.019 C 
ATOM     10  C   UNL     1       4.044  -1.483  23.830  0.00  0.00    +0.019 C 
ATOM     11  C   UNL     1       4.995   1.221  23.123  0.00  0.00    +0.002 C 
ATOM     12  C   UNL     1       5.428  -0.996  24.252  0.00  0.00    +0.002 C 
ATOM     13  C   UNL     1       5.971   0.060  23.293  0.00  0.00    +0.000 C 
ENDBRANCH   1   4
TORSDOF 2
ENDMDL
MODEL 7
REMARK VINA RESULT:       0.3     14.838     16.466
REMARK  Name = 51137096
REMARK  3 active torsions:
REMARK  status: ('A' for Active; 'I' for Inactive)
REMARK    1  A    between atoms: N_1  and  C_4
REMARK    2  A    between atoms: C_5  and  C_14
REMARK    3  A    between atoms: C_19  and  C_21
REMARK                            x       y       z     vdW  Elec       q    Type
REMARK                         _______ _______ _______ _____ _____    ______ ____
ROOT
ATOM      1  N   UNL     1       0.660  -0.928  23.976  0.00  0.00    -0.299 NA
ATOM      5  C   UNL     1      -1.383  -0.601  25.080  0.00  0.00    +0.070 C 
ATOM      6  C   UNL     1      -0.094   0.122  24.666  0.00  0.00    +0.096 C 
ATOM      7  C   UNL     1      -0.327  -1.615  23.142  0.00  0.00    +0.085 C 
ATOM      8  C   UNL     1      -1.521  -1.760  24.078  0.00  0.00    +0.028 C 
ENDROOT
BRANCH   5  14
ATOM      2  N   UNL     1      -2.427   1.678  25.225  0.00  0.00    -0.342 N 
ATOM      3  N   UNL     1      -3.844  -0.032  25.151  0.00  0.00    -0.232 NA
ATOM     14  C   UNL     1      -2.579   0.322  25.151  0.00  0.00    +0.113 A 
ATOM     15  C   UNL     1      -3.678   2.237  25.275  0.00  0.00    +0.066 A 
ATOM     16  C   UNL     1      -4.545   1.150  25.228  0.00  0.00    +0.089 A 
ATOM     17  C   UNL     1      -4.111   3.561  25.356  0.00  0.00    +0.031 A 
ATOM     18  C   UNL     1      -5.931   1.377  25.263  0.00  0.00    +0.030 A 
ATOM     19  C   UNL     1      -5.494   3.769  25.390  0.00  0.00    -0.048 A 
ATOM     20  C   UNL     1      -6.389   2.699  25.344  0.00  0.00    +0.005 A 
ATOM     21  C   UNL     1      -6.021   5.164  25.475  0.00  0.00    +0.044 C 
ATOM     22  H   UNL     1      -1.551   2.183  25.239  0.00  0.00    +0.167 HD
ENDBRANCH   5  14
BRANCH   1   4
ATOM      4  C   UNL     1       1.773  -0.393  23.195  0.00  0.00    +0.057 C 
ATOM      9  C   UNL     1       3.061  -1.150  23.538  0.00  0.00    +0.019 C 
ATOM     10  C   UNL     1       1.926   1.107  23.465  0.00  0.00    +0.019 C 
ATOM     11  C   UNL     1       4.263  -0.568  22.797  0.00  0.00    +0.002 C 
ATOM     12  C   UNL     1       3.129   1.687  22.725  0.00  0.00    +0.002 C 
ATOM     13  C   UNL     1       4.412   0.929  23.053  0.00  0.00    +0.000 C 
ENDBRANCH   1   4
TORSDOF 2
ENDMDL
