MODEL 1
REMARK VINA RESULT:      -2.4      0.000      0.000
REMARK  Name = 28960454
REMARK  8 active torsions:
REMARK  status: ('A' for Active; 'I' for Inactive)
REMARK    1  A    between atoms: O_3  and  C_10
REMARK    2  A    between atoms: O_5  and  C_22
REMARK    3  A    between atoms: O_5  and  C_30
REMARK    4  A    between atoms: N_6  and  C_9
REMARK    5  A    between atoms: N_7  and  C_11
REMARK    6  A    between atoms: N_7  and  C_19
REMARK    7  A    between atoms: N_8  and  C_20
REMARK    8  A    between atoms: C_19  and  C_21
REMARK                            x       y       z     vdW  Elec       q    Type
REMARK                         _______ _______ _______ _____ _____    ______ ____
ROOT
ATOM      1  O   UNL     1      13.721  -6.507  30.229  0.00  0.00    -0.343 OA
ATOM      2  O   UNL     1      13.968  -6.680  32.528  0.00  0.00    -0.347 OA
ATOM      9  C   UNL     1      15.923  -6.926  31.127  0.00  0.00    +0.143 C 
ATOM     10  C   UNL     1      15.688  -8.451  31.031  0.00  0.00    +0.156 C 
ATOM     11  C   UNL     1      14.352  -8.838  30.351  0.00  0.00    +0.116 C 
ATOM     12  C   UNL     1      13.235  -7.800  30.605  0.00  0.00    +0.166 C 
ATOM     13  C   UNL     1      14.586  -6.188  31.327  0.00  0.00    +0.270 C 
ATOM     14  C   UNL     1      12.930  -7.561  32.074  0.00  0.00    +0.196 C 
ENDROOT
BRANCH   9   6
ATOM      6  N   UNL     1      16.593  -6.428  29.925  0.00  0.00    -0.290 NA
ATOM      8  N   UNL     1      16.769  -5.534  27.218  0.00  0.00    -0.325 N 
ATOM     15  C   UNL     1      16.052  -5.120  29.538  0.00  0.00    +0.104 C 
ATOM     16  C   UNL     1      16.440  -7.380  28.818  0.00  0.00    +0.104 C 
ATOM     17  C   UNL     1      16.783  -4.561  28.315  0.00  0.00    +0.120 C 
ATOM     18  C   UNL     1      17.186  -6.897  27.571  0.00  0.00    +0.120 C 
BRANCH   8  20
ATOM     20  C   UNL     1      16.981  -5.102  25.904  0.00  0.00    +0.072 A 
ATOM     22  C   UNL     1      17.086  -3.742  25.612  0.00  0.00    +0.141 A 
ATOM     23  C   UNL     1      17.087  -6.045  24.881  0.00  0.00    +0.027 A 
ATOM     25  C   UNL     1      17.298  -3.326  24.298  0.00  0.00    +0.047 A 
ATOM     26  C   UNL     1      17.300  -5.629  23.568  0.00  0.00    +0.002 A 
ATOM     27  C   UNL     1      17.405  -4.269  23.276  0.00  0.00    +0.004 A 
BRANCH  22   5
ATOM      5  O   UNL     1      16.984  -2.805  26.596  0.00  0.00    -0.493 OA
ATOM     30  C   UNL     1      16.874  -1.443  26.185  0.00  0.00    +0.277 C 
ENDBRANCH  22   5
ENDBRANCH   8  20
ENDBRANCH   9   6
BRANCH  10   3
ATOM      3  O   UNL     1      15.688  -8.974  32.367  0.00  0.00    -0.388 OA
ATOM     32  H   UNL     1      16.188  -9.808  32.355  0.00  0.00    +0.210 HD
ENDBRANCH  10   3
BRANCH  11   7
ATOM      7  N   UNL     1      14.531  -8.971  28.901  0.00  0.00    -0.302 NA
ATOM     31  H   UNL     1      13.735  -8.548  28.422  0.00  0.00    +0.123 HD
BRANCH   7  19
ATOM     19  C   UNL     1      14.610 -10.371  28.524  0.00  0.00    +0.156 C 
BRANCH  19  21
ATOM      4  O   UNL     1      13.953 -10.632  26.195  0.00  0.00    -0.467 OA
ATOM     21  C   UNL     1      14.984 -10.541  27.075  0.00  0.00    +0.119 A 
ATOM     24  C   UNL     1      16.189 -10.628  26.418  0.00  0.00    +0.046 A 
ATOM     28  C   UNL     1      15.879 -10.781  25.047  0.00  0.00    +0.041 A 
ATOM     29  C   UNL     1      14.507 -10.778  24.963  0.00  0.00    +0.195 A 
ENDBRANCH  19  21
ENDBRANCH   7  19
ENDBRANCH  11   7
TORSDOF 7
ENDMDL
MODEL 2
REMARK VINA RESULT:      -2.3      2.421      5.110
REMARK  Name = 28960454
REMARK  8 active torsions:
REMARK  status: ('A' for Active; 'I' for Inactive)
REMARK    1  A    between atoms: O_3  and  C_10
REMARK    2  A    between atoms: O_5  and  C_22
REMARK    3  A    between atoms: O_5  and  C_30
REMARK    4  A    between atoms: N_6  and  C_9
REMARK    5  A    between atoms: N_7  and  C_11
REMARK    6  A    between atoms: N_7  and  C_19
REMARK    7  A    between atoms: N_8  and  C_20
REMARK    8  A    between atoms: C_19  and  C_21
REMARK                            x       y       z     vdW  Elec       q    Type
REMARK                         _______ _______ _______ _____ _____    ______ ____
ROOT
ATOM      1  O   UNL     1      14.825  -4.645  30.055  0.00  0.00    -0.343 OA
ATOM      2  O   UNL     1      15.910  -2.939  31.191  0.00  0.00    -0.347 OA
ATOM      9  C   UNL     1      17.194  -4.858  30.472  0.00  0.00    +0.143 C 
ATOM     10  C   UNL     1      16.908  -5.577  31.810  0.00  0.00    +0.156 C 
ATOM     11  C   UNL     1      15.407  -5.860  32.062  0.00  0.00    +0.116 C 
ATOM     12  C   UNL     1      14.488  -4.785  31.438  0.00  0.00    +0.166 C 
ATOM     13  C   UNL     1      16.045  -3.893  30.124  0.00  0.00    +0.270 C 
ATOM     14  C   UNL     1      14.759  -3.374  31.931  0.00  0.00    +0.196 C 
ENDROOT
BRANCH   9   6
ATOM      6  N   UNL     1      17.377  -5.827  29.391  0.00  0.00    -0.290 NA
ATOM      8  N   UNL     1      16.569  -7.817  27.508  0.00  0.00    -0.325 N 
ATOM     15  C   UNL     1      16.562  -5.461  28.228  0.00  0.00    +0.104 C 
ATOM     16  C   UNL     1      17.022  -7.177  29.845  0.00  0.00    +0.104 C 
ATOM     17  C   UNL     1      16.787  -6.435  27.068  0.00  0.00    +0.120 C 
ATOM     18  C   UNL     1      17.264  -8.210  28.741  0.00  0.00    +0.120 C 
BRANCH   8  20
ATOM     20  C   UNL     1      16.295  -8.811  26.563  0.00  0.00    +0.072 A 
ATOM     22  C   UNL     1      15.336  -9.791  26.819  0.00  0.00    +0.141 A 
ATOM     23  C   UNL     1      16.992  -8.817  25.354  0.00  0.00    +0.027 A 
ATOM     25  C   UNL     1      15.073 -10.775  25.866  0.00  0.00    +0.047 A 
ATOM     26  C   UNL     1      16.728  -9.800  24.402  0.00  0.00    +0.002 A 
ATOM     27  C   UNL     1      15.769 -10.780  24.658  0.00  0.00    +0.004 A 
BRANCH  22   5
ATOM      5  O   UNL     1      14.645  -9.804  27.994  0.00  0.00    -0.493 OA
ATOM     30  C   UNL     1      15.066 -10.743  28.982  0.00  0.00    +0.277 C 
ENDBRANCH  22   5
ENDBRANCH   8  20
ENDBRANCH   9   6
BRANCH  10   3
ATOM      3  O   UNL     1      17.396  -4.737  32.867  0.00  0.00    -0.388 OA
ATOM     32  H   UNL     1      16.630  -4.294  33.268  0.00  0.00    +0.210 HD
ENDBRANCH  10   3
BRANCH  11   7
ATOM      7  N   UNL     1      15.028  -7.164  31.504  0.00  0.00    -0.302 NA
ATOM     31  H   UNL     1      14.299  -7.032  30.803  0.00  0.00    +0.123 HD
BRANCH   7  19
ATOM     19  C   UNL     1      14.518  -8.035  32.548  0.00  0.00    +0.156 C 
BRANCH  19  21
ATOM      4  O   UNL     1      12.141  -7.526  32.421  0.00  0.00    -0.467 OA
ATOM     21  C   UNL     1      13.104  -8.473  32.272  0.00  0.00    +0.119 A 
ATOM     24  C   UNL     1      12.549  -9.670  31.885  0.00  0.00    +0.046 A 
ATOM     28  C   UNL     1      11.156  -9.445  31.790  0.00  0.00    +0.041 A 
ATOM     29  C   UNL     1      10.958  -8.126  32.126  0.00  0.00    +0.195 A 
ENDBRANCH  19  21
ENDBRANCH   7  19
ENDBRANCH  11   7
TORSDOF 7
ENDMDL
MODEL 3
REMARK VINA RESULT:      -0.3      1.384      2.095
REMARK  Name = 28960454
REMARK  8 active torsions:
REMARK  status: ('A' for Active; 'I' for Inactive)
REMARK    1  A    between atoms: O_3  and  C_10
REMARK    2  A    between atoms: O_5  and  C_22
REMARK    3  A    between atoms: O_5  and  C_30
REMARK    4  A    between atoms: N_6  and  C_9
REMARK    5  A    between atoms: N_7  and  C_11
REMARK    6  A    between atoms: N_7  and  C_19
REMARK    7  A    between atoms: N_8  and  C_20
REMARK    8  A    between atoms: C_19  and  C_21
REMARK                            x       y       z     vdW  Elec       q    Type
REMARK                         _______ _______ _______ _____ _____    ______ ____
ROOT
ATOM      1  O   UNL     1      12.689  -6.194  30.102  0.00  0.00    -0.343 OA
ATOM      2  O   UNL     1      12.579  -6.033  32.413  0.00  0.00    -0.347 OA
ATOM      9  C   UNL     1      14.722  -6.462  31.377  0.00  0.00    +0.143 C 
ATOM     10  C   UNL     1      14.482  -7.987  31.465  0.00  0.00    +0.156 C 
ATOM     11  C   UNL     1      13.260  -8.478  30.652  0.00  0.00    +0.116 C 
ATOM     12  C   UNL     1      12.132  -7.423  30.581  0.00  0.00    +0.166 C 
ATOM     13  C   UNL     1      13.380  -5.713  31.262  0.00  0.00    +0.270 C 
ATOM     14  C   UNL     1      11.610  -6.979  31.935  0.00  0.00    +0.196 C 
ENDROOT
BRANCH   9   6
ATOM      6  N   UNL     1      15.575  -6.136  30.234  0.00  0.00    -0.290 NA
ATOM      8  N   UNL     1      16.181  -5.080  27.650  0.00  0.00    -0.325 N 
ATOM     15  C   UNL     1      15.609  -4.686  30.013  0.00  0.00    +0.104 C 
ATOM     16  C   UNL     1      15.094  -6.814  29.023  0.00  0.00    +0.104 C 
ATOM     17  C   UNL     1      16.543  -4.326  28.855  0.00  0.00    +0.120 C 
ATOM     18  C   UNL     1      16.012  -6.527  27.832  0.00  0.00    +0.120 C 
BRANCH   8  20
ATOM     20  C   UNL     1      16.591  -4.619  26.394  0.00  0.00    +0.072 A 
ATOM     22  C   UNL     1      16.844  -5.515  25.356  0.00  0.00    +0.141 A 
ATOM     23  C   UNL     1      16.746  -3.248  26.185  0.00  0.00    +0.027 A 
ATOM     25  C   UNL     1      17.251  -5.041  24.109  0.00  0.00    +0.047 A 
ATOM     26  C   UNL     1      17.152  -2.774  24.938  0.00  0.00    +0.002 A 
ATOM     27  C   UNL     1      17.405  -3.671  23.900  0.00  0.00    +0.004 A 
BRANCH  22   5
ATOM      5  O   UNL     1      16.700  -6.858  25.540  0.00  0.00    -0.493 OA
ATOM     30  C   UNL     1      17.277  -7.712  24.554  0.00  0.00    +0.277 C 
ENDBRANCH  22   5
ENDBRANCH   8  20
ENDBRANCH   9   6
BRANCH  10   3
ATOM      3  O   UNL     1      14.271  -8.313  32.847  0.00  0.00    -0.388 OA
ATOM     32  H   UNL     1      13.840  -9.184  32.881  0.00  0.00    +0.210 HD
ENDBRANCH  10   3
BRANCH  11   7
ATOM      7  N   UNL     1      13.657  -8.816  29.280  0.00  0.00    -0.302 NA
ATOM     31  H   UNL     1      12.846  -9.168  28.771  0.00  0.00    +0.123 HD
BRANCH   7  19
ATOM     19  C   UNL     1      14.685  -9.843  29.286  0.00  0.00    +0.156 C 
BRANCH  19  21
ATOM      4  O   UNL     1      16.444 -10.369  27.689  0.00  0.00    -0.467 OA
ATOM     21  C   UNL     1      15.109 -10.219  27.891  0.00  0.00    +0.119 A 
ATOM     24  C   UNL     1      14.414 -10.454  26.728  0.00  0.00    +0.046 A 
ATOM     28  C   UNL     1      15.385 -10.770  25.748  0.00  0.00    +0.041 A 
ATOM     29  C   UNL     1      16.603 -10.704  26.382  0.00  0.00    +0.195 A 
ENDBRANCH  19  21
ENDBRANCH   7  19
ENDBRANCH  11   7
TORSDOF 7
ENDMDL
MODEL 4
REMARK VINA RESULT:       0.2     18.945     20.196
REMARK  Name = 28960454
REMARK  8 active torsions:
REMARK  status: ('A' for Active; 'I' for Inactive)
REMARK    1  A    between atoms: O_3  and  C_10
REMARK    2  A    between atoms: O_5  and  C_22
REMARK    3  A    between atoms: O_5  and  C_30
REMARK    4  A    between atoms: N_6  and  C_9
REMARK    5  A    between atoms: N_7  and  C_11
REMARK    6  A    between atoms: N_7  and  C_19
REMARK    7  A    between atoms: N_8  and  C_20
REMARK    8  A    between atoms: C_19  and  C_21
REMARK                            x       y       z     vdW  Elec       q    Type
REMARK                         _______ _______ _______ _____ _____    ______ ____
ROOT
ATOM      1  O   UNL     1      -4.026   3.624  23.938  0.00  0.00    -0.343 OA
ATOM      2  O   UNL     1      -4.979   5.229  25.314  0.00  0.00    -0.347 OA
ATOM      9  C   UNL     1      -2.794   4.360  25.880  0.00  0.00    +0.143 C 
ATOM     10  C   UNL     1      -3.437   3.240  26.730  0.00  0.00    +0.156 C 
ATOM     11  C   UNL     1      -4.329   2.269  25.918  0.00  0.00    +0.116 C 
ATOM     12  C   UNL     1      -5.024   2.962  24.723  0.00  0.00    +0.166 C 
ATOM     13  C   UNL     1      -3.740   4.779  24.739  0.00  0.00    +0.270 C 
ATOM     14  C   UNL     1      -5.896   4.143  25.110  0.00  0.00    +0.196 C 
ENDROOT
BRANCH   9   6
ATOM      6  N   UNL     1      -1.511   3.922  25.329  0.00  0.00    -0.290 NA
ATOM      8  N   UNL     1       0.325   2.086  24.138  0.00  0.00    -0.325 N 
ATOM     15  C   UNL     1      -1.662   3.527  23.924  0.00  0.00    +0.104 C 
ATOM     16  C   UNL     1      -0.973   2.800  26.108  0.00  0.00    +0.104 C 
ATOM     17  C   UNL     1      -0.316   3.119  23.318  0.00  0.00    +0.120 C 
ATOM     18  C   UNL     1       0.397   2.369  25.577  0.00  0.00    +0.120 C 
BRANCH   8  20
ATOM     20  C   UNL     1       1.315   1.271  23.577  0.00  0.00    +0.072 A 
ATOM     22  C   UNL     1       1.060  -0.073  23.307  0.00  0.00    +0.141 A 
ATOM     23  C   UNL     1       2.567   1.815  23.288  0.00  0.00    +0.027 A 
ATOM     25  C   UNL     1       2.056  -0.873  22.747  0.00  0.00    +0.047 A 
ATOM     26  C   UNL     1       3.562   1.016  22.728  0.00  0.00    +0.002 A 
ATOM     27  C   UNL     1       3.307  -0.329  22.458  0.00  0.00    +0.004 A 
BRANCH  22   5
ATOM      5  O   UNL     1      -0.156  -0.624  23.583  0.00  0.00    -0.493 OA
ATOM     30  C   UNL     1      -0.297  -1.285  24.839  0.00  0.00    +0.277 C 
ENDBRANCH  22   5
ENDBRANCH   8  20
ENDBRANCH   9   6
BRANCH  10   3
ATOM      3  O   UNL     1      -4.245   3.869  27.735  0.00  0.00    -0.388 OA
ATOM     32  H   UNL     1      -4.046   3.437  28.584  0.00  0.00    +0.210 HD
ENDBRANCH  10   3
BRANCH  11   7
ATOM      7  N   UNL     1      -3.534   1.151  25.398  0.00  0.00    -0.302 NA
ATOM     31  H   UNL     1      -2.698   1.516  24.939  0.00  0.00    +0.123 HD
BRANCH   7  19
ATOM     19  C   UNL     1      -4.301   0.388  24.429  0.00  0.00    +0.156 C 
BRANCH  19  21
ATOM      4  O   UNL     1      -3.494  -1.528  25.694  0.00  0.00    -0.467 OA
ATOM     21  C   UNL     1      -4.005  -1.086  24.516  0.00  0.00    +0.119 A 
ATOM     24  C   UNL     1      -4.146  -2.127  23.629  0.00  0.00    +0.046 A 
ATOM     28  C   UNL     1      -3.692  -3.284  24.305  0.00  0.00    +0.041 A 
ATOM     29  C   UNL     1      -3.306  -2.867  25.557  0.00  0.00    +0.195 A 
ENDBRANCH  19  21
ENDBRANCH   7  19
ENDBRANCH  11   7
TORSDOF 7
ENDMDL
MODEL 5
REMARK VINA RESULT:       0.6      1.914      2.460
REMARK  Name = 28960454
REMARK  8 active torsions:
REMARK  status: ('A' for Active; 'I' for Inactive)
REMARK    1  A    between atoms: O_3  and  C_10
REMARK    2  A    between atoms: O_5  and  C_22
REMARK    3  A    between atoms: O_5  and  C_30
REMARK    4  A    between atoms: N_6  and  C_9
REMARK    5  A    between atoms: N_7  and  C_11
REMARK    6  A    between atoms: N_7  and  C_19
REMARK    7  A    between atoms: N_8  and  C_20
REMARK    8  A    between atoms: C_19  and  C_21
REMARK                            x       y       z     vdW  Elec       q    Type
REMARK                         _______ _______ _______ _____ _____    ______ ____
ROOT
ATOM      1  O   UNL     1      13.918  -6.472  29.973  0.00  0.00    -0.343 OA
ATOM      2  O   UNL     1      13.933  -5.702  32.161  0.00  0.00    -0.347 OA
ATOM      9  C   UNL     1      16.014  -5.747  30.929  0.00  0.00    +0.143 C 
ATOM     10  C   UNL     1      16.300  -7.183  31.425  0.00  0.00    +0.156 C 
ATOM     11  C   UNL     1      15.253  -8.227  30.965  0.00  0.00    +0.116 C 
ATOM     12  C   UNL     1      13.837  -7.622  30.822  0.00  0.00    +0.166 C 
ATOM     13  C   UNL     1      14.496  -5.498  30.853  0.00  0.00    +0.270 C 
ATOM     14  C   UNL     1      13.300  -6.989  32.093  0.00  0.00    +0.196 C 
ENDROOT
BRANCH   9   6
ATOM      6  N   UNL     1      16.623  -5.520  29.618  0.00  0.00    -0.290 NA
ATOM      8  N   UNL     1      16.735  -5.494  26.764  0.00  0.00    -0.325 N 
ATOM     15  C   UNL     1      15.848  -4.537  28.854  0.00  0.00    +0.104 C 
ATOM     16  C   UNL     1      16.713  -6.779  28.867  0.00  0.00    +0.104 C 
ATOM     17  C   UNL     1      16.506  -4.247  27.502  0.00  0.00    +0.120 C 
ATOM     18  C   UNL     1      17.401  -6.565  27.517  0.00  0.00    +0.120 C 
BRANCH   8  20
ATOM     20  C   UNL     1      16.914  -5.456  25.377  0.00  0.00    +0.072 A 
ATOM     22  C   UNL     1      16.988  -4.237  24.703  0.00  0.00    +0.141 A 
ATOM     23  C   UNL     1      17.018  -6.653  24.667  0.00  0.00    +0.027 A 
ATOM     25  C   UNL     1      17.168  -4.215  23.320  0.00  0.00    +0.047 A 
ATOM     26  C   UNL     1      17.198  -6.630  23.285  0.00  0.00    +0.002 A 
ATOM     27  C   UNL     1      17.273  -5.411  22.611  0.00  0.00    +0.004 A 
BRANCH  22   5
ATOM      5  O   UNL     1      16.888  -3.057  25.378  0.00  0.00    -0.493 OA
ATOM     30  C   UNL     1      16.656  -1.884  24.599  0.00  0.00    +0.277 C 
ENDBRANCH  22   5
ENDBRANCH   8  20
ENDBRANCH   9   6
BRANCH  10   3
ATOM      3  O   UNL     1      16.313  -7.151  32.860  0.00  0.00    -0.388 OA
ATOM     32  H   UNL     1      17.172  -7.500  33.154  0.00  0.00    +0.210 HD
ENDBRANCH  10   3
BRANCH  11   7
ATOM      7  N   UNL     1      15.636  -8.805  29.673  0.00  0.00    -0.302 NA
ATOM     31  H   UNL     1      15.156  -8.306  28.924  0.00  0.00    +0.123 HD
BRANCH   7  19
ATOM     19  C   UNL     1      15.262 -10.207  29.611  0.00  0.00    +0.156 C 
BRANCH  19  21
ATOM      4  O   UNL     1      13.591 -10.379  31.373  0.00  0.00    -0.467 OA
ATOM     21  C   UNL     1      13.834 -10.425  30.037  0.00  0.00    +0.119 A 
ATOM     24  C   UNL     1      12.672 -10.670  29.343  0.00  0.00    +0.046 A 
ATOM     28  C   UNL     1      11.649 -10.781  30.314  0.00  0.00    +0.041 A 
ATOM     29  C   UNL     1      12.259 -10.597  31.533  0.00  0.00    +0.195 A 
ENDBRANCH  19  21
ENDBRANCH   7  19
ENDBRANCH  11   7
TORSDOF 7
ENDMDL
