MODEL 1
REMARK VINA RESULT:      -2.5      0.000      0.000
REMARK  Name = 71693215
REMARK  8 active torsions:
REMARK  status: ('A' for Active; 'I' for Inactive)
REMARK    1  A    between atoms: N_2  and  C_13
REMARK    2  A    between atoms: C_5  and  C_9
REMARK    3  A    between atoms: C_7  and  C_13
REMARK    4  A    between atoms: C_8  and  C_12
REMARK    5  A    between atoms: C_9  and  C_14
REMARK    6  A    between atoms: C_9  and  C_15
REMARK    7  A    between atoms: C_10  and  C_16
REMARK    8  A    between atoms: C_12  and  C_17
REMARK                            x       y       z     vdW  Elec       q    Type
REMARK                         _______ _______ _______ _____ _____    ______ ____
ROOT
ATOM      5  C   UNL     1      -3.629   0.318  23.907  0.00  0.00    +0.000 C 
ATOM      6  C   UNL     1      -2.370   0.702  23.120  0.00  0.00    +0.012 C 
ATOM      7  C   UNL     1      -3.976   1.412  24.944  0.00  0.00    +0.029 C 
ATOM      8  C   UNL     1      -1.142   0.965  24.019  0.00  0.00    +0.022 C 
ATOM     10  C   UNL     1      -1.490   1.708  25.299  0.00  0.00    -0.073 C 
ATOM     11  C   UNL     1      -2.763   1.908  25.688  0.00  0.00    -0.023 C 
ATOM     16  C   UNL     1      -0.350   2.173  26.164  0.00  0.00    +0.039 C 
ENDROOT
BRANCH   5   9
ATOM      9  C   UNL     1      -3.469  -1.055  24.576  0.00  0.00    -0.013 C 
ATOM     14  C   UNL     1      -3.875  -0.982  26.045  0.00  0.00    +0.007 C 
ATOM     15  C   UNL     1      -4.294  -2.105  23.838  0.00  0.00    +0.007 C 
ENDBRANCH   5   9
BRANCH   8  12
ATOM     12  C   UNL     1      -0.069   1.678  23.187  0.00  0.00    +0.082 C 
BRANCH  12  17
ATOM      1 CL   UNL     1       7.316  -0.197  23.271  0.00  0.00    -0.083 Cl
ATOM      3  N   UNL     1       2.431   1.644  23.100  0.00  0.00    -0.342 N 
ATOM      4  N   UNL     1       1.448  -0.306  23.513  0.00  0.00    -0.232 NA
ATOM     17  C   UNL     1       1.254   0.970  23.274  0.00  0.00    +0.109 A 
ATOM     18  C   UNL     1       3.453   0.740  23.235  0.00  0.00    +0.068 A 
ATOM     19  C   UNL     1       2.814  -0.469  23.493  0.00  0.00    +0.089 A 
ATOM     20  C   UNL     1       4.840   0.874  23.158  0.00  0.00    +0.047 A 
ATOM     21  C   UNL     1       3.588  -1.626  23.686  0.00  0.00    +0.031 A 
ATOM     22  C   UNL     1       5.596  -0.288  23.353  0.00  0.00    +0.043 A 
ATOM     23  C   UNL     1       4.984  -1.515  23.613  0.00  0.00    +0.022 A 
ATOM     26  H   UNL     1       2.532   2.631  22.907  0.00  0.00    +0.167 HD
ENDBRANCH  12  17
ENDBRANCH   8  12
BRANCH   7  13
ATOM     13  C   UNL     1      -4.689   2.602  24.294  0.00  0.00    +0.085 C 
BRANCH  13   2
ATOM      2  N   UNL     1      -5.031   3.602  25.291  0.00  0.00    -0.329 NA
ATOM     24  H   UNL     1      -6.044   3.645  25.394  0.00  0.00    +0.118 HD
ATOM     25  H   UNL     1      -4.667   3.334  26.203  0.00  0.00    +0.118 HD
ENDBRANCH  13   2
ENDBRANCH   7  13
TORSDOF 5
ENDMDL
MODEL 2
REMARK VINA RESULT:      -1.9      1.666      3.183
REMARK  Name = 71693215
REMARK  8 active torsions:
REMARK  status: ('A' for Active; 'I' for Inactive)
REMARK    1  A    between atoms: N_2  and  C_13
REMARK    2  A    between atoms: C_5  and  C_9
REMARK    3  A    between atoms: C_7  and  C_13
REMARK    4  A    between atoms: C_8  and  C_12
REMARK    5  A    between atoms: C_9  and  C_14
REMARK    6  A    between atoms: C_9  and  C_15
REMARK    7  A    between atoms: C_10  and  C_16
REMARK    8  A    between atoms: C_12  and  C_17
REMARK                            x       y       z     vdW  Elec       q    Type
REMARK                         _______ _______ _______ _____ _____    ______ ____
ROOT
ATOM      5  C   UNL     1      -3.081   2.848  25.789  0.00  0.00    +0.000 C 
ATOM      6  C   UNL     1      -2.217   1.640  25.403  0.00  0.00    +0.012 C 
ATOM      7  C   UNL     1      -4.316   2.949  24.863  0.00  0.00    +0.029 C 
ATOM      8  C   UNL     1      -1.754   1.664  23.930  0.00  0.00    +0.022 C 
ATOM     10  C   UNL     1      -2.829   2.160  22.976  0.00  0.00    -0.073 C 
ATOM     11  C   UNL     1      -3.973   2.720  23.413  0.00  0.00    -0.023 C 
ATOM     16  C   UNL     1      -2.550   2.058  21.502  0.00  0.00    +0.039 C 
ENDROOT
BRANCH   5   9
ATOM      9  C   UNL     1      -2.261   4.146  25.770  0.00  0.00    -0.013 C 
ATOM     14  C   UNL     1      -0.819   3.858  25.364  0.00  0.00    +0.007 C 
ATOM     15  C   UNL     1      -2.897   5.163  24.826  0.00  0.00    +0.007 C 
ENDBRANCH   5   9
BRANCH   8  12
ATOM     12  C   UNL     1      -1.223   0.273  23.561  0.00  0.00    +0.082 C 
BRANCH  12  17
ATOM      1 CL   UNL     1       6.180  -1.528  23.607  0.00  0.00    -0.083 Cl
ATOM      3  N   UNL     1       1.004  -0.849  23.760  0.00  0.00    -0.342 N 
ATOM      4  N   UNL     1       1.041   1.267  23.080  0.00  0.00    -0.232 NA
ATOM     17  C   UNL     1       0.276   0.267  23.455  0.00  0.00    +0.109 A 
ATOM     18  C   UNL     1       2.328  -0.549  23.570  0.00  0.00    +0.068 A 
ATOM     19  C   UNL     1       2.325   0.776  23.146  0.00  0.00    +0.089 A 
ATOM     20  C   UNL     1       3.492  -1.301  23.727  0.00  0.00    +0.047 A 
ATOM     21  C   UNL     1       3.547   1.406  22.857  0.00  0.00    +0.031 A 
ATOM     22  C   UNL     1       4.701  -0.659  23.435  0.00  0.00    +0.043 A 
ATOM     23  C   UNL     1       4.730   0.670  23.007  0.00  0.00    +0.022 A 
ATOM     26  H   UNL     1       0.634  -1.738  24.070  0.00  0.00    +0.167 HD
ENDBRANCH  12  17
ENDBRANCH   8  12
BRANCH   7  13
ATOM     13  C   UNL     1      -5.417   1.969  25.280  0.00  0.00    +0.085 C 
BRANCH  13   2
ATOM      2  N   UNL     1      -6.161   2.487  26.415  0.00  0.00    -0.329 NA
ATOM     24  H   UNL     1      -7.161   2.409  26.230  0.00  0.00    +0.118 HD
ATOM     25  H   UNL     1      -5.985   1.921  27.244  0.00  0.00    +0.118 HD
ENDBRANCH  13   2
ENDBRANCH   7  13
TORSDOF 5
ENDMDL
MODEL 3
REMARK VINA RESULT:      -1.7      1.723      2.708
REMARK  Name = 71693215
REMARK  8 active torsions:
REMARK  status: ('A' for Active; 'I' for Inactive)
REMARK    1  A    between atoms: N_2  and  C_13
REMARK    2  A    between atoms: C_5  and  C_9
REMARK    3  A    between atoms: C_7  and  C_13
REMARK    4  A    between atoms: C_8  and  C_12
REMARK    5  A    between atoms: C_9  and  C_14
REMARK    6  A    between atoms: C_9  and  C_15
REMARK    7  A    between atoms: C_10  and  C_16
REMARK    8  A    between atoms: C_12  and  C_17
REMARK                            x       y       z     vdW  Elec       q    Type
REMARK                         _______ _______ _______ _____ _____    ______ ____
ROOT
ATOM      5  C   UNL     1      -3.013   2.597  24.439  0.00  0.00    +0.000 C 
ATOM      6  C   UNL     1      -2.562   1.366  23.642  0.00  0.00    +0.012 C 
ATOM      7  C   UNL     1      -1.886   3.074  25.384  0.00  0.00    +0.029 C 
ATOM      8  C   UNL     1      -2.110   0.191  24.536  0.00  0.00    +0.022 C 
ATOM     10  C   UNL     1      -1.314   0.639  25.751  0.00  0.00    -0.073 C 
ATOM     11  C   UNL     1      -1.216   1.934  26.106  0.00  0.00    -0.023 C 
ATOM     16  C   UNL     1      -0.673  -0.429  26.594  0.00  0.00    +0.039 C 
ENDROOT
BRANCH   5   9
ATOM      9  C   UNL     1      -4.309   2.314  25.211  0.00  0.00    -0.013 C 
ATOM     14  C   UNL     1      -5.108   3.600  25.399  0.00  0.00    +0.007 C 
ATOM     15  C   UNL     1      -5.142   1.262  24.485  0.00  0.00    +0.007 C 
ENDBRANCH   5   9
BRANCH   8  12
ATOM     12  C   UNL     1      -1.354  -0.823  23.668  0.00  0.00    +0.082 C 
BRANCH  12  17
ATOM      1 CL   UNL     1       6.255  -0.551  23.385  0.00  0.00    -0.083 Cl
ATOM      3  N   UNL     1       1.100  -1.293  23.782  0.00  0.00    -0.342 N 
ATOM      4  N   UNL     1       0.532   0.728  23.051  0.00  0.00    -0.232 NA
ATOM     17  C   UNL     1       0.084  -0.427  23.487  0.00  0.00    +0.109 A 
ATOM     18  C   UNL     1       2.284  -0.653  23.519  0.00  0.00    +0.068 A 
ATOM     19  C   UNL     1       1.903   0.606  23.063  0.00  0.00    +0.089 A 
ATOM     20  C   UNL     1       3.614  -1.056  23.635  0.00  0.00    +0.047 A 
ATOM     21  C   UNL     1       2.895   1.532  22.699  0.00  0.00    +0.031 A 
ATOM     22  C   UNL     1       4.590  -0.122  23.268  0.00  0.00    +0.043 A 
ATOM     23  C   UNL     1       4.238   1.149  22.807  0.00  0.00    +0.022 A 
ATOM     26  H   UNL     1       1.000  -2.236  24.131  0.00  0.00    +0.167 HD
ENDBRANCH  12  17
ENDBRANCH   8  12
BRANCH   7  13
ATOM     13  C   UNL     1      -0.826   3.889  24.636  0.00  0.00    +0.085 C 
BRANCH  13   2
ATOM      2  N   UNL     1      -0.921   5.296  24.985  0.00  0.00    -0.329 NA
ATOM     24  H   UNL     1      -1.593   5.414  25.741  0.00  0.00    +0.118 HD
ATOM     25  H   UNL     1      -0.031   5.633  25.346  0.00  0.00    +0.118 HD
ENDBRANCH  13   2
ENDBRANCH   7  13
TORSDOF 5
ENDMDL
MODEL 4
REMARK VINA RESULT:      -1.6      2.471      3.397
REMARK  Name = 71693215
REMARK  8 active torsions:
REMARK  status: ('A' for Active; 'I' for Inactive)
REMARK    1  A    between atoms: N_2  and  C_13
REMARK    2  A    between atoms: C_5  and  C_9
REMARK    3  A    between atoms: C_7  and  C_13
REMARK    4  A    between atoms: C_8  and  C_12
REMARK    5  A    between atoms: C_9  and  C_14
REMARK    6  A    between atoms: C_9  and  C_15
REMARK    7  A    between atoms: C_10  and  C_16
REMARK    8  A    between atoms: C_12  and  C_17
REMARK                            x       y       z     vdW  Elec       q    Type
REMARK                         _______ _______ _______ _____ _____    ______ ____
ROOT
ATOM      5  C   UNL     1      -4.436   2.162  25.010  0.00  0.00    +0.000 C 
ATOM      6  C   UNL     1      -3.140   1.851  25.771  0.00  0.00    +0.012 C 
ATOM      7  C   UNL     1      -4.130   2.968  23.725  0.00  0.00    +0.029 C 
ATOM      8  C   UNL     1      -2.328   3.112  26.137  0.00  0.00    +0.022 C 
ATOM     10  C   UNL     1      -2.325   4.159  25.033  0.00  0.00    -0.073 C 
ATOM     11  C   UNL     1      -3.129   4.070  23.958  0.00  0.00    -0.023 C 
ATOM     16  C   UNL     1      -1.422   5.349  25.209  0.00  0.00    +0.039 C 
ENDROOT
BRANCH   5   9
ATOM      9  C   UNL     1      -5.443   2.898  25.905  0.00  0.00    -0.013 C 
ATOM     14  C   UNL     1      -5.973   4.141  25.198  0.00  0.00    +0.007 C 
ATOM     15  C   UNL     1      -6.587   1.967  26.294  0.00  0.00    +0.007 C 
ENDBRANCH   5   9
BRANCH   8  12
ATOM     12  C   UNL     1      -0.916   2.682  26.555  0.00  0.00    +0.082 C 
BRANCH  12  17
ATOM      1 CL   UNL     1       3.933   0.124  21.263  0.00  0.00    -0.083 Cl
ATOM      3  N   UNL     1       1.011   2.298  25.008  0.00  0.00    -0.342 N 
ATOM      4  N   UNL     1      -0.682   0.871  24.819  0.00  0.00    -0.232 NA
ATOM     17  C   UNL     1      -0.225   1.925  25.456  0.00  0.00    +0.109 A 
ATOM     18  C   UNL     1       1.375   1.427  24.013  0.00  0.00    +0.068 A 
ATOM     19  C   UNL     1       0.302   0.547  23.914  0.00  0.00    +0.089 A 
ATOM     20  C   UNL     1       2.518   1.337  23.217  0.00  0.00    +0.047 A 
ATOM     21  C   UNL     1       0.353  -0.492  22.969  0.00  0.00    +0.031 A 
ATOM     22  C   UNL     1       2.552   0.297  22.281  0.00  0.00    +0.043 A 
ATOM     23  C   UNL     1       1.491  -0.603  22.158  0.00  0.00    +0.022 A 
ATOM     26  H   UNL     1       1.561   3.076  25.347  0.00  0.00    +0.167 HD
ENDBRANCH  12  17
ENDBRANCH   8  12
BRANCH   7  13
ATOM     13  C   UNL     1      -3.629   2.063  22.595  0.00  0.00    +0.085 C 
BRANCH  13   2
ATOM      2  N   UNL     1      -2.200   2.233  22.398  0.00  0.00    -0.329 NA
ATOM     24  H   UNL     1      -1.966   2.036  21.426  0.00  0.00    +0.118 HD
ATOM     25  H   UNL     1      -1.932   3.202  22.559  0.00  0.00    +0.118 HD
ENDBRANCH  13   2
ENDBRANCH   7  13
TORSDOF 5
ENDMDL
MODEL 5
REMARK VINA RESULT:      -0.9      1.475      3.168
REMARK  Name = 71693215
REMARK  8 active torsions:
REMARK  status: ('A' for Active; 'I' for Inactive)
REMARK    1  A    between atoms: N_2  and  C_13
REMARK    2  A    between atoms: C_5  and  C_9
REMARK    3  A    between atoms: C_7  and  C_13
REMARK    4  A    between atoms: C_8  and  C_12
REMARK    5  A    between atoms: C_9  and  C_14
REMARK    6  A    between atoms: C_9  and  C_15
REMARK    7  A    between atoms: C_10  and  C_16
REMARK    8  A    between atoms: C_12  and  C_17
REMARK                            x       y       z     vdW  Elec       q    Type
REMARK                         _______ _______ _______ _____ _____    ______ ____
ROOT
ATOM      5  C   UNL     1      -3.809   2.186  24.472  0.00  0.00    +0.000 C 
ATOM      6  C   UNL     1      -2.560   1.336  24.740  0.00  0.00    +0.012 C 
ATOM      7  C   UNL     1      -5.085   1.423  24.899  0.00  0.00    +0.029 C 
ATOM      8  C   UNL     1      -2.594  -0.040  24.040  0.00  0.00    +0.022 C 
ATOM     10  C   UNL     1      -3.970  -0.687  24.067  0.00  0.00    -0.073 C 
ATOM     11  C   UNL     1      -5.068  -0.020  24.466  0.00  0.00    -0.023 C 
ATOM     16  C   UNL     1      -4.080  -2.103  23.573  0.00  0.00    +0.039 C 
ENDROOT
BRANCH   5   9
ATOM      9  C   UNL     1      -3.882   2.618  23.001  0.00  0.00    -0.013 C 
ATOM     14  C   UNL     1      -4.074   4.128  22.900  0.00  0.00    +0.007 C 
ATOM     15  C   UNL     1      -2.623   2.182  22.256  0.00  0.00    +0.007 C 
ENDBRANCH   5   9
BRANCH   8  12
ATOM     12  C   UNL     1      -1.504  -0.928  24.652  0.00  0.00    +0.082 C 
BRANCH  12  17
ATOM      1 CL   UNL     1       5.913  -0.507  22.955  0.00  0.00    -0.083 Cl
ATOM      3  N   UNL     1       0.940  -1.344  24.318  0.00  0.00    -0.342 N 
ATOM      4  N   UNL     1       0.197   0.646  23.663  0.00  0.00    -0.232 NA
ATOM     17  C   UNL     1      -0.134  -0.507  24.199  0.00  0.00    +0.109 A 
ATOM     18  C   UNL     1       2.039  -0.687  23.826  0.00  0.00    +0.068 A 
ATOM     19  C   UNL     1       1.549   0.552  23.424  0.00  0.00    +0.089 A 
ATOM     20  C   UNL     1       3.377  -1.059  23.701  0.00  0.00    +0.047 A 
ATOM     21  C   UNL     1       2.433   1.489  22.862  0.00  0.00    +0.031 A 
ATOM     22  C   UNL     1       4.244  -0.115  23.140  0.00  0.00    +0.043 A 
ATOM     23  C   UNL     1       3.782   1.137  22.727  0.00  0.00    +0.022 A 
ATOM     26  H   UNL     1       0.930  -2.281  24.698  0.00  0.00    +0.167 HD
ENDBRANCH  12  17
ENDBRANCH   8  12
BRANCH   7  13
ATOM     13  C   UNL     1      -5.306   1.492  26.413  0.00  0.00    +0.085 C 
BRANCH  13   2
ATOM      2  N   UNL     1      -6.409   2.382  26.731  0.00  0.00    -0.329 NA
ATOM     24  H   UNL     1      -7.058   1.908  27.358  0.00  0.00    +0.118 HD
ATOM     25  H   UNL     1      -6.073   3.197  27.240  0.00  0.00    +0.118 HD
ENDBRANCH  13   2
ENDBRANCH   7  13
TORSDOF 5
ENDMDL
MODEL 6
REMARK VINA RESULT:      -0.8      1.926      3.235
REMARK  Name = 71693215
REMARK  8 active torsions:
REMARK  status: ('A' for Active; 'I' for Inactive)
REMARK    1  A    between atoms: N_2  and  C_13
REMARK    2  A    between atoms: C_5  and  C_9
REMARK    3  A    between atoms: C_7  and  C_13
REMARK    4  A    between atoms: C_8  and  C_12
REMARK    5  A    between atoms: C_9  and  C_14
REMARK    6  A    between atoms: C_9  and  C_15
REMARK    7  A    between atoms: C_10  and  C_16
REMARK    8  A    between atoms: C_12  and  C_17
REMARK                            x       y       z     vdW  Elec       q    Type
REMARK                         _______ _______ _______ _____ _____    ______ ____
ROOT
ATOM      5  C   UNL     1      -4.338   1.159  25.632  0.00  0.00    +0.000 C 
ATOM      6  C   UNL     1      -3.146   2.124  25.661  0.00  0.00    +0.012 C 
ATOM      7  C   UNL     1      -4.136   0.080  24.542  0.00  0.00    +0.029 C 
ATOM      8  C   UNL     1      -2.880   2.810  24.304  0.00  0.00    +0.022 C 
ATOM     10  C   UNL     1      -3.069   1.876  23.118  0.00  0.00    -0.073 C 
ATOM     11  C   UNL     1      -3.621   0.655  23.248  0.00  0.00    -0.023 C 
ATOM     16  C   UNL     1      -2.666   2.386  21.762  0.00  0.00    +0.039 C 
ENDROOT
BRANCH   5   9
ATOM      9  C   UNL     1      -5.659   1.914  25.433  0.00  0.00    -0.013 C 
ATOM     14  C   UNL     1      -6.673   1.501  26.495  0.00  0.00    +0.007 C 
ATOM     15  C   UNL     1      -5.421   3.421  25.470  0.00  0.00    +0.007 C 
ENDBRANCH   5   9
BRANCH   8  12
ATOM     12  C   UNL     1      -1.487   3.451  24.343  0.00  0.00    +0.082 C 
BRANCH  12  17
ATOM      1 CL   UNL     1       5.043  -0.074  22.614  0.00  0.00    -0.083 Cl
ATOM      3  N   UNL     1       0.880   2.847  23.804  0.00  0.00    -0.342 N 
ATOM      4  N   UNL     1      -0.562   1.157  23.864  0.00  0.00    -0.232 NA
ATOM     17  C   UNL     1      -0.414   2.455  24.005  0.00  0.00    +0.109 A 
ATOM     18  C   UNL     1       1.616   1.727  23.514  0.00  0.00    +0.068 A 
ATOM     19  C   UNL     1       0.694   0.686  23.558  0.00  0.00    +0.089 A 
ATOM     20  C   UNL     1       2.969   1.542  23.227  0.00  0.00    +0.047 A 
ATOM     21  C   UNL     1       1.128  -0.626  23.302  0.00  0.00    +0.031 A 
ATOM     22  C   UNL     1       3.385   0.230  22.975  0.00  0.00    +0.043 A 
ATOM     23  C   UNL     1       2.483  -0.836  23.012  0.00  0.00    +0.022 A 
ATOM     26  H   UNL     1       1.233   3.793  23.860  0.00  0.00    +0.167 HD
ENDBRANCH  12  17
ENDBRANCH   8  12
BRANCH   7  13
ATOM     13  C   UNL     1      -3.190  -1.029  25.011  0.00  0.00    +0.085 C 
BRANCH  13   2
ATOM      2  N   UNL     1      -3.670  -2.330  24.578  0.00  0.00    -0.329 NA
ATOM     24  H   UNL     1      -4.526  -2.214  24.037  0.00  0.00    +0.118 HD
ATOM     25  H   UNL     1      -2.998  -2.765  23.948  0.00  0.00    +0.118 HD
ENDBRANCH  13   2
ENDBRANCH   7  13
TORSDOF 5
ENDMDL
MODEL 7
REMARK VINA RESULT:      -0.6      4.355      6.058
REMARK  Name = 71693215
REMARK  8 active torsions:
REMARK  status: ('A' for Active; 'I' for Inactive)
REMARK    1  A    between atoms: N_2  and  C_13
REMARK    2  A    between atoms: C_5  and  C_9
REMARK    3  A    between atoms: C_7  and  C_13
REMARK    4  A    between atoms: C_8  and  C_12
REMARK    5  A    between atoms: C_9  and  C_14
REMARK    6  A    between atoms: C_9  and  C_15
REMARK    7  A    between atoms: C_10  and  C_16
REMARK    8  A    between atoms: C_12  and  C_17
REMARK                            x       y       z     vdW  Elec       q    Type
REMARK                         _______ _______ _______ _____ _____    ______ ____
ROOT
ATOM      5  C   UNL     1      -2.831   4.616  25.760  0.00  0.00    +0.000 C 
ATOM      6  C   UNL     1      -1.885   3.533  26.296  0.00  0.00    +0.012 C 
ATOM      7  C   UNL     1      -3.788   4.023  24.699  0.00  0.00    +0.029 C 
ATOM      8  C   UNL     1      -1.060   2.839  25.191  0.00  0.00    +0.022 C 
ATOM     10  C   UNL     1      -1.859   2.585  23.922  0.00  0.00    -0.073 C 
ATOM     11  C   UNL     1      -3.081   3.113  23.727  0.00  0.00    -0.023 C 
ATOM     16  C   UNL     1      -1.209   1.758  22.847  0.00  0.00    +0.039 C 
ENDROOT
BRANCH   5   9
ATOM      9  C   UNL     1      -2.046   5.810  25.200  0.00  0.00    -0.013 C 
ATOM     14  C   UNL     1      -0.599   5.415  24.924  0.00  0.00    +0.007 C 
ATOM     15  C   UNL     1      -2.714   6.337  23.932  0.00  0.00    +0.007 C 
ENDBRANCH   5   9
BRANCH   8  12
ATOM     12  C   UNL     1      -0.439   1.563  25.771  0.00  0.00    +0.082 C 
BRANCH  12  17
ATOM      1 CL   UNL     1      -5.653  -3.474  23.426  0.00  0.00    -0.083 Cl
ATOM      3  N   UNL     1      -2.516   0.381  25.030  0.00  0.00    -0.342 N 
ATOM      4  N   UNL     1      -0.680  -0.867  25.149  0.00  0.00    -0.232 NA
ATOM     17  C   UNL     1      -1.180   0.336  25.318  0.00  0.00    +0.109 A 
ATOM     18  C   UNL     1      -2.904  -0.878  24.649  0.00  0.00    +0.068 A 
ATOM     19  C   UNL     1      -1.741  -1.638  24.732  0.00  0.00    +0.089 A 
ATOM     20  C   UNL     1      -4.135  -1.400  24.251  0.00  0.00    +0.047 A 
ATOM     21  C   UNL     1      -1.790  -3.003  24.402  0.00  0.00    +0.031 A 
ATOM     22  C   UNL     1      -4.166  -2.760  23.927  0.00  0.00    +0.043 A 
ATOM     23  C   UNL     1      -3.016  -3.549  24.000  0.00  0.00    +0.022 A 
ATOM     26  H   UNL     1      -3.112   1.196  25.085  0.00  0.00    +0.167 HD
ENDBRANCH  12  17
ENDBRANCH   8  12
BRANCH   7  13
ATOM     13  C   UNL     1      -4.949   3.263  25.346  0.00  0.00    +0.085 C 
BRANCH  13   2
ATOM      2  N   UNL     1      -5.251   2.054  24.599  0.00  0.00    -0.329 NA
ATOM     24  H   UNL     1      -4.604   1.316  24.873  0.00  0.00    +0.118 HD
ATOM     25  H   UNL     1      -6.181   1.713  24.836  0.00  0.00    +0.118 HD
ENDBRANCH  13   2
ENDBRANCH   7  13
TORSDOF 5
ENDMDL
MODEL 8
REMARK VINA RESULT:      -0.4      3.862      5.869
REMARK  Name = 71693215
REMARK  8 active torsions:
REMARK  status: ('A' for Active; 'I' for Inactive)
REMARK    1  A    between atoms: N_2  and  C_13
REMARK    2  A    between atoms: C_5  and  C_9
REMARK    3  A    between atoms: C_7  and  C_13
REMARK    4  A    between atoms: C_8  and  C_12
REMARK    5  A    between atoms: C_9  and  C_14
REMARK    6  A    between atoms: C_9  and  C_15
REMARK    7  A    between atoms: C_10  and  C_16
REMARK    8  A    between atoms: C_12  and  C_17
REMARK                            x       y       z     vdW  Elec       q    Type
REMARK                         _______ _______ _______ _____ _____    ______ ____
ROOT
ATOM      5  C   UNL     1      -0.917   3.747  24.343  0.00  0.00    +0.000 C 
ATOM      6  C   UNL     1      -1.982   2.868  23.674  0.00  0.00    +0.012 C 
ATOM      7  C   UNL     1      -1.092   3.734  25.880  0.00  0.00    +0.029 C 
ATOM      8  C   UNL     1      -3.427   3.278  24.030  0.00  0.00    +0.022 C 
ATOM     10  C   UNL     1      -3.588   3.685  25.486  0.00  0.00    -0.073 C 
ATOM     11  C   UNL     1      -2.533   3.872  26.300  0.00  0.00    -0.023 C 
ATOM     16  C   UNL     1      -4.985   3.933  25.987  0.00  0.00    +0.039 C 
ENDROOT
BRANCH   5   9
ATOM      9  C   UNL     1      -0.950   5.178  23.789  0.00  0.00    -0.013 C 
ATOM     14  C   UNL     1      -1.012   6.189  24.929  0.00  0.00    +0.007 C 
ATOM     15  C   UNL     1       0.267   5.434  22.904  0.00  0.00    +0.007 C 
ENDBRANCH   5   9
BRANCH   8  12
ATOM     12  C   UNL     1      -4.374   2.144  23.618  0.00  0.00    +0.082 C 
BRANCH  12  17
ATOM      1 CL   UNL     1       0.150  -3.691  25.501  0.00  0.00    -0.083 Cl
ATOM      3  N   UNL     1      -2.473   0.656  24.274  0.00  0.00    -0.342 N 
ATOM      4  N   UNL     1      -4.428  -0.352  23.954  0.00  0.00    -0.232 NA
ATOM     17  C   UNL     1      -3.792   0.797  23.943  0.00  0.00    +0.109 A 
ATOM     18  C   UNL     1      -2.243  -0.674  24.514  0.00  0.00    +0.068 A 
ATOM     19  C   UNL     1      -3.478  -1.282  24.307  0.00  0.00    +0.089 A 
ATOM     20  C   UNL     1      -1.095  -1.376  24.883  0.00  0.00    +0.047 A 
ATOM     21  C   UNL     1      -3.593  -2.673  24.474  0.00  0.00    +0.031 A 
ATOM     22  C   UNL     1      -1.228  -2.760  25.045  0.00  0.00    +0.043 A 
ATOM     23  C   UNL     1      -2.453  -3.398  24.845  0.00  0.00    +0.022 A 
ATOM     26  H   UNL     1      -1.789   1.398  24.334  0.00  0.00    +0.167 HD
ENDBRANCH  12  17
ENDBRANCH   8  12
BRANCH   7  13
ATOM     13  C   UNL     1      -0.504   2.466  26.505  0.00  0.00    +0.085 C 
BRANCH  13   2
ATOM      2  N   UNL     1       0.507   1.887  25.637  0.00  0.00    -0.329 NA
ATOM     24  H   UNL     1       1.433   2.118  25.994  0.00  0.00    +0.118 HD
ATOM     25  H   UNL     1       0.448   0.870  25.651  0.00  0.00    +0.118 HD
ENDBRANCH  13   2
ENDBRANCH   7  13
TORSDOF 5
ENDMDL
MODEL 9
REMARK VINA RESULT:      -0.2      2.039      3.127
REMARK  Name = 71693215
REMARK  8 active torsions:
REMARK  status: ('A' for Active; 'I' for Inactive)
REMARK    1  A    between atoms: N_2  and  C_13
REMARK    2  A    between atoms: C_5  and  C_9
REMARK    3  A    between atoms: C_7  and  C_13
REMARK    4  A    between atoms: C_8  and  C_12
REMARK    5  A    between atoms: C_9  and  C_14
REMARK    6  A    between atoms: C_9  and  C_15
REMARK    7  A    between atoms: C_10  and  C_16
REMARK    8  A    between atoms: C_12  and  C_17
REMARK                            x       y       z     vdW  Elec       q    Type
REMARK                         _______ _______ _______ _____ _____    ______ ____
ROOT
ATOM      5  C   UNL     1      -1.355   3.135  25.173  0.00  0.00    +0.000 C 
ATOM      6  C   UNL     1      -0.994   2.484  23.832  0.00  0.00    +0.012 C 
ATOM      7  C   UNL     1      -0.694   2.368  26.343  0.00  0.00    +0.029 C 
ATOM      8  C   UNL     1      -1.382   0.991  23.751  0.00  0.00    +0.022 C 
ATOM     10  C   UNL     1      -1.129   0.240  25.049  0.00  0.00    -0.073 C 
ATOM     11  C   UNL     1      -0.811   0.873  26.194  0.00  0.00    -0.023 C 
ATOM     16  C   UNL     1      -1.303  -1.254  25.032  0.00  0.00    +0.039 C 
ENDROOT
BRANCH   5   9
ATOM      9  C   UNL     1      -2.877   3.227  25.354  0.00  0.00    -0.013 C 
ATOM     14  C   UNL     1      -3.224   4.256  26.426  0.00  0.00    +0.007 C 
ATOM     15  C   UNL     1      -3.549   3.578  24.030  0.00  0.00    +0.007 C 
ENDBRANCH   5   9
BRANCH   8  12
ATOM     12  C   UNL     1      -0.667   0.363  22.549  0.00  0.00    +0.082 C 
BRANCH  12  17
ATOM      1 CL   UNL     1       6.880   0.652  23.552  0.00  0.00    -0.083 Cl
ATOM      3  N   UNL     1       1.744   1.017  22.680  0.00  0.00    -0.342 N 
ATOM      4  N   UNL     1       1.267  -1.059  23.311  0.00  0.00    -0.232 NA
ATOM     17  C   UNL     1       0.774   0.071  22.858  0.00  0.00    +0.109 A 
ATOM     18  C   UNL     1       2.943   0.460  23.042  0.00  0.00    +0.068 A 
ATOM     19  C   UNL     1       2.619  -0.835  23.432  0.00  0.00    +0.089 A 
ATOM     20  C   UNL     1       4.244   0.965  23.062  0.00  0.00    +0.047 A 
ATOM     21  C   UNL     1       3.641  -1.695  23.871  0.00  0.00    +0.031 A 
ATOM     22  C   UNL     1       5.249   0.096  23.501  0.00  0.00    +0.043 A 
ATOM     23  C   UNL     1       4.955  -1.210  23.900  0.00  0.00    +0.022 A 
ATOM     26  H   UNL     1       1.604   1.961  22.343  0.00  0.00    +0.167 HD
ENDBRANCH  12  17
ENDBRANCH   8  12
BRANCH   7  13
ATOM     13  C   UNL     1       0.781   2.745  26.505  0.00  0.00    +0.085 C 
BRANCH  13   2
ATOM      2  N   UNL     1       1.198   2.604  27.889  0.00  0.00    -0.329 NA
ATOM     24  H   UNL     1       0.450   2.168  28.427  0.00  0.00    +0.118 HD
ATOM     25  H   UNL     1       1.996   1.974  27.958  0.00  0.00    +0.118 HD
ENDBRANCH  13   2
ENDBRANCH   7  13
TORSDOF 5
ENDMDL
MODEL 10
REMARK VINA RESULT:       0.7      3.811      7.200
REMARK  Name = 71693215
REMARK  8 active torsions:
REMARK  status: ('A' for Active; 'I' for Inactive)
REMARK    1  A    between atoms: N_2  and  C_13
REMARK    2  A    between atoms: C_5  and  C_9
REMARK    3  A    between atoms: C_7  and  C_13
REMARK    4  A    between atoms: C_8  and  C_12
REMARK    5  A    between atoms: C_9  and  C_14
REMARK    6  A    between atoms: C_9  and  C_15
REMARK    7  A    between atoms: C_10  and  C_16
REMARK    8  A    between atoms: C_12  and  C_17
REMARK                            x       y       z     vdW  Elec       q    Type
REMARK                         _______ _______ _______ _____ _____    ______ ____
ROOT
ATOM      5  C   UNL     1       0.991   0.113  23.160  0.00  0.00    +0.000 C 
ATOM      6  C   UNL     1       0.558   1.578  23.017  0.00  0.00    +0.012 C 
ATOM      7  C   UNL     1       0.130  -0.605  24.226  0.00  0.00    +0.029 C 
ATOM      8  C   UNL     1       0.620   2.367  24.343  0.00  0.00    +0.022 C 
ATOM     10  C   UNL     1       0.154   1.554  25.541  0.00  0.00    -0.073 C 
ATOM     11  C   UNL     1      -0.071   0.229  25.465  0.00  0.00    -0.023 C 
ATOM     16  C   UNL     1       0.004   2.275  26.852  0.00  0.00    +0.039 C 
ENDROOT
BRANCH   5   9
ATOM      9  C   UNL     1       2.487   0.005  23.485  0.00  0.00    -0.013 C 
ATOM     14  C   UNL     1       2.926  -1.456  23.490  0.00  0.00    +0.007 C 
ATOM     15  C   UNL     1       3.308   0.813  22.484  0.00  0.00    +0.007 C 
ENDBRANCH   5   9
BRANCH   8  12
ATOM     12  C   UNL     1      -0.160   3.677  24.171  0.00  0.00    +0.082 C 
BRANCH  12  17
ATOM      1 CL   UNL     1      -7.401   1.331  24.520  0.00  0.00    -0.083 Cl
ATOM      3  N   UNL     1      -2.349   2.500  23.889  0.00  0.00    -0.342 N 
ATOM      4  N   UNL     1      -2.343   4.212  25.307  0.00  0.00    -0.232 NA
ATOM     17  C   UNL     1      -1.618   3.493  24.481  0.00  0.00    +0.109 A 
ATOM     18  C   UNL     1      -3.632   2.586  24.366  0.00  0.00    +0.068 A 
ATOM     19  C   UNL     1      -3.603   3.661  25.249  0.00  0.00    +0.089 A 
ATOM     20  C   UNL     1      -4.780   1.836  24.108  0.00  0.00    +0.047 A 
ATOM     21  C   UNL     1      -4.780   4.025  25.924  0.00  0.00    +0.031 A 
ATOM     22  C   UNL     1      -5.944   2.212  24.789  0.00  0.00    +0.043 A 
ATOM     23  C   UNL     1      -5.945   3.286  25.681  0.00  0.00    +0.022 A 
ATOM     26  H   UNL     1      -2.007   1.823  23.221  0.00  0.00    +0.167 HD
ENDBRANCH  12  17
ENDBRANCH   8  12
BRANCH   7  13
ATOM     13  C   UNL     1      -1.237  -1.014  23.668  0.00  0.00    +0.085 C 
BRANCH  13   2
ATOM      2  N   UNL     1      -2.285  -0.764  24.642  0.00  0.00    -0.329 NA
ATOM     24  H   UNL     1      -1.925  -0.938  25.580  0.00  0.00    +0.118 HD
ATOM     25  H   UNL     1      -2.560   0.216  24.625  0.00  0.00    +0.118 HD
ENDBRANCH  13   2
ENDBRANCH   7  13
TORSDOF 5
ENDMDL
