MODEL 1
REMARK VINA RESULT:      -4.4      0.000      0.000
REMARK  Name = 75536562
REMARK  9 active torsions:
REMARK  status: ('A' for Active; 'I' for Inactive)
REMARK    1  A    between atoms: O_2  and  C_10
REMARK    2  A    between atoms: N_5  and  C_17
REMARK    3  A    between atoms: N_6  and  C_11
REMARK    4  A    between atoms: N_6  and  C_19
REMARK    5  A    between atoms: N_7  and  C_25
REMARK    6  A    between atoms: C_8  and  C_18
REMARK    7  A    between atoms: C_9  and  C_17
REMARK    8  A    between atoms: C_19  and  C_20
REMARK    9  A    between atoms: C_26  and  C_27
REMARK                            x       y       z     vdW  Elec       q    Type
REMARK                         _______ _______ _______ _____ _____    ______ ____
ROOT
ATOM      1  O   UNL     1      -6.146   2.278  26.159  0.00  0.00    -0.371 OA
ATOM      9  C   UNL     1      -5.800   1.808  24.847  0.00  0.00    +0.165 C 
ATOM     10  C   UNL     1      -4.539   2.562  24.449  0.00  0.00    +0.164 C 
ATOM     11  C   UNL     1      -4.789   3.912  25.097  0.00  0.00    +0.111 C 
ATOM     16  C   UNL     1      -5.430   3.499  26.412  0.00  0.00    +0.181 C 
ENDROOT
BRANCH  10   2
ATOM      2  O   UNL     1      -4.398   2.650  23.044  0.00  0.00    -0.388 OA
ATOM     30  H   UNL     1      -3.596   2.166  22.786  0.00  0.00    +0.210 HD
ENDBRANCH  10   2
BRANCH  11   6
ATOM      6  N   UNL     1      -3.584   4.704  25.279  0.00  0.00    -0.305 NA
ATOM     29  H   UNL     1      -3.844   5.634  25.608  0.00  0.00    +0.123 HD
BRANCH   6  19
ATOM     19  C   UNL     1      -2.693   4.090  26.257  0.00  0.00    +0.116 C 
BRANCH  19  20
ATOM     20  C   UNL     1      -1.505   3.438  25.603  0.00  0.00    -0.033 A 
ATOM     21  C   UNL     1      -1.314   3.560  24.226  0.00  0.00    +0.007 A 
ATOM     22  C   UNL     1      -0.596   2.713  26.372  0.00  0.00    +0.007 A 
ATOM     23  C   UNL     1      -0.213   2.955  23.620  0.00  0.00    +0.023 A 
ATOM     24  C   UNL     1       0.505   2.109  25.765  0.00  0.00    +0.023 A 
ATOM     25  C   UNL     1       0.696   2.230  24.388  0.00  0.00    +0.033 A 
BRANCH  25   7
ATOM      4  O   UNL     1       0.880  -0.268  22.719  0.00  0.00    -0.276 OA
ATOM      7  N   UNL     1       1.798   1.624  23.781  0.00  0.00    -0.286 N 
ATOM     26  C   UNL     1       1.827   0.454  23.013  0.00  0.00    +0.214 C 
ATOM     27  C   UNL     1       3.221   0.133  22.535  0.00  0.00    +0.109 C 
ATOM     31  H   UNL     1       2.687   2.100  23.922  0.00  0.00    +0.155 HD
ENDBRANCH  25   7
ENDBRANCH  19  20
ENDBRANCH   6  19
ENDBRANCH  11   6
BRANCH   9  17
ATOM     17  C   UNL     1      -5.615   0.301  24.873  0.00  0.00    +0.138 C 
BRANCH  17   5
ATOM      3  O   UNL     1      -4.659  -2.230  23.820  0.00  0.00    -0.276 OA
ATOM      5  N   UNL     1      -4.259  -0.064  24.578  0.00  0.00    -0.313 N 
ATOM     18  C   UNL     1      -3.890  -1.305  24.074  0.00  0.00    +0.216 C 
ATOM     28  H   UNL     1      -3.540   0.632  24.751  0.00  0.00    +0.149 HD
BRANCH  18   8
ATOM      8  C   UNL     1      -2.415  -1.415  23.834  0.00  0.00    +0.075 C 
ATOM     12  C   UNL     1      -1.877  -2.724  24.422  0.00  0.00    +0.013 C 
ATOM     13  C   UNL     1      -1.667  -0.286  24.544  0.00  0.00    +0.013 C 
ATOM     14  C   UNL     1      -0.762  -2.322  25.381  0.00  0.00    +0.001 C 
ATOM     15  C   UNL     1      -1.142  -0.920  25.824  0.00  0.00    +0.001 C 
ENDBRANCH  18   8
ENDBRANCH  17   5
ENDBRANCH   9  17
TORSDOF 8
ENDMDL
MODEL 2
REMARK VINA RESULT:      -3.2      1.900      2.878
REMARK  Name = 75536562
REMARK  9 active torsions:
REMARK  status: ('A' for Active; 'I' for Inactive)
REMARK    1  A    between atoms: O_2  and  C_10
REMARK    2  A    between atoms: N_5  and  C_17
REMARK    3  A    between atoms: N_6  and  C_11
REMARK    4  A    between atoms: N_6  and  C_19
REMARK    5  A    between atoms: N_7  and  C_25
REMARK    6  A    between atoms: C_8  and  C_18
REMARK    7  A    between atoms: C_9  and  C_17
REMARK    8  A    between atoms: C_19  and  C_20
REMARK    9  A    between atoms: C_26  and  C_27
REMARK                            x       y       z     vdW  Elec       q    Type
REMARK                         _______ _______ _______ _____ _____    ______ ____
ROOT
ATOM      1  O   UNL     1      -4.015   3.473  26.218  0.00  0.00    -0.371 OA
ATOM      9  C   UNL     1      -4.679   3.089  25.003  0.00  0.00    +0.165 C 
ATOM     10  C   UNL     1      -3.579   2.678  24.035  0.00  0.00    +0.164 C 
ATOM     11  C   UNL     1      -2.474   3.645  24.419  0.00  0.00    +0.111 C 
ATOM     16  C   UNL     1      -2.621   3.683  25.931  0.00  0.00    +0.181 C 
ENDROOT
BRANCH  10   2
ATOM      2  O   UNL     1      -3.983   2.820  22.687  0.00  0.00    -0.388 OA
ATOM     30  H   UNL     1      -3.561   3.615  22.322  0.00  0.00    +0.210 HD
ENDBRANCH  10   2
BRANCH  11   6
ATOM      6  N   UNL     1      -1.152   3.221  23.990  0.00  0.00    -0.305 NA
ATOM     29  H   UNL     1      -0.471   3.479  24.705  0.00  0.00    +0.123 HD
BRANCH   6  19
ATOM     19  C   UNL     1      -1.101   1.778  23.790  0.00  0.00    +0.116 C 
BRANCH  19  20
ATOM     20  C   UNL     1       0.297   1.298  23.509  0.00  0.00    -0.033 A 
ATOM     21  C   UNL     1       1.375   2.173  23.650  0.00  0.00    +0.007 A 
ATOM     22  C   UNL     1       0.516  -0.020  23.109  0.00  0.00    +0.007 A 
ATOM     23  C   UNL     1       2.672   1.729  23.390  0.00  0.00    +0.023 A 
ATOM     24  C   UNL     1       1.813  -0.463  22.849  0.00  0.00    +0.023 A 
ATOM     25  C   UNL     1       2.891   0.412  22.989  0.00  0.00    +0.033 A 
BRANCH  25   7
ATOM      4  O   UNL     1       5.378   0.541  24.680  0.00  0.00    -0.276 OA
ATOM      7  N   UNL     1       4.188  -0.033  22.728  0.00  0.00    -0.286 N 
ATOM     26  C   UNL     1       5.315   0.056  23.556  0.00  0.00    +0.214 C 
ATOM     27  C   UNL     1       6.535  -0.545  22.905  0.00  0.00    +0.109 C 
ATOM     31  H   UNL     1       4.321  -0.473  21.820  0.00  0.00    +0.155 HD
ENDBRANCH  25   7
ENDBRANCH  19  20
ENDBRANCH   6  19
ENDBRANCH  11   6
BRANCH   9  17
ATOM     17  C   UNL     1      -5.673   1.978  25.290  0.00  0.00    +0.138 C 
BRANCH  17   5
ATOM      3  O   UNL     1      -4.324  -0.002  23.650  0.00  0.00    -0.276 OA
ATOM      5  N   UNL     1      -5.009   0.786  25.732  0.00  0.00    -0.313 N 
ATOM     18  C   UNL     1      -4.387  -0.111  24.872  0.00  0.00    +0.216 C 
ATOM     28  H   UNL     1      -5.000   0.599  26.731  0.00  0.00    +0.149 HD
BRANCH  18   8
ATOM      8  C   UNL     1      -3.750  -1.258  25.596  0.00  0.00    +0.075 C 
ATOM     12  C   UNL     1      -2.326  -0.889  26.029  0.00  0.00    +0.013 C 
ATOM     13  C   UNL     1      -3.616  -2.471  24.673  0.00  0.00    +0.013 C 
ATOM     14  C   UNL     1      -1.419  -1.957  25.428  0.00  0.00    +0.001 C 
ATOM     15  C   UNL     1      -2.171  -2.436  24.199  0.00  0.00    +0.001 C 
ENDBRANCH  18   8
ENDBRANCH  17   5
ENDBRANCH   9  17
TORSDOF 8
ENDMDL
MODEL 3
REMARK VINA RESULT:      -3.0      2.090      5.577
REMARK  Name = 75536562
REMARK  9 active torsions:
REMARK  status: ('A' for Active; 'I' for Inactive)
REMARK    1  A    between atoms: O_2  and  C_10
REMARK    2  A    between atoms: N_5  and  C_17
REMARK    3  A    between atoms: N_6  and  C_11
REMARK    4  A    between atoms: N_6  and  C_19
REMARK    5  A    between atoms: N_7  and  C_25
REMARK    6  A    between atoms: C_8  and  C_18
REMARK    7  A    between atoms: C_9  and  C_17
REMARK    8  A    between atoms: C_19  and  C_20
REMARK    9  A    between atoms: C_26  and  C_27
REMARK                            x       y       z     vdW  Elec       q    Type
REMARK                         _______ _______ _______ _____ _____    ______ ____
ROOT
ATOM      1  O   UNL     1       0.250   3.471  23.539  0.00  0.00    -0.371 OA
ATOM      9  C   UNL     1       0.430   2.502  24.584  0.00  0.00    +0.165 C 
ATOM     10  C   UNL     1      -0.763   2.662  25.516  0.00  0.00    +0.164 C 
ATOM     11  C   UNL     1      -0.994   4.161  25.440  0.00  0.00    +0.111 C 
ATOM     16  C   UNL     1      -0.731   4.431  23.968  0.00  0.00    +0.181 C 
ENDROOT
BRANCH  10   2
ATOM      2  O   UNL     1      -0.470   2.222  26.828  0.00  0.00    -0.388 OA
ATOM     30  H   UNL     1      -1.291   2.241  27.348  0.00  0.00    +0.210 HD
ENDBRANCH  10   2
BRANCH  11   6
ATOM      6  N   UNL     1      -2.324   4.568  25.862  0.00  0.00    -0.305 NA
ATOM     29  H   UNL     1      -2.309   5.561  26.099  0.00  0.00    +0.123 HD
BRANCH   6  19
ATOM     19  C   UNL     1      -3.301   4.352  24.801  0.00  0.00    +0.116 C 
BRANCH  19  20
ATOM     20  C   UNL     1      -3.585   2.889  24.589  0.00  0.00    -0.033 A 
ATOM     21  C   UNL     1      -4.388   2.196  25.495  0.00  0.00    +0.007 A 
ATOM     22  C   UNL     1      -3.047   2.227  23.485  0.00  0.00    +0.007 A 
ATOM     23  C   UNL     1      -4.651   0.841  25.298  0.00  0.00    +0.023 A 
ATOM     24  C   UNL     1      -3.310   0.871  23.289  0.00  0.00    +0.023 A 
ATOM     25  C   UNL     1      -4.113   0.178  24.196  0.00  0.00    +0.033 A 
BRANCH  25   7
ATOM      4  O   UNL     1      -2.387  -2.239  24.689  0.00  0.00    -0.276 OA
ATOM      7  N   UNL     1      -4.376  -1.179  23.999  0.00  0.00    -0.286 N 
ATOM     26  C   UNL     1      -3.530  -2.268  24.245  0.00  0.00    +0.214 C 
ATOM     27  C   UNL     1      -4.191  -3.578  23.899  0.00  0.00    +0.109 C 
ATOM     31  H   UNL     1      -5.300  -1.392  23.629  0.00  0.00    +0.155 HD
ENDBRANCH  25   7
ENDBRANCH  19  20
ENDBRANCH   6  19
ENDBRANCH  11   6
BRANCH   9  17
ATOM     17  C   UNL     1       0.540   1.112  23.984  0.00  0.00    +0.138 C 
BRANCH  17   5
ATOM      3  O   UNL     1       1.435  -0.498  21.740  0.00  0.00    -0.276 OA
ATOM      5  N   UNL     1       1.892   0.809  23.613  0.00  0.00    -0.313 N 
ATOM     18  C   UNL     1       2.231   0.025  22.516  0.00  0.00    +0.216 C 
ATOM     28  H   UNL     1       2.633   1.196  24.190  0.00  0.00    +0.149 HD
BRANCH  18   8
ATOM      8  C   UNL     1       3.712  -0.113  22.341  0.00  0.00    +0.075 C 
ATOM     12  C   UNL     1       4.258  -1.204  23.269  0.00  0.00    +0.013 C 
ATOM     13  C   UNL     1       4.426   1.181  22.736  0.00  0.00    +0.013 C 
ATOM     14  C   UNL     1       5.343  -0.534  24.105  0.00  0.00    +0.001 C 
ATOM     15  C   UNL     1       4.931   0.926  24.148  0.00  0.00    +0.001 C 
ENDBRANCH  18   8
ENDBRANCH  17   5
ENDBRANCH   9  17
TORSDOF 8
ENDMDL
MODEL 4
REMARK VINA RESULT:      -2.9      2.227      6.000
REMARK  Name = 75536562
REMARK  9 active torsions:
REMARK  status: ('A' for Active; 'I' for Inactive)
REMARK    1  A    between atoms: O_2  and  C_10
REMARK    2  A    between atoms: N_5  and  C_17
REMARK    3  A    between atoms: N_6  and  C_11
REMARK    4  A    between atoms: N_6  and  C_19
REMARK    5  A    between atoms: N_7  and  C_25
REMARK    6  A    between atoms: C_8  and  C_18
REMARK    7  A    between atoms: C_9  and  C_17
REMARK    8  A    between atoms: C_19  and  C_20
REMARK    9  A    between atoms: C_26  and  C_27
REMARK                            x       y       z     vdW  Elec       q    Type
REMARK                         _______ _______ _______ _____ _____    ______ ____
ROOT
ATOM      1  O   UNL     1      -1.029  -0.488  25.987  0.00  0.00    -0.371 OA
ATOM      9  C   UNL     1      -0.521  -1.094  24.787  0.00  0.00    +0.165 C 
ATOM     10  C   UNL     1      -1.712  -1.768  24.119  0.00  0.00    +0.164 C 
ATOM     11  C   UNL     1      -2.503  -2.231  25.330  0.00  0.00    +0.111 C 
ATOM     16  C   UNL     1      -2.318  -1.057  26.277  0.00  0.00    +0.181 C 
ENDROOT
BRANCH  10   2
ATOM      2  O   UNL     1      -1.313  -2.839  23.286  0.00  0.00    -0.388 OA
ATOM     30  H   UNL     1      -1.201  -2.499  22.383  0.00  0.00    +0.210 HD
ENDBRANCH  10   2
BRANCH  11   6
ATOM      6  N   UNL     1      -3.899  -2.513  25.043  0.00  0.00    -0.305 NA
ATOM     29  H   UNL     1      -4.460  -2.291  25.866  0.00  0.00    +0.123 HD
BRANCH   6  19
ATOM     19  C   UNL     1      -4.376  -1.716  23.918  0.00  0.00    +0.116 C 
BRANCH  19  20
ATOM     20  C   UNL     1      -4.072  -0.253  24.097  0.00  0.00    -0.033 A 
ATOM     21  C   UNL     1      -3.241   0.402  23.188  0.00  0.00    +0.007 A 
ATOM     22  C   UNL     1      -4.620   0.447  25.172  0.00  0.00    +0.007 A 
ATOM     23  C   UNL     1      -2.959   1.758  23.354  0.00  0.00    +0.023 A 
ATOM     24  C   UNL     1      -4.338   1.803  25.337  0.00  0.00    +0.023 A 
ATOM     25  C   UNL     1      -3.507   2.459  24.428  0.00  0.00    +0.033 A 
BRANCH  25   7
ATOM      4  O   UNL     1      -1.037   3.827  25.473  0.00  0.00    -0.276 OA
ATOM      7  N   UNL     1      -3.224   3.816  24.594  0.00  0.00    -0.286 N 
ATOM     26  C   UNL     1      -2.052   4.400  25.090  0.00  0.00    +0.214 C 
ATOM     27  C   UNL     1      -2.143   5.905  25.111  0.00  0.00    +0.109 C 
ATOM     31  H   UNL     1      -3.970   4.451  24.318  0.00  0.00    +0.155 HD
ENDBRANCH  25   7
ENDBRANCH  19  20
ENDBRANCH   6  19
ENDBRANCH  11   6
BRANCH   9  17
ATOM     17  C   UNL     1       0.137  -0.039  23.917  0.00  0.00    +0.138 C 
BRANCH  17   5
ATOM      3  O   UNL     1       2.411   1.643  23.265  0.00  0.00    -0.276 OA
ATOM      5  N   UNL     1       1.434  -0.461  23.474  0.00  0.00    -0.313 N 
ATOM     18  C   UNL     1       2.470   0.418  23.183  0.00  0.00    +0.216 C 
ATOM     28  H   UNL     1       1.592  -1.459  23.374  0.00  0.00    +0.149 HD
BRANCH  18   8
ATOM      8  C   UNL     1       3.725  -0.286  22.766  0.00  0.00    +0.075 C 
ATOM     12  C   UNL     1       4.066  -1.399  23.764  0.00  0.00    +0.013 C 
ATOM     13  C   UNL     1       4.913   0.677  22.776  0.00  0.00    +0.013 C 
ATOM     14  C   UNL     1       5.482  -1.105  24.247  0.00  0.00    +0.001 C 
ATOM     15  C   UNL     1       5.622   0.399  24.093  0.00  0.00    +0.001 C 
ENDBRANCH  18   8
ENDBRANCH  17   5
ENDBRANCH   9  17
TORSDOF 8
ENDMDL
MODEL 5
REMARK VINA RESULT:      -1.8      1.882      6.469
REMARK  Name = 75536562
REMARK  9 active torsions:
REMARK  status: ('A' for Active; 'I' for Inactive)
REMARK    1  A    between atoms: O_2  and  C_10
REMARK    2  A    between atoms: N_5  and  C_17
REMARK    3  A    between atoms: N_6  and  C_11
REMARK    4  A    between atoms: N_6  and  C_19
REMARK    5  A    between atoms: N_7  and  C_25
REMARK    6  A    between atoms: C_8  and  C_18
REMARK    7  A    between atoms: C_9  and  C_17
REMARK    8  A    between atoms: C_19  and  C_20
REMARK    9  A    between atoms: C_26  and  C_27
REMARK                            x       y       z     vdW  Elec       q    Type
REMARK                         _______ _______ _______ _____ _____    ______ ____
ROOT
ATOM      1  O   UNL     1      -1.078  -0.783  26.212  0.00  0.00    -0.371 OA
ATOM      9  C   UNL     1      -0.391  -1.302  25.061  0.00  0.00    +0.165 C 
ATOM     10  C   UNL     1      -1.443  -2.036  24.241  0.00  0.00    +0.164 C 
ATOM     11  C   UNL     1      -2.325  -2.605  25.337  0.00  0.00    +0.111 C 
ATOM     16  C   UNL     1      -2.342  -1.457  26.334  0.00  0.00    +0.181 C 
ENDROOT
BRANCH  10   2
ATOM      2  O   UNL     1      -0.869  -3.041  23.427  0.00  0.00    -0.388 OA
ATOM     30  H   UNL     1      -0.393  -3.665  24.001  0.00  0.00    +0.210 HD
ENDBRANCH  10   2
BRANCH  11   6
ATOM      6  N   UNL     1      -3.654  -2.978  24.882  0.00  0.00    -0.305 NA
ATOM     29  H   UNL     1      -4.332  -2.747  25.608  0.00  0.00    +0.123 HD
BRANCH   6  19
ATOM     19  C   UNL     1      -4.011  -2.268  23.660  0.00  0.00    +0.116 C 
BRANCH  19  20
ATOM     20  C   UNL     1      -4.264  -0.807  23.913  0.00  0.00    -0.033 A 
ATOM     21  C   UNL     1      -3.460   0.157  23.302  0.00  0.00    +0.007 A 
ATOM     22  C   UNL     1      -5.303  -0.414  24.758  0.00  0.00    +0.007 A 
ATOM     23  C   UNL     1      -3.695   1.511  23.537  0.00  0.00    +0.023 A 
ATOM     24  C   UNL     1      -5.537   0.941  24.992  0.00  0.00    +0.023 A 
ATOM     25  C   UNL     1      -4.732   1.904  24.382  0.00  0.00    +0.033 A 
BRANCH  25   7
ATOM      4  O   UNL     1      -6.417   3.260  26.475  0.00  0.00    -0.276 OA
ATOM      7  N   UNL     1      -4.967   3.259  24.617  0.00  0.00    -0.286 N 
ATOM     26  C   UNL     1      -5.767   3.838  25.611  0.00  0.00    +0.214 C 
ATOM     27  C   UNL     1      -5.759   5.344  25.528  0.00  0.00    +0.109 C 
ATOM     31  H   UNL     1      -4.495   3.899  23.981  0.00  0.00    +0.155 HD
ENDBRANCH  25   7
ENDBRANCH  19  20
ENDBRANCH   6  19
ENDBRANCH  11   6
BRANCH   9  17
ATOM     17  C   UNL     1       0.275  -0.167  24.305  0.00  0.00    +0.138 C 
BRANCH  17   5
ATOM      3  O   UNL     1      -0.590   2.394  23.246  0.00  0.00    -0.276 OA
ATOM      5  N   UNL     1       0.157   1.074  25.014  0.00  0.00    -0.313 N 
ATOM     18  C   UNL     1      -0.268   2.258  24.424  0.00  0.00    +0.216 C 
ATOM     28  H   UNL     1       0.397   1.073  26.001  0.00  0.00    +0.149 HD
BRANCH  18   8
ATOM      8  C   UNL     1      -0.325   3.398  25.394  0.00  0.00    +0.075 C 
ATOM     12  C   UNL     1      -1.574   3.283  26.276  0.00  0.00    +0.013 C 
ATOM     13  C   UNL     1      -0.445   4.732  24.654  0.00  0.00    +0.013 C 
ATOM     14  C   UNL     1      -2.330   4.596  26.100  0.00  0.00    +0.001 C 
ATOM     15  C   UNL     1      -1.926   5.074  24.717  0.00  0.00    +0.001 C 
ENDBRANCH  18   8
ENDBRANCH  17   5
ENDBRANCH   9  17
TORSDOF 8
ENDMDL
MODEL 6
REMARK VINA RESULT:      -1.0      1.929      4.706
REMARK  Name = 75536562
REMARK  9 active torsions:
REMARK  status: ('A' for Active; 'I' for Inactive)
REMARK    1  A    between atoms: O_2  and  C_10
REMARK    2  A    between atoms: N_5  and  C_17
REMARK    3  A    between atoms: N_6  and  C_11
REMARK    4  A    between atoms: N_6  and  C_19
REMARK    5  A    between atoms: N_7  and  C_25
REMARK    6  A    between atoms: C_8  and  C_18
REMARK    7  A    between atoms: C_9  and  C_17
REMARK    8  A    between atoms: C_19  and  C_20
REMARK    9  A    between atoms: C_26  and  C_27
REMARK                            x       y       z     vdW  Elec       q    Type
REMARK                         _______ _______ _______ _____ _____    ______ ____
ROOT
ATOM      1  O   UNL     1      -0.543   4.852  24.148  0.00  0.00    -0.371 OA
ATOM      9  C   UNL     1      -0.076   3.802  25.011  0.00  0.00    +0.165 C 
ATOM     10  C   UNL     1      -1.286   3.353  25.819  0.00  0.00    +0.164 C 
ATOM     11  C   UNL     1      -2.024   4.668  25.995  0.00  0.00    +0.111 C 
ATOM     16  C   UNL     1      -1.815   5.314  24.635  0.00  0.00    +0.181 C 
ENDROOT
BRANCH  10   2
ATOM      2  O   UNL     1      -0.909   2.771  27.052  0.00  0.00    -0.388 OA
ATOM     30  H   UNL     1      -1.005   3.441  27.749  0.00  0.00    +0.210 HD
ENDBRANCH  10   2
BRANCH  11   6
ATOM      6  N   UNL     1      -3.428   4.507  26.334  0.00  0.00    -0.305 NA
ATOM     29  H   UNL     1      -3.759   5.357  26.793  0.00  0.00    +0.123 HD
BRANCH   6  19
ATOM     19  C   UNL     1      -4.234   4.271  25.143  0.00  0.00    +0.116 C 
BRANCH  19  20
ATOM     20  C   UNL     1      -4.237   2.820  24.745  0.00  0.00    -0.033 A 
ATOM     21  C   UNL     1      -3.523   2.403  23.621  0.00  0.00    +0.007 A 
ATOM     22  C   UNL     1      -4.953   1.890  25.501  0.00  0.00    +0.007 A 
ATOM     23  C   UNL     1      -3.526   1.058  23.253  0.00  0.00    +0.023 A 
ATOM     24  C   UNL     1      -4.955   0.545  25.131  0.00  0.00    +0.023 A 
ATOM     25  C   UNL     1      -4.241   0.129  24.007  0.00  0.00    +0.033 A 
BRANCH  25   7
ATOM      4  O   UNL     1      -3.670  -2.342  25.627  0.00  0.00    -0.276 OA
ATOM      7  N   UNL     1      -4.244  -1.217  23.638  0.00  0.00    -0.286 N 
ATOM     26  C   UNL     1      -3.967  -2.333  24.438  0.00  0.00    +0.214 C 
ATOM     27  C   UNL     1      -4.078  -3.620  23.659  0.00  0.00    +0.109 C 
ATOM     31  H   UNL     1      -4.477  -1.400  22.663  0.00  0.00    +0.155 HD
ENDBRANCH  25   7
ENDBRANCH  19  20
ENDBRANCH   6  19
ENDBRANCH  11   6
BRANCH   9  17
ATOM     17  C   UNL     1       0.539   2.689  24.182  0.00  0.00    +0.138 C 
BRANCH  17   5
ATOM      3  O   UNL     1       0.946   0.196  22.751  0.00  0.00    -0.276 OA
ATOM      5  N   UNL     1      -0.151   1.448  24.381  0.00  0.00    -0.313 N 
ATOM     18  C   UNL     1       0.109   0.297  23.645  0.00  0.00    +0.216 C 
ATOM     28  H   UNL     1      -0.866   1.420  25.102  0.00  0.00    +0.149 HD
BRANCH  18   8
ATOM      8  C   UNL     1      -0.735  -0.864  24.072  0.00  0.00    +0.075 C 
ATOM     12  C   UNL     1      -1.130  -0.721  25.547  0.00  0.00    +0.013 C 
ATOM     13  C   UNL     1       0.051  -2.172  23.963  0.00  0.00    +0.013 C 
ATOM     14  C   UNL     1      -0.650  -1.997  26.231  0.00  0.00    +0.001 C 
ATOM     15  C   UNL     1       0.522  -2.455  25.382  0.00  0.00    +0.001 C 
ENDBRANCH  18   8
ENDBRANCH  17   5
ENDBRANCH   9  17
TORSDOF 8
ENDMDL
