MODEL 1
REMARK VINA RESULT:      -4.0      0.000      0.000
REMARK  Name = 75536780
REMARK  8 active torsions:
REMARK  status: ('A' for Active; 'I' for Inactive)
REMARK    1  A    between atoms: O_2  and  C_10
REMARK    2  A    between atoms: N_4  and  C_9
REMARK    3  A    between atoms: N_4  and  C_14
REMARK    4  A    between atoms: N_5  and  C_13
REMARK    5  A    between atoms: N_6  and  C_18
REMARK    6  A    between atoms: N_8  and  C_20
REMARK    7  A    between atoms: C_11  and  C_13
REMARK    8  A    between atoms: C_14  and  C_15
REMARK                            x       y       z     vdW  Elec       q    Type
REMARK                         _______ _______ _______ _____ _____    ______ ____
ROOT
ATOM      1  O   UNL     1      -4.589  -0.113  25.010  0.00  0.00    -0.371 OA
ATOM      9  C   UNL     1      -4.608   2.169  24.351  0.00  0.00    +0.111 C 
ATOM     10  C   UNL     1      -3.275   1.554  23.968  0.00  0.00    +0.164 C 
ATOM     11  C   UNL     1      -3.626   0.073  23.959  0.00  0.00    +0.165 C 
ATOM     12  C   UNL     1      -5.112   1.174  25.384  0.00  0.00    +0.181 C 
ENDROOT
BRANCH  10   2
ATOM      2  O   UNL     1      -2.813   1.994  22.705  0.00  0.00    -0.388 OA
ATOM     27  H   UNL     1      -3.414   1.649  22.023  0.00  0.00    +0.210 HD
ENDBRANCH  10   2
BRANCH   9   4
ATOM      4  N   UNL     1      -4.498   3.521  24.874  0.00  0.00    -0.302 NA
ATOM     26  H   UNL     1      -5.406   3.815  25.233  0.00  0.00    +0.123 HD
BRANCH   4  14
ATOM     14  C   UNL     1      -3.518   3.589  25.952  0.00  0.00    +0.156 C 
BRANCH  14  15
ATOM      6  N   UNL     1      -1.034   3.460  25.573  0.00  0.00    -0.336 N 
ATOM      7  N   UNL     1      -2.026   5.344  24.944  0.00  0.00    -0.239 NA
ATOM     15  C   UNL     1      -2.206   4.157  25.480  0.00  0.00    +0.123 A 
ATOM     17  C   UNL     1      -0.044   4.252  25.063  0.00  0.00    +0.106 A 
ATOM     18  C   UNL     1      -0.855   2.131  26.109  0.00  0.00    +0.150 C 
ATOM     19  C   UNL     1      -0.680   5.409  24.681  0.00  0.00    +0.130 A 
ENDBRANCH  14  15
ENDBRANCH   4  14
ENDBRANCH   9   4
BRANCH  11  13
ATOM     13  C   UNL     1      -2.428  -0.831  24.195  0.00  0.00    +0.140 C 
BRANCH  13   5
ATOM      3  O   UNL     1       0.293  -1.402  24.885  0.00  0.00    -0.253 OA
ATOM      5  N   UNL     1      -1.255  -0.322  23.546  0.00  0.00    -0.297 N 
ATOM      8  N   UNL     1       0.990  -0.007  23.131  0.00  0.00    -0.269 N 
ATOM     16  C   UNL     1       0.052  -0.649  23.944  0.00  0.00    +0.304 C 
ATOM     28  H   UNL     1      -1.376   0.319  22.768  0.00  0.00    +0.150 HD
ATOM     29  H   UNL     1       0.622   0.587  22.391  0.00  0.00    +0.156 HD
BRANCH   8  20
ATOM     20  C   UNL     1       2.401  -0.079  23.208  0.00  0.00    +0.035 A 
ATOM     21  C   UNL     1       3.016  -1.245  23.662  0.00  0.00    +0.023 A 
ATOM     22  C   UNL     1       3.176   1.017  22.832  0.00  0.00    +0.023 A 
ATOM     23  C   UNL     1       4.407  -1.316  23.739  0.00  0.00    +0.002 A 
ATOM     24  C   UNL     1       4.567   0.947  22.909  0.00  0.00    +0.002 A 
ATOM     25  C   UNL     1       5.182  -0.219  23.362  0.00  0.00    +0.000 A 
ENDBRANCH   8  20
ENDBRANCH  13   5
ENDBRANCH  11  13
TORSDOF 7
ENDMDL
MODEL 2
REMARK VINA RESULT:      -3.4      2.447      5.381
REMARK  Name = 75536780
REMARK  8 active torsions:
REMARK  status: ('A' for Active; 'I' for Inactive)
REMARK    1  A    between atoms: O_2  and  C_10
REMARK    2  A    between atoms: N_4  and  C_9
REMARK    3  A    between atoms: N_4  and  C_14
REMARK    4  A    between atoms: N_5  and  C_13
REMARK    5  A    between atoms: N_6  and  C_18
REMARK    6  A    between atoms: N_8  and  C_20
REMARK    7  A    between atoms: C_11  and  C_13
REMARK    8  A    between atoms: C_14  and  C_15
REMARK                            x       y       z     vdW  Elec       q    Type
REMARK                         _______ _______ _______ _____ _____    ______ ____
ROOT
ATOM      1  O   UNL     1      -0.249   4.218  23.899  0.00  0.00    -0.371 OA
ATOM      9  C   UNL     1      -1.342   4.140  26.007  0.00  0.00    +0.111 C 
ATOM     10  C   UNL     1      -0.500   2.889  25.840  0.00  0.00    +0.164 C 
ATOM     11  C   UNL     1       0.484   3.338  24.768  0.00  0.00    +0.165 C 
ATOM     12  C   UNL     1      -1.457   4.620  24.569  0.00  0.00    +0.181 C 
ENDROOT
BRANCH  10   2
ATOM      2  O   UNL     1       0.157   2.509  27.033  0.00  0.00    -0.388 OA
ATOM     27  H   UNL     1      -0.105   3.128  27.736  0.00  0.00    +0.210 HD
ENDBRANCH  10   2
BRANCH   9   4
ATOM      4  N   UNL     1      -2.634   3.896  26.627  0.00  0.00    -0.302 NA
ATOM     26  H   UNL     1      -2.687   4.413  27.505  0.00  0.00    +0.123 HD
BRANCH   4  14
ATOM     14  C   UNL     1      -3.723   4.327  25.759  0.00  0.00    +0.156 C 
BRANCH  14  15
ATOM      6  N   UNL     1      -4.919   2.529  24.467  0.00  0.00    -0.336 N 
ATOM      7  N   UNL     1      -5.659   2.916  26.525  0.00  0.00    -0.239 NA
ATOM     15  C   UNL     1      -4.777   3.263  25.613  0.00  0.00    +0.123 A 
ATOM     17  C   UNL     1      -5.956   1.661  24.662  0.00  0.00    +0.106 A 
ATOM     18  C   UNL     1      -4.129   2.640  23.263  0.00  0.00    +0.150 C 
ATOM     19  C   UNL     1      -6.396   1.918  25.939  0.00  0.00    +0.130 A 
ENDBRANCH  14  15
ENDBRANCH   4  14
ENDBRANCH   9   4
BRANCH  11  13
ATOM     13  C   UNL     1       1.064   2.188  23.964  0.00  0.00    +0.140 C 
BRANCH  13   5
ATOM      3  O   UNL     1      -1.498   1.149  23.213  0.00  0.00    -0.253 OA
ATOM      5  N   UNL     1       0.497   0.933  24.365  0.00  0.00    -0.297 N 
ATOM      8  N   UNL     1      -1.055  -0.764  24.500  0.00  0.00    -0.269 N 
ATOM     16  C   UNL     1      -0.770   0.490  23.954  0.00  0.00    +0.304 C 
ATOM     28  H   UNL     1       1.036   0.341  24.989  0.00  0.00    +0.150 HD
ATOM     29  H   UNL     1      -0.341  -1.175  25.096  0.00  0.00    +0.156 HD
BRANCH   8  20
ATOM     20  C   UNL     1      -2.224  -1.543  24.325  0.00  0.00    +0.035 A 
ATOM     21  C   UNL     1      -2.160  -2.931  24.434  0.00  0.00    +0.023 A 
ATOM     22  C   UNL     1      -3.440  -0.921  24.043  0.00  0.00    +0.023 A 
ATOM     23  C   UNL     1      -3.312  -3.699  24.262  0.00  0.00    +0.002 A 
ATOM     24  C   UNL     1      -4.592  -1.687  23.871  0.00  0.00    +0.002 A 
ATOM     25  C   UNL     1      -4.528  -3.076  23.980  0.00  0.00    +0.000 A 
ENDBRANCH   8  20
ENDBRANCH  13   5
ENDBRANCH  11  13
TORSDOF 7
ENDMDL
MODEL 3
REMARK VINA RESULT:      -3.0      2.394      5.571
REMARK  Name = 75536780
REMARK  8 active torsions:
REMARK  status: ('A' for Active; 'I' for Inactive)
REMARK    1  A    between atoms: O_2  and  C_10
REMARK    2  A    between atoms: N_4  and  C_9
REMARK    3  A    between atoms: N_4  and  C_14
REMARK    4  A    between atoms: N_5  and  C_13
REMARK    5  A    between atoms: N_6  and  C_18
REMARK    6  A    between atoms: N_8  and  C_20
REMARK    7  A    between atoms: C_11  and  C_13
REMARK    8  A    between atoms: C_14  and  C_15
REMARK                            x       y       z     vdW  Elec       q    Type
REMARK                         _______ _______ _______ _____ _____    ______ ____
ROOT
ATOM      1  O   UNL     1      -3.453   3.951  26.769  0.00  0.00    -0.371 OA
ATOM      9  C   UNL     1      -1.836   4.416  25.093  0.00  0.00    +0.111 C 
ATOM     10  C   UNL     1      -3.183   4.192  24.432  0.00  0.00    +0.164 C 
ATOM     11  C   UNL     1      -4.128   4.443  25.599  0.00  0.00    +0.165 C 
ATOM     12  C   UNL     1      -2.060   3.780  26.456  0.00  0.00    +0.181 C 
ENDROOT
BRANCH  10   2
ATOM      2  O   UNL     1      -3.420   5.083  23.360  0.00  0.00    -0.388 OA
ATOM     27  H   UNL     1      -3.896   4.602  22.662  0.00  0.00    +0.210 HD
ENDBRANCH  10   2
BRANCH   9   4
ATOM      4  N   UNL     1      -0.724   3.822  24.368  0.00  0.00    -0.302 NA
ATOM     26  H   UNL     1      -0.069   4.557  24.100  0.00  0.00    +0.123 HD
BRANCH   4  14
ATOM     14  C   UNL     1      -0.024   2.842  25.190  0.00  0.00    +0.156 C 
BRANCH  14  15
ATOM      6  N   UNL     1      -0.424   0.368  24.963  0.00  0.00    -0.336 N 
ATOM      7  N   UNL     1       0.781   1.319  23.359  0.00  0.00    -0.239 NA
ATOM     15  C   UNL     1       0.127   1.523  24.481  0.00  0.00    +0.123 A 
ATOM     17  C   UNL     1      -0.102  -0.634  24.092  0.00  0.00    +0.106 A 
ATOM     18  C   UNL     1      -1.206   0.218  26.168  0.00  0.00    +0.150 C 
ATOM     19  C   UNL     1       0.641  -0.024  23.111  0.00  0.00    +0.130 A 
ENDBRANCH  14  15
ENDBRANCH   4  14
ENDBRANCH   9   4
BRANCH  11  13
ATOM     13  C   UNL     1      -5.468   3.745  25.448  0.00  0.00    +0.140 C 
BRANCH  13   5
ATOM      3  O   UNL     1      -4.122   1.702  23.959  0.00  0.00    -0.253 OA
ATOM      5  N   UNL     1      -5.376   2.356  25.790  0.00  0.00    -0.297 N 
ATOM      8  N   UNL     1      -4.773   0.141  25.587  0.00  0.00    -0.269 N 
ATOM     16  C   UNL     1      -4.695   1.410  25.007  0.00  0.00    +0.304 C 
ATOM     28  H   UNL     1      -5.838   2.038  26.637  0.00  0.00    +0.150 HD
ATOM     29  H   UNL     1      -5.289   0.070  26.461  0.00  0.00    +0.156 HD
BRANCH   8  20
ATOM     20  C   UNL     1      -4.220  -1.069  25.106  0.00  0.00    +0.035 A 
ATOM     21  C   UNL     1      -3.355  -1.809  25.911  0.00  0.00    +0.023 A 
ATOM     22  C   UNL     1      -4.540  -1.522  23.826  0.00  0.00    +0.023 A 
ATOM     23  C   UNL     1      -2.809  -3.002  25.438  0.00  0.00    +0.002 A 
ATOM     24  C   UNL     1      -3.995  -2.715  23.352  0.00  0.00    +0.002 A 
ATOM     25  C   UNL     1      -3.129  -3.454  24.157  0.00  0.00    +0.000 A 
ENDBRANCH   8  20
ENDBRANCH  13   5
ENDBRANCH  11  13
TORSDOF 7
ENDMDL
MODEL 4
REMARK VINA RESULT:      -2.9      2.114      4.115
REMARK  Name = 75536780
REMARK  8 active torsions:
REMARK  status: ('A' for Active; 'I' for Inactive)
REMARK    1  A    between atoms: O_2  and  C_10
REMARK    2  A    between atoms: N_4  and  C_9
REMARK    3  A    between atoms: N_4  and  C_14
REMARK    4  A    between atoms: N_5  and  C_13
REMARK    5  A    between atoms: N_6  and  C_18
REMARK    6  A    between atoms: N_8  and  C_20
REMARK    7  A    between atoms: C_11  and  C_13
REMARK    8  A    between atoms: C_14  and  C_15
REMARK                            x       y       z     vdW  Elec       q    Type
REMARK                         _______ _______ _______ _____ _____    ______ ____
ROOT
ATOM      1  O   UNL     1      -3.298   3.926  23.724  0.00  0.00    -0.371 OA
ATOM      9  C   UNL     1      -4.804   2.573  24.964  0.00  0.00    +0.111 C 
ATOM     10  C   UNL     1      -3.734   3.105  25.898  0.00  0.00    +0.164 C 
ATOM     11  C   UNL     1      -3.225   4.303  25.109  0.00  0.00    +0.165 C 
ATOM     12  C   UNL     1      -4.146   2.771  23.608  0.00  0.00    +0.181 C 
ENDROOT
BRANCH  10   2
ATOM      2  O   UNL     1      -4.250   3.485  27.159  0.00  0.00    -0.388 OA
ATOM     27  H   UNL     1      -5.187   3.232  27.194  0.00  0.00    +0.210 HD
ENDBRANCH  10   2
BRANCH   9   4
ATOM      4  N   UNL     1      -5.166   1.188  25.221  0.00  0.00    -0.302 NA
ATOM     26  H   UNL     1      -6.180   1.090  25.158  0.00  0.00    +0.123 HD
BRANCH   4  14
ATOM     14  C   UNL     1      -4.544   0.294  24.250  0.00  0.00    +0.156 C 
BRANCH  14  15
ATOM      6  N   UNL     1      -3.043  -1.665  24.741  0.00  0.00    -0.336 N 
ATOM      7  N   UNL     1      -2.280   0.331  25.344  0.00  0.00    -0.239 NA
ATOM     15  C   UNL     1      -3.278  -0.319  24.786  0.00  0.00    +0.123 A 
ATOM     17  C   UNL     1      -1.818  -1.887  25.304  0.00  0.00    +0.106 A 
ATOM     18  C   UNL     1      -3.918  -2.680  24.201  0.00  0.00    +0.150 C 
ATOM     19  C   UNL     1      -1.367  -0.641  25.668  0.00  0.00    +0.130 A 
ENDBRANCH  14  15
ENDBRANCH   4  14
ENDBRANCH   9   4
BRANCH  11  13
ATOM     13  C   UNL     1      -1.801   4.695  25.461  0.00  0.00    +0.140 C 
BRANCH  13   5
ATOM      3  O   UNL     1      -0.380   3.673  23.193  0.00  0.00    -0.253 OA
ATOM      5  N   UNL     1      -0.926   3.559  25.439  0.00  0.00    -0.297 N 
ATOM      8  N   UNL     1       0.518   1.992  24.563  0.00  0.00    -0.269 N 
ATOM     16  C   UNL     1      -0.262   3.117  24.283  0.00  0.00    +0.304 C 
ATOM     28  H   UNL     1      -0.791   3.040  26.301  0.00  0.00    +0.150 HD
ATOM     29  H   UNL     1       0.505   1.654  25.522  0.00  0.00    +0.156 HD
BRANCH   8  20
ATOM     20  C   UNL     1       1.332   1.255  23.670  0.00  0.00    +0.035 A 
ATOM     21  C   UNL     1       0.785   0.209  22.928  0.00  0.00    +0.023 A 
ATOM     22  C   UNL     1       2.683   1.574  23.534  0.00  0.00    +0.023 A 
ATOM     23  C   UNL     1       1.587  -0.518  22.049  0.00  0.00    +0.002 A 
ATOM     24  C   UNL     1       3.486   0.849  22.655  0.00  0.00    +0.002 A 
ATOM     25  C   UNL     1       2.938  -0.197  21.913  0.00  0.00    +0.000 A 
ENDBRANCH   8  20
ENDBRANCH  13   5
ENDBRANCH  11  13
TORSDOF 7
ENDMDL
MODEL 5
REMARK VINA RESULT:      -2.3      2.820      4.974
REMARK  Name = 75536780
REMARK  8 active torsions:
REMARK  status: ('A' for Active; 'I' for Inactive)
REMARK    1  A    between atoms: O_2  and  C_10
REMARK    2  A    between atoms: N_4  and  C_9
REMARK    3  A    between atoms: N_4  and  C_14
REMARK    4  A    between atoms: N_5  and  C_13
REMARK    5  A    between atoms: N_6  and  C_18
REMARK    6  A    between atoms: N_8  and  C_20
REMARK    7  A    between atoms: C_11  and  C_13
REMARK    8  A    between atoms: C_14  and  C_15
REMARK                            x       y       z     vdW  Elec       q    Type
REMARK                         _______ _______ _______ _____ _____    ______ ____
ROOT
ATOM      1  O   UNL     1      -1.876  -1.666  26.468  0.00  0.00    -0.371 OA
ATOM      9  C   UNL     1      -3.757  -2.073  25.077  0.00  0.00    +0.111 C 
ATOM     10  C   UNL     1      -2.497  -2.130  24.234  0.00  0.00    +0.164 C 
ATOM     11  C   UNL     1      -1.441  -2.384  25.301  0.00  0.00    +0.165 C 
ATOM     12  C   UNL     1      -3.264  -1.326  26.306  0.00  0.00    +0.181 C 
ENDROOT
BRANCH  10   2
ATOM      2  O   UNL     1      -2.531  -3.164  23.270  0.00  0.00    -0.388 OA
ATOM     27  H   UNL     1      -2.950  -2.817  22.465  0.00  0.00    +0.210 HD
ENDBRANCH  10   2
BRANCH   9   4
ATOM      4  N   UNL     1      -4.870  -1.407  24.418  0.00  0.00    -0.302 NA
ATOM     26  H   UNL     1      -5.601  -1.219  25.104  0.00  0.00    +0.123 HD
BRANCH   4  14
ATOM     14  C   UNL     1      -4.447  -0.145  23.821  0.00  0.00    +0.156 C 
BRANCH  14  15
ATOM      6  N   UNL     1      -4.558   2.320  24.314  0.00  0.00    -0.336 N 
ATOM      7  N   UNL     1      -5.746   0.998  25.645  0.00  0.00    -0.239 NA
ATOM     15  C   UNL     1      -4.934   1.039  24.612  0.00  0.00    +0.123 A 
ATOM     17  C   UNL     1      -5.169   3.146  25.214  0.00  0.00    +0.106 A 
ATOM     18  C   UNL     1      -3.677   2.739  23.249  0.00  0.00    +0.150 C 
ATOM     19  C   UNL     1      -5.897   2.308  26.025  0.00  0.00    +0.130 A 
ENDBRANCH  14  15
ENDBRANCH   4  14
ENDBRANCH   9   4
BRANCH  11  13
ATOM     13  C   UNL     1      -0.054  -1.917  24.898  0.00  0.00    +0.140 C 
BRANCH  13   5
ATOM      3  O   UNL     1      -1.414   0.446  24.020  0.00  0.00    -0.253 OA
ATOM      5  N   UNL     1       0.193  -0.574  25.336  0.00  0.00    -0.297 N 
ATOM      8  N   UNL     1      -0.061   1.713  25.461  0.00  0.00    -0.269 N 
ATOM     16  C   UNL     1      -0.518   0.538  24.857  0.00  0.00    +0.304 C 
ATOM     28  H   UNL     1       0.929  -0.419  26.017  0.00  0.00    +0.150 HD
ATOM     29  H   UNL     1       0.692   1.615  26.138  0.00  0.00    +0.156 HD
BRANCH   8  20
ATOM     20  C   UNL     1      -0.519   3.035  25.248  0.00  0.00    +0.035 A 
ATOM     21  C   UNL     1      -1.574   3.539  26.008  0.00  0.00    +0.023 A 
ATOM     22  C   UNL     1       0.084   3.833  24.276  0.00  0.00    +0.023 A 
ATOM     23  C   UNL     1      -2.026   4.842  25.798  0.00  0.00    +0.002 A 
ATOM     24  C   UNL     1      -0.367   5.135  24.065  0.00  0.00    +0.002 A 
ATOM     25  C   UNL     1      -1.421   5.639  24.825  0.00  0.00    +0.000 A 
ENDBRANCH   8  20
ENDBRANCH  13   5
ENDBRANCH  11  13
TORSDOF 7
ENDMDL
MODEL 6
REMARK VINA RESULT:      -2.3      1.205      1.906
REMARK  Name = 75536780
REMARK  8 active torsions:
REMARK  status: ('A' for Active; 'I' for Inactive)
REMARK    1  A    between atoms: O_2  and  C_10
REMARK    2  A    between atoms: N_4  and  C_9
REMARK    3  A    between atoms: N_4  and  C_14
REMARK    4  A    between atoms: N_5  and  C_13
REMARK    5  A    between atoms: N_6  and  C_18
REMARK    6  A    between atoms: N_8  and  C_20
REMARK    7  A    between atoms: C_11  and  C_13
REMARK    8  A    between atoms: C_14  and  C_15
REMARK                            x       y       z     vdW  Elec       q    Type
REMARK                         _______ _______ _______ _____ _____    ______ ____
ROOT
ATOM      1  O   UNL     1      -3.846  -0.819  25.996  0.00  0.00    -0.371 OA
ATOM      9  C   UNL     1      -4.538   0.879  24.487  0.00  0.00    +0.111 C 
ATOM     10  C   UNL     1      -3.412   0.085  23.854  0.00  0.00    +0.164 C 
ATOM     11  C   UNL     1      -3.471  -1.204  24.663  0.00  0.00    +0.165 C 
ATOM     12  C   UNL     1      -4.374   0.518  25.955  0.00  0.00    +0.181 C 
ENDROOT
BRANCH  10   2
ATOM      2  O   UNL     1      -3.617  -0.149  22.474  0.00  0.00    -0.388 OA
ATOM     27  H   UNL     1      -4.260  -0.871  22.379  0.00  0.00    +0.210 HD
ENDBRANCH  10   2
BRANCH   9   4
ATOM      4  N   UNL     1      -4.452   2.311  24.244  0.00  0.00    -0.302 NA
ATOM     26  H   UNL     1      -4.419   2.801  25.137  0.00  0.00    +0.123 HD
BRANCH   4  14
ATOM     14  C   UNL     1      -3.255   2.641  23.479  0.00  0.00    +0.156 C 
BRANCH  14  15
ATOM      6  N   UNL     1      -1.935   3.277  25.524  0.00  0.00    -0.336 N 
ATOM      7  N   UNL     1      -0.906   1.961  24.061  0.00  0.00    -0.239 NA
ATOM     15  C   UNL     1      -2.017   2.607  24.335  0.00  0.00    +0.123 A 
ATOM     17  C   UNL     1      -0.692   3.041  26.042  0.00  0.00    +0.106 A 
ATOM     18  C   UNL     1      -2.961   4.088  26.136  0.00  0.00    +0.150 C 
ATOM     19  C   UNL     1      -0.076   2.227  25.122  0.00  0.00    +0.130 A 
ENDBRANCH  14  15
ENDBRANCH   4  14
ENDBRANCH   9   4
BRANCH  11  13
ATOM     13  C   UNL     1      -2.151  -1.954  24.696  0.00  0.00    +0.140 C 
BRANCH  13   5
ATOM      3  O   UNL     1       0.659  -1.835  25.241  0.00  0.00    -0.253 OA
ATOM      5  N   UNL     1      -1.153  -1.290  23.909  0.00  0.00    -0.297 N 
ATOM      8  N   UNL     1       0.942  -0.555  23.294  0.00  0.00    -0.269 N 
ATOM     16  C   UNL     1       0.211  -1.276  24.241  0.00  0.00    +0.304 C 
ATOM     28  H   UNL     1      -1.452  -0.794  23.075  0.00  0.00    +0.150 HD
ATOM     29  H   UNL     1       0.416  -0.152  22.521  0.00  0.00    +0.156 HD
BRANCH   8  20
ATOM     20  C   UNL     1       2.336  -0.311  23.273  0.00  0.00    +0.035 A 
ATOM     21  C   UNL     1       2.823   0.912  22.813  0.00  0.00    +0.023 A 
ATOM     22  C   UNL     1       3.222  -1.295  23.710  0.00  0.00    +0.023 A 
ATOM     23  C   UNL     1       4.197   1.152  22.791  0.00  0.00    +0.002 A 
ATOM     24  C   UNL     1       4.595  -1.056  23.690  0.00  0.00    +0.002 A 
ATOM     25  C   UNL     1       5.083   0.167  23.230  0.00  0.00    +0.000 A 
ENDBRANCH   8  20
ENDBRANCH  13   5
ENDBRANCH  11  13
TORSDOF 7
ENDMDL
MODEL 7
REMARK VINA RESULT:      -1.5      2.482      6.005
REMARK  Name = 75536780
REMARK  8 active torsions:
REMARK  status: ('A' for Active; 'I' for Inactive)
REMARK    1  A    between atoms: O_2  and  C_10
REMARK    2  A    between atoms: N_4  and  C_9
REMARK    3  A    between atoms: N_4  and  C_14
REMARK    4  A    between atoms: N_5  and  C_13
REMARK    5  A    between atoms: N_6  and  C_18
REMARK    6  A    between atoms: N_8  and  C_20
REMARK    7  A    between atoms: C_11  and  C_13
REMARK    8  A    between atoms: C_14  and  C_15
REMARK                            x       y       z     vdW  Elec       q    Type
REMARK                         _______ _______ _______ _____ _____    ______ ____
ROOT
ATOM      1  O   UNL     1      -0.980  -1.897  23.263  0.00  0.00    -0.371 OA
ATOM      9  C   UNL     1       0.107  -0.413  24.765  0.00  0.00    +0.111 C 
ATOM     10  C   UNL     1      -1.205  -0.865  25.379  0.00  0.00    +0.164 C 
ATOM     11  C   UNL     1      -1.474  -2.139  24.591  0.00  0.00    +0.165 C 
ATOM     12  C   UNL     1      -0.115  -0.748  23.299  0.00  0.00    +0.181 C 
ENDROOT
BRANCH  10   2
ATOM      2  O   UNL     1      -1.101  -1.115  26.767  0.00  0.00    -0.388 OA
ATOM     27  H   UNL     1      -0.209  -1.453  26.951  0.00  0.00    +0.210 HD
ENDBRANCH  10   2
BRANCH   9   4
ATOM      4  N   UNL     1       0.400   0.994  24.986  0.00  0.00    -0.302 NA
ATOM     26  H   UNL     1       0.640   1.430  24.096  0.00  0.00    +0.123 HD
BRANCH   4  14
ATOM     14  C   UNL     1      -0.750   1.687  25.557  0.00  0.00    +0.156 C 
BRANCH  14  15
ATOM      6  N   UNL     1      -1.618   4.042  25.736  0.00  0.00    -0.336 N 
ATOM      7  N   UNL     1      -0.120   3.666  24.140  0.00  0.00    -0.239 NA
ATOM     15  C   UNL     1      -0.808   3.127  25.122  0.00  0.00    +0.123 A 
ATOM     17  C   UNL     1      -1.433   5.240  25.105  0.00  0.00    +0.106 A 
ATOM     18  C   UNL     1      -2.509   3.803  26.847  0.00  0.00    +0.150 C 
ATOM     19  C   UNL     1      -0.505   4.983  24.125  0.00  0.00    +0.130 A 
ENDBRANCH  14  15
ENDBRANCH   4  14
ENDBRANCH   9   4
BRANCH  11  13
ATOM     13  C   UNL     1      -2.945  -2.511  24.531  0.00  0.00    +0.140 C 
BRANCH  13   5
ATOM      3  O   UNL     1      -3.164   0.213  23.672  0.00  0.00    -0.253 OA
ATOM      5  N   UNL     1      -3.765  -1.491  25.117  0.00  0.00    -0.297 N 
ATOM      8  N   UNL     1      -4.701   0.595  25.404  0.00  0.00    -0.269 N 
ATOM     16  C   UNL     1      -3.820  -0.173  24.638  0.00  0.00    +0.304 C 
ATOM     28  H   UNL     1      -4.325  -1.733  25.929  0.00  0.00    +0.150 HD
ATOM     29  H   UNL     1      -5.167   0.121  26.174  0.00  0.00    +0.156 HD
BRANCH   8  20
ATOM     20  C   UNL     1      -5.030   1.961  25.243  0.00  0.00    +0.035 A 
ATOM     21  C   UNL     1      -4.433   2.707  24.227  0.00  0.00    +0.023 A 
ATOM     22  C   UNL     1      -5.950   2.563  26.101  0.00  0.00    +0.023 A 
ATOM     23  C   UNL     1      -4.757   4.055  24.068  0.00  0.00    +0.002 A 
ATOM     24  C   UNL     1      -6.274   3.910  25.943  0.00  0.00    +0.002 A 
ATOM     25  C   UNL     1      -5.677   4.656  24.927  0.00  0.00    +0.000 A 
ENDBRANCH   8  20
ENDBRANCH  13   5
ENDBRANCH  11  13
TORSDOF 7
ENDMDL
MODEL 8
REMARK VINA RESULT:      -1.3     14.571     16.214
REMARK  Name = 75536780
REMARK  8 active torsions:
REMARK  status: ('A' for Active; 'I' for Inactive)
REMARK    1  A    between atoms: O_2  and  C_10
REMARK    2  A    between atoms: N_4  and  C_9
REMARK    3  A    between atoms: N_4  and  C_14
REMARK    4  A    between atoms: N_5  and  C_13
REMARK    5  A    between atoms: N_6  and  C_18
REMARK    6  A    between atoms: N_8  and  C_20
REMARK    7  A    between atoms: C_11  and  C_13
REMARK    8  A    between atoms: C_14  and  C_15
REMARK                            x       y       z     vdW  Elec       q    Type
REMARK                         _______ _______ _______ _____ _____    ______ ____
ROOT
ATOM      1  O   UNL     1      -6.056  -9.490  11.161  0.00  0.00    -0.371 OA
ATOM      9  C   UNL     1      -7.588  -9.672  12.967  0.00  0.00    +0.111 C 
ATOM     10  C   UNL     1      -6.349 -10.487  13.285  0.00  0.00    +0.164 C 
ATOM     11  C   UNL     1      -5.331  -9.852  12.348  0.00  0.00    +0.165 C 
ATOM     12  C   UNL     1      -7.463  -9.510  11.460  0.00  0.00    +0.181 C 
ENDROOT
BRANCH  10   2
ATOM      2  O   UNL     1      -5.957 -10.379  14.640  0.00  0.00    -0.388 OA
ATOM     27  H   UNL     1      -5.880  -9.436  14.861  0.00  0.00    +0.210 HD
ENDBRANCH  10   2
BRANCH   9   4
ATOM      4  N   UNL     1      -8.829 -10.317  13.365  0.00  0.00    -0.302 NA
ATOM     26  H   UNL     1      -8.895 -11.226  12.908  0.00  0.00    +0.123 HD
BRANCH   4  14
ATOM     14  C   UNL     1      -8.880 -10.509  14.810  0.00  0.00    +0.156 C 
BRANCH  14  15
ATOM      6  N   UNL     1      -9.228  -9.059  16.837  0.00  0.00    -0.336 N 
ATOM      7  N   UNL     1     -10.233  -8.396  14.972  0.00  0.00    -0.239 NA
ATOM     15  C   UNL     1      -9.461  -9.311  15.513  0.00  0.00    +0.123 A 
ATOM     17  C   UNL     1      -9.893  -7.910  17.159  0.00  0.00    +0.106 A 
ATOM     18  C   UNL     1      -8.429  -9.851  17.743  0.00  0.00    +0.150 C 
ATOM     19  C   UNL     1     -10.506  -7.519  15.992  0.00  0.00    +0.130 A 
ENDBRANCH  14  15
ENDBRANCH   4  14
ENDBRANCH   9   4
BRANCH  11  13
ATOM     13  C   UNL     1      -4.185 -10.781  11.987  0.00  0.00    +0.140 C 
BRANCH  13   5
ATOM      3  O   UNL     1      -1.815  -9.729  13.204  0.00  0.00    -0.253 OA
ATOM      5  N   UNL     1      -3.126 -10.073  11.329  0.00  0.00    -0.297 N 
ATOM      8  N   UNL     1      -1.133  -8.940  11.101  0.00  0.00    -0.269 N 
ATOM     16  C   UNL     1      -1.991  -9.586  11.996  0.00  0.00    +0.304 C 
ATOM     28  H   UNL     1      -3.209  -9.905  10.331  0.00  0.00    +0.150 HD
ATOM     29  H   UNL     1      -1.428  -8.908  10.128  0.00  0.00    +0.156 HD
BRANCH   8  20
ATOM     20  C   UNL     1       0.107  -8.318  11.382  0.00  0.00    +0.035 A 
ATOM     21  C   UNL     1       1.264  -8.742  10.728  0.00  0.00    +0.023 A 
ATOM     22  C   UNL     1       0.173  -7.282  12.313  0.00  0.00    +0.023 A 
ATOM     23  C   UNL     1       2.486  -8.130  11.004  0.00  0.00    +0.002 A 
ATOM     24  C   UNL     1       1.394  -6.670  12.590  0.00  0.00    +0.002 A 
ATOM     25  C   UNL     1       2.550  -7.094  11.936  0.00  0.00    +0.000 A 
ENDBRANCH   8  20
ENDBRANCH  13   5
ENDBRANCH  11  13
TORSDOF 7
ENDMDL
MODEL 9
REMARK VINA RESULT:      -0.8      2.568      5.966
REMARK  Name = 75536780
REMARK  8 active torsions:
REMARK  status: ('A' for Active; 'I' for Inactive)
REMARK    1  A    between atoms: O_2  and  C_10
REMARK    2  A    between atoms: N_4  and  C_9
REMARK    3  A    between atoms: N_4  and  C_14
REMARK    4  A    between atoms: N_5  and  C_13
REMARK    5  A    between atoms: N_6  and  C_18
REMARK    6  A    between atoms: N_8  and  C_20
REMARK    7  A    between atoms: C_11  and  C_13
REMARK    8  A    between atoms: C_14  and  C_15
REMARK                            x       y       z     vdW  Elec       q    Type
REMARK                         _______ _______ _______ _____ _____    ______ ____
ROOT
ATOM      1  O   UNL     1      -1.912  -3.051  23.490  0.00  0.00    -0.371 OA
ATOM      9  C   UNL     1      -0.993  -1.948  25.381  0.00  0.00    +0.111 C 
ATOM     10  C   UNL     1      -2.498  -1.751  25.376  0.00  0.00    +0.164 C 
ATOM     11  C   UNL     1      -2.941  -2.901  24.482  0.00  0.00    +0.165 C 
ATOM     12  C   UNL     1      -0.738  -2.352  23.938  0.00  0.00    +0.181 C 
ENDROOT
BRANCH  10   2
ATOM      2  O   UNL     1      -3.064  -1.841  26.669  0.00  0.00    -0.388 OA
ATOM     27  H   UNL     1      -2.802  -1.052  27.172  0.00  0.00    +0.210 HD
ENDBRANCH  10   2
BRANCH   9   4
ATOM      4  N   UNL     1      -0.251  -0.761  25.777  0.00  0.00    -0.302 NA
ATOM     26  H   UNL     1       0.308  -0.437  24.987  0.00  0.00    +0.123 HD
BRANCH   4  14
ATOM     14  C   UNL     1      -1.153   0.309  26.187  0.00  0.00    +0.156 C 
BRANCH  14  15
ATOM      6  N   UNL     1      -0.196   1.727  24.342  0.00  0.00    -0.336 N 
ATOM      7  N   UNL     1      -0.911   2.812  26.143  0.00  0.00    -0.239 NA
ATOM     15  C   UNL     1      -0.764   1.632  25.582  0.00  0.00    +0.123 A 
ATOM     17  C   UNL     1       0.032   3.052  24.096  0.00  0.00    +0.106 A 
ATOM     18  C   UNL     1       0.113   0.639  23.444  0.00  0.00    +0.150 C 
ATOM     19  C   UNL     1      -0.417   3.701  25.221  0.00  0.00    +0.130 A 
ENDBRANCH  14  15
ENDBRANCH   4  14
ENDBRANCH   9   4
BRANCH  11  13
ATOM     13  C   UNL     1      -4.277  -2.655  23.804  0.00  0.00    +0.140 C 
BRANCH  13   5
ATOM      3  O   UNL     1      -3.310   0.029  23.538  0.00  0.00    -0.253 OA
ATOM      5  N   UNL     1      -4.904  -1.465  24.301  0.00  0.00    -0.297 N 
ATOM      8  N   UNL     1      -5.193   0.782  24.720  0.00  0.00    -0.269 N 
ATOM     16  C   UNL     1      -4.367  -0.179  24.131  0.00  0.00    +0.304 C 
ATOM     28  H   UNL     1      -5.774  -1.560  24.815  0.00  0.00    +0.150 HD
ATOM     29  H   UNL     1      -6.037   0.442  25.174  0.00  0.00    +0.156 HD
BRANCH   8  20
ATOM     20  C   UNL     1      -5.002   2.183  24.764  0.00  0.00    +0.035 A 
ATOM     21  C   UNL     1      -5.819   2.974  25.571  0.00  0.00    +0.023 A 
ATOM     22  C   UNL     1      -3.996   2.774  23.999  0.00  0.00    +0.023 A 
ATOM     23  C   UNL     1      -5.631   4.355  25.615  0.00  0.00    +0.002 A 
ATOM     24  C   UNL     1      -3.807   4.155  24.042  0.00  0.00    +0.002 A 
ATOM     25  C   UNL     1      -4.624   4.945  24.849  0.00  0.00    +0.000 A 
ENDBRANCH   8  20
ENDBRANCH  13   5
ENDBRANCH  11  13
TORSDOF 7
ENDMDL
