MODEL 1
REMARK VINA RESULT:       0.9      0.000      0.000
REMARK  Name = 7050208
REMARK  11 active torsions:
REMARK  status: ('A' for Active; 'I' for Inactive)
REMARK    1  A    between atoms: O_3  and  C_13
REMARK    2  A    between atoms: O_4  and  C_16
REMARK    3  A    between atoms: O_5  and  C_18
REMARK    4  A    between atoms: O_9  and  C_35
REMARK    5  A    between atoms: N_10  and  C_14
REMARK    6  A    between atoms: N_11  and  C_20
REMARK    7  A    between atoms: C_13  and  C_19
REMARK    8  A    between atoms: C_20  and  C_22
REMARK    9  A    between atoms: C_20  and  C_24
REMARK   10  A    between atoms: C_21  and  C_23
REMARK   11  A    between atoms: C_22  and  C_25
REMARK                            x       y       z     vdW  Elec       q    Type
REMARK                         _______ _______ _______ _____ _____    ______ ____
ROOT
ATOM     13  C   UNL     1      -3.573  -0.247  25.017  0.00  0.00    +0.146 C 
ATOM     14  C   UNL     1      -1.298  -1.376  24.928  0.00  0.00    +0.107 C 
ATOM     15  C   UNL     1      -2.073  -0.061  24.784  0.00  0.00    +0.069 C 
ATOM     16  C   UNL     1      -1.882  -2.483  24.040  0.00  0.00    +0.163 C 
ATOM     17  C   UNL     1      -4.145  -1.336  24.113  0.00  0.00    +0.078 C 
ATOM     18  C   UNL     1      -3.387  -2.658  24.255  0.00  0.00    +0.148 C 
ENDROOT
BRANCH  13  19
ATOM      6  O   UNL     1      -5.388   1.275  25.330  0.00  0.00    -0.273 OA
ATOM     11  N   UNL     1      -3.630   1.890  23.934  0.00  0.00    -0.301 N 
ATOM     19  C   UNL     1      -4.305   1.045  24.799  0.00  0.00    +0.246 C 
ATOM     40  H   UNL     1      -2.784   1.571  23.475  0.00  0.00    +0.150 HD
BRANCH  11  20
ATOM     20  C   UNL     1      -4.134   3.186  23.541  0.00  0.00    +0.163 C 
BRANCH  20  24
ATOM      8  O   UNL     1      -4.545   4.102  21.328  0.00  0.00    -0.274 OA
ATOM     12  N   UNL     1      -2.939   2.476  21.564  0.00  0.00    -0.328 N 
ATOM     24  C   UNL     1      -3.929   3.310  22.038  0.00  0.00    +0.231 C 
ATOM     41  H   UNL     1      -2.692   2.470  20.580  0.00  0.00    +0.145 HD
ATOM     42  H   UNL     1      -2.436   1.830  22.163  0.00  0.00    +0.145 HD
ENDBRANCH  20  24
BRANCH  20  22
ATOM     22  C   UNL     1      -3.424   4.331  24.273  0.00  0.00    +0.067 C 
BRANCH  22  25
ATOM     25  C   UNL     1      -2.191   3.873  25.014  0.00  0.00    -0.045 A 
ATOM     28  C   UNL     1      -0.968   3.788  24.348  0.00  0.00    +0.007 A 
ATOM     29  C   UNL     1      -2.275   3.534  26.365  0.00  0.00    +0.007 A 
ATOM     33  C   UNL     1       0.171   3.363  25.034  0.00  0.00    +0.045 A 
ATOM     34  C   UNL     1      -1.136   3.110  27.050  0.00  0.00    +0.045 A 
ATOM     35  C   UNL     1       0.087   3.025  26.384  0.00  0.00    +0.117 A 
BRANCH  35   9
ATOM      9  O   UNL     1       1.198   2.612  27.052  0.00  0.00    -0.507 OA
ATOM     43  H   UNL     1       1.002   1.772  27.503  0.00  0.00    +0.292 HD
ENDBRANCH  35   9
ENDBRANCH  22  25
ENDBRANCH  20  22
ENDBRANCH  11  20
ENDBRANCH  13  19
BRANCH  14  10
ATOM      7  O   UNL     1      -0.238   0.484  23.016  0.00  0.00    -0.270 OA
ATOM     10  N   UNL     1       0.098  -1.157  24.618  0.00  0.00    -0.306 N 
ATOM     21  C   UNL     1       0.511  -0.232  23.675  0.00  0.00    +0.244 C 
ATOM     36  H   UNL     1       0.766  -1.793  25.041  0.00  0.00    +0.149 HD
BRANCH  21  23
ATOM      1 CL   UNL     1       5.181  -2.481  23.980  0.00  0.00    -0.081 Cl
ATOM      2  F   UNL     1       6.052   0.108  22.824  0.00  0.00    -0.204 F 
ATOM     23  C   UNL     1       1.978  -0.146  23.453  0.00  0.00    +0.038 A 
ATOM     26  C   UNL     1       2.798  -1.225  23.782  0.00  0.00    +0.036 A 
ATOM     27  C   UNL     1       2.534   1.014  22.914  0.00  0.00    +0.016 A 
ATOM     30  C   UNL     1       4.174  -1.145  23.572  0.00  0.00    +0.077 A 
ATOM     31  C   UNL     1       3.912   1.094  22.703  0.00  0.00    +0.040 A 
ATOM     32  C   UNL     1       4.731   0.015  23.033  0.00  0.00    +0.142 A 
ENDBRANCH  21  23
ENDBRANCH  14  10
BRANCH  13   3
ATOM      3  O   UNL     1      -3.826  -0.587  26.375  0.00  0.00    -0.379 OA
ATOM     37  H   UNL     1      -4.693  -1.028  26.426  0.00  0.00    +0.211 HD
ENDBRANCH  13   3
BRANCH  16   4
ATOM      4  O   UNL     1      -1.252  -3.724  24.366  0.00  0.00    -0.387 OA
ATOM     38  H   UNL     1      -1.839  -4.212  24.970  0.00  0.00    +0.210 HD
ENDBRANCH  16   4
BRANCH  18   5
ATOM      5  O   UNL     1      -3.879  -3.577  23.280  0.00  0.00    -0.389 OA
ATOM     39  H   UNL     1      -4.687  -3.193  22.896  0.00  0.00    +0.210 HD
ENDBRANCH  18   5
TORSDOF 11
ENDMDL
MODEL 2
REMARK VINA RESULT:       1.8      1.569      1.875
REMARK  Name = 7050208
REMARK  11 active torsions:
REMARK  status: ('A' for Active; 'I' for Inactive)
REMARK    1  A    between atoms: O_3  and  C_13
REMARK    2  A    between atoms: O_4  and  C_16
REMARK    3  A    between atoms: O_5  and  C_18
REMARK    4  A    between atoms: O_9  and  C_35
REMARK    5  A    between atoms: N_10  and  C_14
REMARK    6  A    between atoms: N_11  and  C_20
REMARK    7  A    between atoms: C_13  and  C_19
REMARK    8  A    between atoms: C_20  and  C_22
REMARK    9  A    between atoms: C_20  and  C_24
REMARK   10  A    between atoms: C_21  and  C_23
REMARK   11  A    between atoms: C_22  and  C_25
REMARK                            x       y       z     vdW  Elec       q    Type
REMARK                         _______ _______ _______ _____ _____    ______ ____
ROOT
ATOM     13  C   UNL     1      -3.803  -0.326  25.366  0.00  0.00    +0.146 C 
ATOM     14  C   UNL     1      -1.526  -1.365  24.931  0.00  0.00    +0.107 C 
ATOM     15  C   UNL     1      -2.314  -0.066  25.132  0.00  0.00    +0.069 C 
ATOM     16  C   UNL     1      -2.135  -2.238  23.825  0.00  0.00    +0.163 C 
ATOM     17  C   UNL     1      -4.402  -1.177  24.248  0.00  0.00    +0.078 C 
ATOM     18  C   UNL     1      -3.630  -2.482  24.043  0.00  0.00    +0.148 C 
ENDROOT
BRANCH  13  19
ATOM      6  O   UNL     1      -5.684   1.110  25.033  0.00  0.00    -0.273 OA
ATOM     11  N   UNL     1      -3.811   1.944  26.135  0.00  0.00    -0.301 N 
ATOM     19  C   UNL     1      -4.552   0.969  25.488  0.00  0.00    +0.246 C 
ATOM     40  H   UNL     1      -2.849   1.757  26.394  0.00  0.00    +0.150 HD
BRANCH  11  20
ATOM     20  C   UNL     1      -4.296   3.287  26.359  0.00  0.00    +0.163 C 
BRANCH  20  24
ATOM      8  O   UNL     1      -4.373   3.682  23.962  0.00  0.00    -0.274 OA
ATOM     12  N   UNL     1      -6.208   4.238  25.228  0.00  0.00    -0.328 N 
ATOM     24  C   UNL     1      -4.926   3.760  25.057  0.00  0.00    +0.231 C 
ATOM     41  H   UNL     1      -6.748   4.572  24.436  0.00  0.00    +0.145 HD
ATOM     42  H   UNL     1      -6.653   4.294  26.137  0.00  0.00    +0.145 HD
ENDBRANCH  20  24
BRANCH  20  22
ATOM     22  C   UNL     1      -3.176   4.243  26.788  0.00  0.00    +0.067 C 
BRANCH  22  25
ATOM     25  C   UNL     1      -2.089   4.372  25.748  0.00  0.00    -0.045 A 
ATOM     28  C   UNL     1      -1.364   3.248  25.355  0.00  0.00    +0.007 A 
ATOM     29  C   UNL     1      -1.810   5.617  25.182  0.00  0.00    +0.007 A 
ATOM     33  C   UNL     1      -0.358   3.368  24.395  0.00  0.00    +0.045 A 
ATOM     34  C   UNL     1      -0.806   5.736  24.221  0.00  0.00    +0.045 A 
ATOM     35  C   UNL     1      -0.080   4.612  23.828  0.00  0.00    +0.117 A 
BRANCH  35   9
ATOM      9  O   UNL     1       0.901   4.728  22.891  0.00  0.00    -0.507 OA
ATOM     43  H   UNL     1       1.675   4.214  23.179  0.00  0.00    +0.292 HD
ENDBRANCH  35   9
ENDBRANCH  22  25
ENDBRANCH  20  22
ENDBRANCH  11  20
ENDBRANCH  13  19
BRANCH  14  10
ATOM      7  O   UNL     1      -0.562   0.345  22.837  0.00  0.00    -0.270 OA
ATOM     10  N   UNL     1      -0.144  -1.058  24.635  0.00  0.00    -0.306 N 
ATOM     21  C   UNL     1       0.221  -0.216  23.598  0.00  0.00    +0.244 C 
ATOM     36  H   UNL     1       0.561  -1.576  25.149  0.00  0.00    +0.149 HD
BRANCH  21  23
ATOM      1 CL   UNL     1       5.028  -2.158  23.897  0.00  0.00    -0.081 Cl
ATOM      2  F   UNL     1       5.739   0.530  22.863  0.00  0.00    -0.204 F 
ATOM     23  C   UNL     1       1.683  -0.023  23.407  0.00  0.00    +0.038 A 
ATOM     26  C   UNL     1       2.569  -1.058  23.707  0.00  0.00    +0.036 A 
ATOM     27  C   UNL     1       2.167   1.193  22.925  0.00  0.00    +0.016 A 
ATOM     30  C   UNL     1       3.939  -0.876  23.525  0.00  0.00    +0.077 A 
ATOM     31  C   UNL     1       3.539   1.374  22.743  0.00  0.00    +0.040 A 
ATOM     32  C   UNL     1       4.425   0.340  23.043  0.00  0.00    +0.142 A 
ENDBRANCH  21  23
ENDBRANCH  14  10
BRANCH  13   3
ATOM      3  O   UNL     1      -4.004  -0.984  26.611  0.00  0.00    -0.379 OA
ATOM     37  H   UNL     1      -3.849  -0.344  27.327  0.00  0.00    +0.211 HD
ENDBRANCH  13   3
BRANCH  16   4
ATOM      4  O   UNL     1      -1.485  -3.511  23.823  0.00  0.00    -0.387 OA
ATOM     38  H   UNL     1      -1.537  -3.875  22.922  0.00  0.00    +0.210 HD
ENDBRANCH  16   4
BRANCH  18   5
ATOM      5  O   UNL     1      -4.152  -3.149  22.894  0.00  0.00    -0.389 OA
ATOM     39  H   UNL     1      -5.027  -3.500  23.132  0.00  0.00    +0.210 HD
ENDBRANCH  18   5
TORSDOF 11
ENDMDL
MODEL 3
REMARK VINA RESULT:       4.2      1.989      4.622
REMARK  Name = 7050208
REMARK  11 active torsions:
REMARK  status: ('A' for Active; 'I' for Inactive)
REMARK    1  A    between atoms: O_3  and  C_13
REMARK    2  A    between atoms: O_4  and  C_16
REMARK    3  A    between atoms: O_5  and  C_18
REMARK    4  A    between atoms: O_9  and  C_35
REMARK    5  A    between atoms: N_10  and  C_14
REMARK    6  A    between atoms: N_11  and  C_20
REMARK    7  A    between atoms: C_13  and  C_19
REMARK    8  A    between atoms: C_20  and  C_22
REMARK    9  A    between atoms: C_20  and  C_24
REMARK   10  A    between atoms: C_21  and  C_23
REMARK   11  A    between atoms: C_22  and  C_25
REMARK                            x       y       z     vdW  Elec       q    Type
REMARK                         _______ _______ _______ _____ _____    ______ ____
ROOT
ATOM     13  C   UNL     1      -2.709   2.415  23.615  0.00  0.00    +0.146 C 
ATOM     14  C   UNL     1      -0.236   2.949  23.376  0.00  0.00    +0.107 C 
ATOM     15  C   UNL     1      -1.287   1.852  23.576  0.00  0.00    +0.069 C 
ATOM     16  C   UNL     1      -0.378   4.072  24.412  0.00  0.00    +0.163 C 
ATOM     17  C   UNL     1      -2.842   3.517  24.664  0.00  0.00    +0.078 C 
ATOM     18  C   UNL     1      -1.804   4.624  24.470  0.00  0.00    +0.148 C 
ENDROOT
BRANCH  13  19
ATOM      6  O   UNL     1      -3.897   0.411  23.083  0.00  0.00    -0.273 OA
ATOM     11  N   UNL     1      -4.356   1.495  25.092  0.00  0.00    -0.301 N 
ATOM     19  C   UNL     1      -3.703   1.323  23.883  0.00  0.00    +0.246 C 
ATOM     40  H   UNL     1      -4.190   2.331  25.641  0.00  0.00    +0.150 HD
BRANCH  11  20
ATOM     20  C   UNL     1      -5.378   0.593  25.573  0.00  0.00    +0.163 C 
BRANCH  20  24
ATOM      8  O   UNL     1      -7.059   0.917  27.298  0.00  0.00    -0.274 OA
ATOM     12  N   UNL     1      -6.222   2.763  26.218  0.00  0.00    -0.328 N 
ATOM     24  C   UNL     1      -6.320   1.407  26.446  0.00  0.00    +0.231 C 
ATOM     41  H   UNL     1      -6.786   3.422  26.745  0.00  0.00    +0.145 HD
ATOM     42  H   UNL     1      -5.605   3.155  25.514  0.00  0.00    +0.145 HD
ENDBRANCH  20  24
BRANCH  20  22
ATOM     22  C   UNL     1      -4.789  -0.577  26.371  0.00  0.00    +0.067 C 
BRANCH  22  25
ATOM     25  C   UNL     1      -3.396  -0.947  25.921  0.00  0.00    -0.045 A 
ATOM     28  C   UNL     1      -2.294  -0.257  26.423  0.00  0.00    +0.007 A 
ATOM     29  C   UNL     1      -3.213  -1.981  25.000  0.00  0.00    +0.007 A 
ATOM     33  C   UNL     1      -1.007  -0.599  26.005  0.00  0.00    +0.045 A 
ATOM     34  C   UNL     1      -1.927  -2.323  24.584  0.00  0.00    +0.045 A 
ATOM     35  C   UNL     1      -0.824  -1.632  25.086  0.00  0.00    +0.117 A 
BRANCH  35   9
ATOM      9  O   UNL     1       0.432  -1.966  24.679  0.00  0.00    -0.507 OA
ATOM     43  H   UNL     1       0.380  -2.757  24.115  0.00  0.00    +0.292 HD
ENDBRANCH  35   9
ENDBRANCH  22  25
ENDBRANCH  20  22
ENDBRANCH  11  20
ENDBRANCH  13  19
BRANCH  14  10
ATOM      7  O   UNL     1       0.495   0.269  22.654  0.00  0.00    -0.270 OA
ATOM     10  N   UNL     1       1.089   2.372  23.428  0.00  0.00    -0.306 N 
ATOM     21  C   UNL     1       1.342   1.062  23.056  0.00  0.00    +0.244 C 
ATOM     36  H   UNL     1       1.817   2.932  23.858  0.00  0.00    +0.149 HD
BRANCH  21  23
ATOM      1 CL   UNL     1       4.696  -2.776  24.049  0.00  0.00    -0.081 Cl
ATOM      2  F   UNL     1       6.675  -0.622  23.563  0.00  0.00    -0.204 F 
ATOM     23  C   UNL     1       2.751   0.612  23.193  0.00  0.00    +0.038 A 
ATOM     26  C   UNL     1       3.032  -0.715  23.520  0.00  0.00    +0.036 A 
ATOM     27  C   UNL     1       3.794   1.517  22.992  0.00  0.00    +0.016 A 
ATOM     30  C   UNL     1       4.355  -1.136  23.646  0.00  0.00    +0.077 A 
ATOM     31  C   UNL     1       5.118   1.094  23.119  0.00  0.00    +0.040 A 
ATOM     32  C   UNL     1       5.398  -0.232  23.446  0.00  0.00    +0.142 A 
ENDBRANCH  21  23
ENDBRANCH  14  10
BRANCH  13   3
ATOM      3  O   UNL     1      -3.071   2.938  22.342  0.00  0.00    -0.379 OA
ATOM     37  H   UNL     1      -3.636   2.286  21.891  0.00  0.00    +0.211 HD
ENDBRANCH  13   3
BRANCH  16   4
ATOM      4  O   UNL     1       0.490   5.151  24.053  0.00  0.00    -0.387 OA
ATOM     38  H   UNL     1       0.902   5.490  24.867  0.00  0.00    +0.210 HD
ENDBRANCH  16   4
BRANCH  18   5
ATOM      5  O   UNL     1      -1.892   5.536  25.565  0.00  0.00    -0.389 OA
ATOM     39  H   UNL     1      -2.571   6.196  25.342  0.00  0.00    +0.210 HD
ENDBRANCH  18   5
TORSDOF 11
ENDMDL
