MODEL 1
REMARK VINA RESULT:       2.8      0.000      0.000
REMARK  Name = 25314986
REMARK  6 active torsions:
REMARK  status: ('A' for Active; 'I' for Inactive)
REMARK    1  A    between atoms: O_3  and  C_10
REMARK    2  A    between atoms: N_5  and  C_9
REMARK    3  A    between atoms: N_6  and  C_11
REMARK    4  A    between atoms: N_7  and  C_20
REMARK    5  A    between atoms: N_8  and  C_23
REMARK    6  A    between atoms: C_23  and  C_27
REMARK                            x       y       z     vdW  Elec       q    Type
REMARK                         _______ _______ _______ _____ _____    ______ ____
ROOT
ATOM      1  O   UNL     1      -4.338   3.406  23.477  0.00  0.00    -0.342 OA
ATOM      2  O   UNL     1      -4.618   4.859  25.263  0.00  0.00    -0.347 OA
ATOM      9  C   UNL     1      -2.772   3.297  25.307  0.00  0.00    +0.144 C 
ATOM     10  C   UNL     1      -3.650   2.246  26.022  0.00  0.00    +0.159 C 
ATOM     11  C   UNL     1      -4.869   1.792  25.188  0.00  0.00    +0.136 C 
ATOM     12  C   UNL     1      -3.638   4.219  24.429  0.00  0.00    +0.270 C 
ATOM     13  C   UNL     1      -5.419   2.899  24.266  0.00  0.00    +0.170 C 
ATOM     14  C   UNL     1      -5.844   4.160  24.995  0.00  0.00    +0.196 C 
ENDROOT
BRANCH  11   6
ATOM      4  O   UNL     1      -3.915  -0.747  26.172  0.00  0.00    -0.253 OA
ATOM      6  N   UNL     1      -4.528   0.625  24.403  0.00  0.00    -0.291 N 
ATOM      8  N   UNL     1      -3.821  -1.519  23.986  0.00  0.00    -0.300 N 
ATOM     19  C   UNL     1      -4.074  -0.563  24.965  0.00  0.00    +0.300 C 
ATOM     28  H   UNL     1      -4.549   0.702  23.390  0.00  0.00    +0.151 HD
ATOM     30  H   UNL     1      -3.972  -1.273  23.012  0.00  0.00    +0.150 HD
BRANCH   8  23
ATOM     23  C   UNL     1      -3.339  -2.845  24.292  0.00  0.00    +0.102 C 
ATOM     27  C   UNL     1      -1.834  -2.863  24.464  0.00  0.00    +0.024 C 
ENDBRANCH   8  23
ENDBRANCH  11   6
BRANCH   9   5
ATOM      5  N   UNL     1      -1.762   2.633  24.481  0.00  0.00    -0.290 NA
ATOM      7  N   UNL     1       0.777   1.455  23.913  0.00  0.00    -0.327 N 
ATOM     15  C   UNL     1      -1.401   1.332  25.057  0.00  0.00    +0.104 C 
ATOM     16  C   UNL     1      -0.564   3.474  24.356  0.00  0.00    +0.104 C 
ATOM     17  C   UNL     1      -0.386   0.602  24.174  0.00  0.00    +0.120 C 
ATOM     18  C   UNL     1       0.477   2.815  23.450  0.00  0.00    +0.120 C 
BRANCH   7  20
ATOM     20  C   UNL     1       1.986   0.875  23.512  0.00  0.00    +0.030 A 
ATOM     21  C   UNL     1       2.154  -0.508  23.581  0.00  0.00    +0.023 A 
ATOM     22  C   UNL     1       3.024   1.681  23.044  0.00  0.00    +0.023 A 
ATOM     24  C   UNL     1       3.359  -1.085  23.181  0.00  0.00    +0.002 A 
ATOM     25  C   UNL     1       4.230   1.104  22.645  0.00  0.00    +0.002 A 
ATOM     26  C   UNL     1       4.397  -0.279  22.713  0.00  0.00    +0.000 A 
ENDBRANCH   7  20
ENDBRANCH   9   5
BRANCH  10   3
ATOM      3  O   UNL     1      -4.121   2.827  27.245  0.00  0.00    -0.388 OA
ATOM     29  H   UNL     1      -4.190   2.115  27.902  0.00  0.00    +0.210 HD
ENDBRANCH  10   3
TORSDOF 5
ENDMDL
MODEL 2
REMARK VINA RESULT:       3.6      2.300      4.205
REMARK  Name = 25314986
REMARK  6 active torsions:
REMARK  status: ('A' for Active; 'I' for Inactive)
REMARK    1  A    between atoms: O_3  and  C_10
REMARK    2  A    between atoms: N_5  and  C_9
REMARK    3  A    between atoms: N_6  and  C_11
REMARK    4  A    between atoms: N_7  and  C_20
REMARK    5  A    between atoms: N_8  and  C_23
REMARK    6  A    between atoms: C_23  and  C_27
REMARK                            x       y       z     vdW  Elec       q    Type
REMARK                         _______ _______ _______ _____ _____    ______ ____
ROOT
ATOM      1  O   UNL     1      -2.116  -0.829  24.477  0.00  0.00    -0.342 OA
ATOM      2  O   UNL     1      -4.151  -0.126  23.615  0.00  0.00    -0.347 OA
ATOM      9  C   UNL     1      -2.155   1.123  23.061  0.00  0.00    +0.144 C 
ATOM     10  C   UNL     1      -2.359   2.035  24.291  0.00  0.00    +0.159 C 
ATOM     11  C   UNL     1      -2.303   1.278  25.636  0.00  0.00    +0.136 C 
ATOM     12  C   UNL     1      -2.753  -0.273  23.319  0.00  0.00    +0.270 C 
ATOM     13  C   UNL     1      -2.818  -0.172  25.538  0.00  0.00    +0.170 C 
ATOM     14  C   UNL     1      -4.246  -0.291  25.038  0.00  0.00    +0.196 C 
ENDROOT
BRANCH  11   6
ATOM      4  O   UNL     1      -0.972   3.445  26.999  0.00  0.00    -0.253 OA
ATOM      6  N   UNL     1      -0.951   1.283  26.154  0.00  0.00    -0.291 N 
ATOM      8  N   UNL     1       0.918   2.114  27.196  0.00  0.00    -0.300 N 
ATOM     19  C   UNL     1      -0.390   2.378  26.801  0.00  0.00    +0.300 C 
ATOM     28  H   UNL     1      -0.361   0.477  25.970  0.00  0.00    +0.151 HD
ATOM     30  H   UNL     1       1.319   1.206  26.980  0.00  0.00    +0.150 HD
BRANCH   8  23
ATOM     23  C   UNL     1       1.737   3.080  27.889  0.00  0.00    +0.102 C 
ATOM     27  C   UNL     1       2.046   2.632  29.303  0.00  0.00    +0.024 C 
ENDBRANCH   8  23
ENDBRANCH  11   6
BRANCH   9   5
ATOM      5  N   UNL     1      -0.729   1.001  22.754  0.00  0.00    -0.290 NA
ATOM      7  N   UNL     1       1.987   0.259  23.236  0.00  0.00    -0.327 N 
ATOM     15  C   UNL     1      -0.328  -0.410  22.723  0.00  0.00    +0.104 C 
ATOM     16  C   UNL     1       0.075   1.728  23.745  0.00  0.00    +0.104 C 
ATOM     17  C   UNL     1       1.150  -0.554  22.349  0.00  0.00    +0.120 C 
ATOM     18  C   UNL     1       1.564   1.655  23.404  0.00  0.00    +0.120 C 
BRANCH   7  20
ATOM     20  C   UNL     1       3.348  -0.036  23.368  0.00  0.00    +0.030 A 
ATOM     21  C   UNL     1       4.304   0.944  23.102  0.00  0.00    +0.023 A 
ATOM     22  C   UNL     1       3.749  -1.312  23.766  0.00  0.00    +0.023 A 
ATOM     24  C   UNL     1       5.661   0.648  23.233  0.00  0.00    +0.002 A 
ATOM     25  C   UNL     1       5.106  -1.607  23.898  0.00  0.00    +0.002 A 
ATOM     26  C   UNL     1       6.062  -0.627  23.631  0.00  0.00    +0.000 A 
ENDBRANCH   7  20
ENDBRANCH   9   5
BRANCH  10   3
ATOM      3  O   UNL     1      -3.646   2.657  24.166  0.00  0.00    -0.388 OA
ATOM     29  H   UNL     1      -3.761   3.249  24.928  0.00  0.00    +0.210 HD
ENDBRANCH  10   3
TORSDOF 5
ENDMDL
MODEL 3
REMARK VINA RESULT:       5.1      2.089      4.487
REMARK  Name = 25314986
REMARK  6 active torsions:
REMARK  status: ('A' for Active; 'I' for Inactive)
REMARK    1  A    between atoms: O_3  and  C_10
REMARK    2  A    between atoms: N_5  and  C_9
REMARK    3  A    between atoms: N_6  and  C_11
REMARK    4  A    between atoms: N_7  and  C_20
REMARK    5  A    between atoms: N_8  and  C_23
REMARK    6  A    between atoms: C_23  and  C_27
REMARK                            x       y       z     vdW  Elec       q    Type
REMARK                         _______ _______ _______ _____ _____    ______ ____
ROOT
ATOM      1  O   UNL     1      -1.780  -1.245  25.704  0.00  0.00    -0.342 OA
ATOM      2  O   UNL     1      -3.551  -2.346  24.688  0.00  0.00    -0.347 OA
ATOM      9  C   UNL     1      -2.263  -0.763  23.390  0.00  0.00    +0.144 C 
ATOM     10  C   UNL     1      -3.211   0.383  23.807  0.00  0.00    +0.159 C 
ATOM     11  C   UNL     1      -3.227   0.647  25.329  0.00  0.00    +0.136 C 
ATOM     12  C   UNL     1      -2.219  -1.850  24.480  0.00  0.00    +0.270 C 
ATOM     13  C   UNL     1      -2.983  -0.624  26.168  0.00  0.00    +0.170 C 
ATOM     14  C   UNL     1      -3.983  -1.736  25.915  0.00  0.00    +0.196 C 
ENDROOT
BRANCH  11   6
ATOM      4  O   UNL     1      -2.748   3.141  23.959  0.00  0.00    -0.253 OA
ATOM      6  N   UNL     1      -2.246   1.655  25.670  0.00  0.00    -0.291 N 
ATOM      8  N   UNL     1      -1.074   3.621  25.492  0.00  0.00    -0.300 N 
ATOM     19  C   UNL     1      -2.085   2.833  24.949  0.00  0.00    +0.300 C 
ATOM     28  H   UNL     1      -1.595   1.459  26.425  0.00  0.00    +0.151 HD
ATOM     30  H   UNL     1      -0.573   3.280  26.307  0.00  0.00    +0.150 HD
BRANCH   8  23
ATOM     23  C   UNL     1      -0.696   4.900  24.939  0.00  0.00    +0.102 C 
ATOM     27  C   UNL     1      -1.808   5.917  25.083  0.00  0.00    +0.024 C 
ENDBRANCH   8  23
ENDBRANCH  11   6
BRANCH   9   5
ATOM      5  N   UNL     1      -0.915  -0.242  23.156  0.00  0.00    -0.290 NA
ATOM      7  N   UNL     1       1.938  -0.239  23.292  0.00  0.00    -0.327 N 
ATOM     15  C   UNL     1      -0.132  -1.186  22.350  0.00  0.00    +0.104 C 
ATOM     16  C   UNL     1      -0.232   0.012  24.431  0.00  0.00    +0.104 C 
ATOM     17  C   UNL     1       1.263  -0.628  22.051  0.00  0.00    +0.120 C 
ATOM     18  C   UNL     1       1.157   0.609  24.201  0.00  0.00    +0.120 C 
BRANCH   7  20
ATOM     20  C   UNL     1       3.332  -0.117  23.314  0.00  0.00    +0.030 A 
ATOM     21  C   UNL     1       4.116  -1.162  23.803  0.00  0.00    +0.023 A 
ATOM     22  C   UNL     1       3.938   1.050  22.848  0.00  0.00    +0.023 A 
ATOM     24  C   UNL     1       5.506  -1.040  23.825  0.00  0.00    +0.002 A 
ATOM     25  C   UNL     1       5.327   1.172  22.870  0.00  0.00    +0.002 A 
ATOM     26  C   UNL     1       6.111   0.127  23.359  0.00  0.00    +0.000 A 
ENDBRANCH   7  20
ENDBRANCH   9   5
BRANCH  10   3
ATOM      3  O   UNL     1      -4.536   0.029  23.388  0.00  0.00    -0.388 OA
ATOM     29  H   UNL     1      -5.103   0.809  23.515  0.00  0.00    +0.210 HD
ENDBRANCH  10   3
TORSDOF 5
ENDMDL
MODEL 4
REMARK VINA RESULT:       5.4      1.844      4.355
REMARK  Name = 25314986
REMARK  6 active torsions:
REMARK  status: ('A' for Active; 'I' for Inactive)
REMARK    1  A    between atoms: O_3  and  C_10
REMARK    2  A    between atoms: N_5  and  C_9
REMARK    3  A    between atoms: N_6  and  C_11
REMARK    4  A    between atoms: N_7  and  C_20
REMARK    5  A    between atoms: N_8  and  C_23
REMARK    6  A    between atoms: C_23  and  C_27
REMARK                            x       y       z     vdW  Elec       q    Type
REMARK                         _______ _______ _______ _____ _____    ______ ____
ROOT
ATOM      1  O   UNL     1      -3.218  -0.563  25.965  0.00  0.00    -0.342 OA
ATOM      2  O   UNL     1      -4.592  -1.615  24.422  0.00  0.00    -0.347 OA
ATOM      9  C   UNL     1      -2.531  -0.609  23.654  0.00  0.00    +0.144 C 
ATOM     10  C   UNL     1      -3.257   0.729  23.392  0.00  0.00    +0.159 C 
ATOM     11  C   UNL     1      -3.858   1.364  24.665  0.00  0.00    +0.136 C 
ATOM     12  C   UNL     1      -3.222  -1.385  24.790  0.00  0.00    +0.270 C 
ATOM     13  C   UNL     1      -4.313   0.321  25.706  0.00  0.00    +0.170 C 
ATOM     14  C   UNL     1      -5.345  -0.663  25.189  0.00  0.00    +0.196 C 
ENDROOT
BRANCH  11   6
ATOM      4  O   UNL     1      -3.229   4.044  23.802  0.00  0.00    -0.253 OA
ATOM      6  N   UNL     1      -2.905   2.273  25.266  0.00  0.00    -0.291 N 
ATOM      8  N   UNL     1      -1.705   4.210  25.543  0.00  0.00    -0.300 N 
ATOM     19  C   UNL     1      -2.666   3.553  24.780  0.00  0.00    +0.300 C 
ATOM     28  H   UNL     1      -2.331   1.932  26.032  0.00  0.00    +0.151 HD
ATOM     30  H   UNL     1      -1.287   3.720  26.329  0.00  0.00    +0.150 HD
BRANCH   8  23
ATOM     23  C   UNL     1      -1.265   5.555  25.259  0.00  0.00    +0.102 C 
ATOM     27  C   UNL     1      -0.181   5.573  24.202  0.00  0.00    +0.024 C 
ENDBRANCH   8  23
ENDBRANCH  11   6
BRANCH   9   5
ATOM      5  N   UNL     1      -1.130  -0.363  24.004  0.00  0.00    -0.290 NA
ATOM      7  N   UNL     1       1.691  -0.287  23.566  0.00  0.00    -0.327 N 
ATOM     15  C   UNL     1      -0.545   0.639  23.105  0.00  0.00    +0.104 C 
ATOM     16  C   UNL     1      -0.356  -1.608  23.936  0.00  0.00    +0.104 C 
ATOM     17  C   UNL     1       0.904   0.947  23.495  0.00  0.00    +0.120 C 
ATOM     18  C   UNL     1       1.097  -1.375  24.354  0.00  0.00    +0.120 C 
BRANCH   7  20
ATOM     20  C   UNL     1       3.086  -0.226  23.476  0.00  0.00    +0.030 A 
ATOM     21  C   UNL     1       3.860  -1.311  23.888  0.00  0.00    +0.023 A 
ATOM     22  C   UNL     1       3.703   0.921  22.976  0.00  0.00    +0.023 A 
ATOM     24  C   UNL     1       5.251  -1.249  23.799  0.00  0.00    +0.002 A 
ATOM     25  C   UNL     1       5.094   0.983  22.887  0.00  0.00    +0.002 A 
ATOM     26  C   UNL     1       5.867  -0.102  23.298  0.00  0.00    +0.000 A 
ENDBRANCH   7  20
ENDBRANCH   9   5
BRANCH  10   3
ATOM      3  O   UNL     1      -4.317   0.477  22.459  0.00  0.00    -0.388 OA
ATOM     29  H   UNL     1      -5.085   1.003  22.737  0.00  0.00    +0.210 HD
ENDBRANCH  10   3
TORSDOF 5
ENDMDL
MODEL 5
REMARK VINA RESULT:       5.4      1.988      3.783
REMARK  Name = 25314986
REMARK  6 active torsions:
REMARK  status: ('A' for Active; 'I' for Inactive)
REMARK    1  A    between atoms: O_3  and  C_10
REMARK    2  A    between atoms: N_5  and  C_9
REMARK    3  A    between atoms: N_6  and  C_11
REMARK    4  A    between atoms: N_7  and  C_20
REMARK    5  A    between atoms: N_8  and  C_23
REMARK    6  A    between atoms: C_23  and  C_27
REMARK                            x       y       z     vdW  Elec       q    Type
REMARK                         _______ _______ _______ _____ _____    ______ ____
ROOT
ATOM      1  O   UNL     1      -3.320   0.768  25.627  0.00  0.00    -0.342 OA
ATOM      2  O   UNL     1      -4.801   0.704  23.843  0.00  0.00    -0.347 OA
ATOM      9  C   UNL     1      -2.470   1.186  23.409  0.00  0.00    +0.144 C 
ATOM     10  C   UNL     1      -2.731   2.700  23.574  0.00  0.00    +0.159 C 
ATOM     11  C   UNL     1      -3.226   3.090  24.984  0.00  0.00    +0.136 C 
ATOM     12  C   UNL     1      -3.465   0.371  24.257  0.00  0.00    +0.270 C 
ATOM     13  C   UNL     1      -4.068   1.988  25.658  0.00  0.00    +0.170 C 
ATOM     14  C   UNL     1      -5.298   1.577  24.870  0.00  0.00    +0.196 C 
ENDROOT
BRANCH  11   6
ATOM      4  O   UNL     1      -1.297   1.278  26.134  0.00  0.00    -0.253 OA
ATOM      6  N   UNL     1      -2.102   3.434  25.829  0.00  0.00    -0.291 N 
ATOM      8  N   UNL     1      -0.235   3.090  27.119  0.00  0.00    -0.300 N 
ATOM     19  C   UNL     1      -1.220   2.489  26.341  0.00  0.00    +0.300 C 
ATOM     28  H   UNL     1      -1.998   4.400  26.123  0.00  0.00    +0.151 HD
ATOM     30  H   UNL     1      -0.257   4.098  27.242  0.00  0.00    +0.150 HD
BRANCH   8  23
ATOM     23  C   UNL     1       0.812   2.341  27.773  0.00  0.00    +0.102 C 
ATOM     27  C   UNL     1       0.935   2.719  29.235  0.00  0.00    +0.024 C 
ENDBRANCH   8  23
ENDBRANCH  11   6
BRANCH   9   5
ATOM      5  N   UNL     1      -1.099   0.863  23.810  0.00  0.00    -0.290 NA
ATOM      7  N   UNL     1       1.672   0.304  23.403  0.00  0.00    -0.327 N 
ATOM     15  C   UNL     1      -0.179   1.930  23.397  0.00  0.00    +0.104 C 
ATOM     16  C   UNL     1      -0.679  -0.415  23.223  0.00  0.00    +0.104 C 
ATOM     17  C   UNL     1       1.250   1.632  23.858  0.00  0.00    +0.120 C 
ATOM     18  C   UNL     1       0.733  -0.790  23.679  0.00  0.00    +0.120 C 
BRANCH   7  20
ATOM     20  C   UNL     1       3.035  -0.002  23.327  0.00  0.00    +0.030 A 
ATOM     21  C   UNL     1       3.935   0.939  22.828  0.00  0.00    +0.023 A 
ATOM     22  C   UNL     1       3.493  -1.250  23.749  0.00  0.00    +0.023 A 
ATOM     24  C   UNL     1       5.294   0.633  22.752  0.00  0.00    +0.002 A 
ATOM     25  C   UNL     1       4.852  -1.557  23.673  0.00  0.00    +0.002 A 
ATOM     26  C   UNL     1       5.752  -0.616  23.175  0.00  0.00    +0.000 A 
ENDBRANCH   7  20
ENDBRANCH   9   5
BRANCH  10   3
ATOM      3  O   UNL     1      -3.727   3.079  22.615  0.00  0.00    -0.388 OA
ATOM     29  H   UNL     1      -4.031   3.973  22.845  0.00  0.00    +0.210 HD
ENDBRANCH  10   3
TORSDOF 5
ENDMDL
