MODEL 1
REMARK VINA RESULT:       1.7      0.000      0.000
REMARK  Name = 45361402
REMARK  12 active torsions:
REMARK  status: ('A' for Active; 'I' for Inactive)
REMARK    1  A    between atoms: O_1  and  C_10
REMARK    2  A    between atoms: O_4  and  C_35
REMARK    3  A    between atoms: O_4  and  C_36
REMARK    4  A    between atoms: N_5  and  C_14
REMARK    5  A    between atoms: N_6  and  C_24
REMARK    6  A    between atoms: C_7  and  C_17
REMARK    7  A    between atoms: C_9  and  C_19
REMARK    8  A    between atoms: C_13  and  C_18
REMARK    9  A    between atoms: C_18  and  C_20
REMARK   10  A    between atoms: C_18  and  C_21
REMARK   11  A    between atoms: C_22  and  C_23
REMARK   12  A    between atoms: C_24  and  C_27
REMARK                            x       y       z     vdW  Elec       q    Type
REMARK                         _______ _______ _______ _____ _____    ______ ____
ROOT
ATOM      7  C   UNL     1      -3.156  -1.447  24.776  0.00  0.00    -0.027 C 
ATOM      8  C   UNL     1      -2.850  -0.115  24.015  0.00  0.00    +0.028 C 
ATOM      9  C   UNL     1      -1.325   0.249  24.116  0.00  0.00    +0.012 C 
ATOM     10  C   UNL     1      -3.835   1.014  24.436  0.00  0.00    +0.122 C 
ATOM     11  C   UNL     1      -4.639  -1.834  24.563  0.00  0.00    +0.007 C 
ATOM     12  C   UNL     1      -2.285  -2.578  24.184  0.00  0.00    +0.009 C 
ATOM     13  C   UNL     1      -5.316   0.585  24.318  0.00  0.00    +0.029 C 
ATOM     14  C   UNL     1      -0.455  -0.927  23.588  0.00  0.00    +0.076 C 
ATOM     15  C   UNL     1      -5.607  -0.747  25.009  0.00  0.00    +0.007 C 
ATOM     16  C   UNL     1      -0.795  -2.271  24.231  0.00  0.00    +0.023 C 
ATOM     17  C   UNL     1      -2.886  -1.338  26.299  0.00  0.00    +0.011 C 
ATOM     19  C   UNL     1      -0.947   1.536  23.364  0.00  0.00    +0.010 C 
ENDROOT
BRANCH  14   5
ATOM      3  O   UNL     1       1.478  -0.406  21.529  0.00  0.00    -0.270 OA
ATOM      5  N   UNL     1       0.958  -0.674  23.773  0.00  0.00    -0.308 N 
ATOM     22  C   UNL     1       1.812  -0.432  22.710  0.00  0.00    +0.244 C 
ATOM     37  H   UNL     1       1.325  -0.794  24.711  0.00  0.00    +0.149 HD
BRANCH  22  23
ATOM     23  C   UNL     1       3.239  -0.217  23.066  0.00  0.00    +0.037 A 
ATOM     25  C   UNL     1       3.852   1.004  22.780  0.00  0.00    +0.013 A 
ATOM     26  C   UNL     1       3.964  -1.233  23.686  0.00  0.00    +0.013 A 
ATOM     28  C   UNL     1       5.191   1.206  23.115  0.00  0.00    +0.001 A 
ATOM     29  C   UNL     1       5.303  -1.031  24.021  0.00  0.00    +0.001 A 
ATOM     30  C   UNL     1       5.917   0.190  23.735  0.00  0.00    +0.000 A 
ENDBRANCH  22  23
ENDBRANCH  14   5
BRANCH  10   1
ATOM      1  O   UNL     1      -3.667   2.140  23.571  0.00  0.00    -0.391 OA
ATOM     38  H   UNL     1      -3.864   2.944  24.080  0.00  0.00    +0.210 HD
ENDBRANCH  10   1
BRANCH  13  18
ATOM     18  C   UNL     1      -6.265   1.662  24.858  0.00  0.00    +0.077 C 
ATOM     20  C   UNL     1      -7.059   2.282  23.714  0.00  0.00    +0.017 C 
BRANCH  18  21
ATOM      2  O   UNL     1      -5.486   2.803  26.847  0.00  0.00    -0.276 OA
ATOM      6  N   UNL     1      -4.753   3.554  24.779  0.00  0.00    -0.311 N 
ATOM     21  C   UNL     1      -5.472   2.719  25.621  0.00  0.00    +0.216 C 
ATOM     39  H   UNL     1      -4.751   3.386  23.778  0.00  0.00    +0.149 HD
BRANCH   6  24
ATOM     24  C   UNL     1      -3.927   4.634  25.268  0.00  0.00    +0.139 C 
BRANCH  24  27
ATOM     27  C   UNL     1      -2.546   4.168  25.624  0.00  0.00    -0.030 A 
ATOM     31  C   UNL     1      -2.373   3.149  26.562  0.00  0.00    +0.009 A 
ATOM     32  C   UNL     1      -1.434   4.754  25.016  0.00  0.00    +0.009 A 
ATOM     33  C   UNL     1      -1.089   2.716  26.891  0.00  0.00    +0.046 A 
ATOM     34  C   UNL     1      -0.150   4.319  25.346  0.00  0.00    +0.046 A 
ATOM     35  C   UNL     1       0.023   3.300  26.283  0.00  0.00    +0.120 A 
BRANCH  35   4
ATOM      4  O   UNL     1       1.275   2.876  26.603  0.00  0.00    -0.495 OA
ATOM     36  C   UNL     1       1.584   2.756  27.992  0.00  0.00    +0.277 C 
ENDBRANCH  35   4
ENDBRANCH  24  27
ENDBRANCH   6  24
ENDBRANCH  18  21
ENDBRANCH  13  18
TORSDOF 8
ENDMDL
