MODEL 1
REMARK VINA RESULT:       8.0      0.000      0.000
REMARK  Name = 40779523
REMARK  12 active torsions:
REMARK  status: ('A' for Active; 'I' for Inactive)
REMARK    1  A    between atoms: O_2  and  C_28
REMARK    2  A    between atoms: O_2  and  C_34
REMARK    3  A    between atoms: O_3  and  C_30
REMARK    4  A    between atoms: O_3  and  C_35
REMARK    5  A    between atoms: O_4  and  C_33
REMARK    6  A    between atoms: O_4  and  C_36
REMARK    7  A    between atoms: N_6  and  C_20
REMARK    8  A    between atoms: N_7  and  C_17
REMARK    9  A    between atoms: C_10  and  C_16
REMARK   10  A    between atoms: C_11  and  C_17
REMARK   11  A    between atoms: C_19  and  C_22
REMARK   12  A    between atoms: C_21  and  C_23
REMARK                            x       y       z     vdW  Elec       q    Type
REMARK                         _______ _______ _______ _____ _____    ______ ____
ROOT
ATOM      5  N   UNL     1      -4.945   2.728  25.938  0.00  0.00    -0.297 NA
ATOM      9  C   UNL     1      -4.874   1.069  23.932  0.00  0.00    +0.002 C 
ATOM     10  C   UNL     1      -3.923   0.593  25.065  0.00  0.00    +0.055 C 
ATOM     11  C   UNL     1      -4.729   3.474  24.670  0.00  0.00    +0.074 C 
ATOM     12  C   UNL     1      -4.477   2.497  23.500  0.00  0.00    +0.024 C 
ATOM     13  C   UNL     1      -6.288   1.157  24.543  0.00  0.00    +0.019 C 
ATOM     14  C   UNL     1      -3.867   1.726  26.129  0.00  0.00    +0.094 C 
ATOM     15  C   UNL     1      -6.235   2.005  25.825  0.00  0.00    +0.085 C 
ENDROOT
BRANCH  10  16
ATOM      6  N   UNL     1      -2.224  -1.231  24.594  0.00  0.00    -0.270 N 
ATOM      8  N   UNL     1      -0.949  -1.464  24.239  0.00  0.00    -0.171 NA
ATOM     16  C   UNL     1      -2.539   0.094  24.679  0.00  0.00    +0.044 A 
ATOM     18  C   UNL     1      -1.390   0.774  24.359  0.00  0.00    +0.053 A 
ATOM     19  C   UNL     1      -0.444  -0.236  24.097  0.00  0.00    +0.093 A 
ATOM     20  C   UNL     1      -3.103  -2.351  24.843  0.00  0.00    +0.172 C 
BRANCH  19  22
ATOM     22  C   UNL     1       0.932  -0.049  23.716  0.00  0.00    +0.006 A 
ATOM     24  C   UNL     1       1.829  -1.114  23.794  0.00  0.00    +0.059 A 
ATOM     25  C   UNL     1       1.367   1.199  23.269  0.00  0.00    +0.014 A 
ATOM     28  C   UNL     1       3.162  -0.931  23.427  0.00  0.00    +0.162 A 
ATOM     29  C   UNL     1       2.701   1.381  22.901  0.00  0.00    +0.050 A 
ATOM     30  C   UNL     1       3.598   0.316  22.980  0.00  0.00    +0.162 A 
BRANCH  28   2
ATOM      2  O   UNL     1       4.030  -1.979  23.508  0.00  0.00    -0.491 OA
ATOM     34  C   UNL     1       5.228  -1.770  24.254  0.00  0.00    +0.277 C 
ENDBRANCH  28   2
BRANCH  30   3
ATOM      3  O   UNL     1       4.897   0.506  22.617  0.00  0.00    -0.491 OA
ATOM     35  C   UNL     1       5.807   0.887  23.647  0.00  0.00    +0.277 C 
ENDBRANCH  30   3
ENDBRANCH  19  22
ENDBRANCH  10  16
BRANCH  11  17
ATOM     17  C   UNL     1      -3.618   4.518  24.790  0.00  0.00    +0.123 C 
BRANCH  17   7
ATOM      1  O   UNL     1      -0.928   3.704  24.197  0.00  0.00    -0.270 OA
ATOM      7  N   UNL     1      -2.625   4.101  25.730  0.00  0.00    -0.310 N 
ATOM     21  C   UNL     1      -1.338   3.721  25.356  0.00  0.00    +0.244 C 
ATOM     37  H   UNL     1      -2.923   4.008  26.695  0.00  0.00    +0.149 HD
BRANCH  21  23
ATOM     23  C   UNL     1      -0.432   3.287  26.451  0.00  0.00    +0.037 A 
ATOM     26  C   UNL     1      -0.939   3.079  27.734  0.00  0.00    +0.016 A 
ATOM     27  C   UNL     1       0.925   3.091  26.197  0.00  0.00    +0.016 A 
ATOM     31  C   UNL     1      -0.089   2.673  28.762  0.00  0.00    +0.046 A 
ATOM     32  C   UNL     1       1.776   2.686  27.225  0.00  0.00    +0.046 A 
ATOM     33  C   UNL     1       1.268   2.476  28.508  0.00  0.00    +0.120 A 
BRANCH  33   4
ATOM      4  O   UNL     1       2.100   2.081  29.511  0.00  0.00    -0.495 OA
ATOM     36  C   UNL     1       1.527   1.945  30.812  0.00  0.00    +0.277 C 
ENDBRANCH  33   4
ENDBRANCH  21  23
ENDBRANCH  17   7
ENDBRANCH  11  17
TORSDOF 8
ENDMDL
MODEL 2
REMARK VINA RESULT:       8.4      2.707      4.534
REMARK  Name = 40779523
REMARK  12 active torsions:
REMARK  status: ('A' for Active; 'I' for Inactive)
REMARK    1  A    between atoms: O_2  and  C_28
REMARK    2  A    between atoms: O_2  and  C_34
REMARK    3  A    between atoms: O_3  and  C_30
REMARK    4  A    between atoms: O_3  and  C_35
REMARK    5  A    between atoms: O_4  and  C_33
REMARK    6  A    between atoms: O_4  and  C_36
REMARK    7  A    between atoms: N_6  and  C_20
REMARK    8  A    between atoms: N_7  and  C_17
REMARK    9  A    between atoms: C_10  and  C_16
REMARK   10  A    between atoms: C_11  and  C_17
REMARK   11  A    between atoms: C_19  and  C_22
REMARK   12  A    between atoms: C_21  and  C_23
REMARK                            x       y       z     vdW  Elec       q    Type
REMARK                         _______ _______ _______ _____ _____    ______ ____
ROOT
ATOM      5  N   UNL     1      -5.867   3.666  24.477  0.00  0.00    -0.297 NA
ATOM      9  C   UNL     1      -4.060   4.070  26.308  0.00  0.00    +0.002 C 
ATOM     10  C   UNL     1      -3.479   4.361  24.896  0.00  0.00    +0.055 C 
ATOM     11  C   UNL     1      -5.797   2.494  25.389  0.00  0.00    +0.074 C 
ATOM     12  C   UNL     1      -4.595   2.624  26.351  0.00  0.00    +0.024 C 
ATOM     13  C   UNL     1      -5.272   5.008  26.493  0.00  0.00    +0.019 C 
ATOM     14  C   UNL     1      -4.542   3.907  23.855  0.00  0.00    +0.094 C 
ATOM     15  C   UNL     1      -6.220   4.854  25.292  0.00  0.00    +0.085 C 
ENDROOT
BRANCH  10  16
ATOM      6  N   UNL     1      -0.969   4.614  24.618  0.00  0.00    -0.270 N 
ATOM      8  N   UNL     1       0.160   3.962  24.292  0.00  0.00    -0.171 NA
ATOM     16  C   UNL     1      -2.089   3.835  24.569  0.00  0.00    +0.044 A 
ATOM     18  C   UNL     1      -1.662   2.588  24.185  0.00  0.00    +0.053 A 
ATOM     19  C   UNL     1      -0.269   2.725  24.029  0.00  0.00    +0.093 A 
ATOM     20  C   UNL     1      -0.899   6.013  24.970  0.00  0.00    +0.172 C 
BRANCH  19  22
ATOM     22  C   UNL     1       0.657   1.697  23.632  0.00  0.00    +0.006 A 
ATOM     24  C   UNL     1       2.010   1.998  23.478  0.00  0.00    +0.059 A 
ATOM     25  C   UNL     1       0.201   0.400  23.398  0.00  0.00    +0.014 A 
ATOM     28  C   UNL     1       2.907   1.003  23.091  0.00  0.00    +0.162 A 
ATOM     29  C   UNL     1       1.098  -0.596  23.012  0.00  0.00    +0.050 A 
ATOM     30  C   UNL     1       2.451  -0.295  22.858  0.00  0.00    +0.162 A 
BRANCH  28   2
ATOM      2  O   UNL     1       4.227   1.309  22.944  0.00  0.00    -0.491 OA
ATOM     34  C   UNL     1       5.126   0.781  23.919  0.00  0.00    +0.277 C 
ENDBRANCH  28   2
BRANCH  30   3
ATOM      3  O   UNL     1       3.318  -1.276  22.481  0.00  0.00    -0.491 OA
ATOM     35  C   UNL     1       4.205  -1.775  23.480  0.00  0.00    +0.277 C 
ENDBRANCH  30   3
ENDBRANCH  19  22
ENDBRANCH  10  16
BRANCH  11  17
ATOM     17  C   UNL     1      -5.780   1.165  24.631  0.00  0.00    +0.123 C 
BRANCH  17   7
ATOM      1  O   UNL     1      -5.162  -1.514  23.802  0.00  0.00    -0.270 OA
ATOM      7  N   UNL     1      -4.561   0.456  24.872  0.00  0.00    -0.310 N 
ATOM     21  C   UNL     1      -4.344  -0.848  24.432  0.00  0.00    +0.244 C 
ATOM     37  H   UNL     1      -3.877   0.916  25.462  0.00  0.00    +0.149 HD
BRANCH  21  23
ATOM     23  C   UNL     1      -3.034  -1.454  24.786  0.00  0.00    +0.037 A 
ATOM     26  C   UNL     1      -2.634  -2.650  24.189  0.00  0.00    +0.016 A 
ATOM     27  C   UNL     1      -2.206  -0.829  25.718  0.00  0.00    +0.016 A 
ATOM     31  C   UNL     1      -1.406  -3.219  24.522  0.00  0.00    +0.046 A 
ATOM     32  C   UNL     1      -0.977  -1.398  26.052  0.00  0.00    +0.046 A 
ATOM     33  C   UNL     1      -0.577  -2.594  25.453  0.00  0.00    +0.120 A 
BRANCH  33   4
ATOM      4  O   UNL     1       0.622  -3.149  25.780  0.00  0.00    -0.495 OA
ATOM     36  C   UNL     1       1.787  -2.563  25.198  0.00  0.00    +0.277 C 
ENDBRANCH  33   4
ENDBRANCH  21  23
ENDBRANCH  17   7
ENDBRANCH  11  17
TORSDOF 8
ENDMDL
MODEL 3
REMARK VINA RESULT:       9.5      2.747      4.153
REMARK  Name = 40779523
REMARK  12 active torsions:
REMARK  status: ('A' for Active; 'I' for Inactive)
REMARK    1  A    between atoms: O_2  and  C_28
REMARK    2  A    between atoms: O_2  and  C_34
REMARK    3  A    between atoms: O_3  and  C_30
REMARK    4  A    between atoms: O_3  and  C_35
REMARK    5  A    between atoms: O_4  and  C_33
REMARK    6  A    between atoms: O_4  and  C_36
REMARK    7  A    between atoms: N_6  and  C_20
REMARK    8  A    between atoms: N_7  and  C_17
REMARK    9  A    between atoms: C_10  and  C_16
REMARK   10  A    between atoms: C_11  and  C_17
REMARK   11  A    between atoms: C_19  and  C_22
REMARK   12  A    between atoms: C_21  and  C_23
REMARK                            x       y       z     vdW  Elec       q    Type
REMARK                         _______ _______ _______ _____ _____    ______ ____
ROOT
ATOM      5  N   UNL     1      -5.363   4.022  25.020  0.00  0.00    -0.297 NA
ATOM      9  C   UNL     1      -2.980   4.294  26.035  0.00  0.00    +0.002 C 
ATOM     10  C   UNL     1      -2.895   4.065  24.500  0.00  0.00    +0.055 C 
ATOM     11  C   UNL     1      -5.207   3.127  26.196  0.00  0.00    +0.074 C 
ATOM     12  C   UNL     1      -3.741   3.119  26.684  0.00  0.00    +0.024 C 
ATOM     13  C   UNL     1      -3.834   5.562  26.250  0.00  0.00    +0.019 C 
ATOM     14  C   UNL     1      -4.326   3.713  24.004  0.00  0.00    +0.094 C 
ATOM     15  C   UNL     1      -5.158   5.417  25.481  0.00  0.00    +0.085 C 
ENDROOT
BRANCH  10  16
ATOM      6  N   UNL     1      -2.146   2.054  23.145  0.00  0.00    -0.270 N 
ATOM      8  N   UNL     1      -1.080   1.314  22.797  0.00  0.00    -0.171 NA
ATOM     16  C   UNL     1      -1.847   3.095  23.976  0.00  0.00    +0.044 A 
ATOM     18  C   UNL     1      -0.491   3.029  24.185  0.00  0.00    +0.053 A 
ATOM     19  C   UNL     1      -0.072   1.914  23.435  0.00  0.00    +0.093 A 
ATOM     20  C   UNL     1      -3.450   1.697  22.636  0.00  0.00    +0.172 C 
BRANCH  19  22
ATOM     22  C   UNL     1       1.272   1.411  23.318  0.00  0.00    +0.006 A 
ATOM     24  C   UNL     1       1.523   0.047  23.471  0.00  0.00    +0.059 A 
ATOM     25  C   UNL     1       2.324   2.288  23.054  0.00  0.00    +0.014 A 
ATOM     28  C   UNL     1       2.825  -0.440  23.360  0.00  0.00    +0.162 A 
ATOM     29  C   UNL     1       3.627   1.800  22.942  0.00  0.00    +0.050 A 
ATOM     30  C   UNL     1       3.877   0.437  23.095  0.00  0.00    +0.162 A 
BRANCH  28   2
ATOM      2  O   UNL     1       3.058  -1.774  23.512  0.00  0.00    -0.491 OA
ATOM     34  C   UNL     1       4.375  -2.161  23.900  0.00  0.00    +0.277 C 
ENDBRANCH  28   2
BRANCH  30   3
ATOM      3  O   UNL     1       5.153  -0.027  22.983  0.00  0.00    -0.491 OA
ATOM     35  C   UNL     1       6.115   0.499  23.895  0.00  0.00    +0.277 C 
ENDBRANCH  30   3
ENDBRANCH  19  22
ENDBRANCH  10  16
BRANCH  11  17
ATOM     17  C   UNL     1      -5.725   1.713  25.926  0.00  0.00    +0.123 C 
BRANCH  17   7
ATOM      1  O   UNL     1      -5.494  -0.442  24.041  0.00  0.00    -0.270 OA
ATOM      7  N   UNL     1      -4.643   0.784  25.819  0.00  0.00    -0.310 N 
ATOM     21  C   UNL     1      -4.611  -0.236  24.871  0.00  0.00    +0.244 C 
ATOM     37  H   UNL     1      -3.922   0.843  26.530  0.00  0.00    +0.149 HD
BRANCH  21  23
ATOM     23  C   UNL     1      -3.428  -1.134  24.908  0.00  0.00    +0.037 A 
ATOM     26  C   UNL     1      -2.199  -0.652  25.359  0.00  0.00    +0.016 A 
ATOM     27  C   UNL     1      -3.545  -2.460  24.490  0.00  0.00    +0.016 A 
ATOM     31  C   UNL     1      -1.089  -1.495  25.393  0.00  0.00    +0.046 A 
ATOM     32  C   UNL     1      -2.435  -3.303  24.523  0.00  0.00    +0.046 A 
ATOM     33  C   UNL     1      -1.206  -2.820  24.975  0.00  0.00    +0.120 A 
BRANCH  33   4
ATOM      4  O   UNL     1      -0.123  -3.644  25.007  0.00  0.00    -0.495 OA
ATOM     36  C   UNL     1       1.047  -3.150  25.659  0.00  0.00    +0.277 C 
ENDBRANCH  33   4
ENDBRANCH  21  23
ENDBRANCH  17   7
ENDBRANCH  11  17
TORSDOF 8
ENDMDL
MODEL 4
REMARK VINA RESULT:      11.8      1.071      1.597
REMARK  Name = 40779523
REMARK  12 active torsions:
REMARK  status: ('A' for Active; 'I' for Inactive)
REMARK    1  A    between atoms: O_2  and  C_28
REMARK    2  A    between atoms: O_2  and  C_34
REMARK    3  A    between atoms: O_3  and  C_30
REMARK    4  A    between atoms: O_3  and  C_35
REMARK    5  A    between atoms: O_4  and  C_33
REMARK    6  A    between atoms: O_4  and  C_36
REMARK    7  A    between atoms: N_6  and  C_20
REMARK    8  A    between atoms: N_7  and  C_17
REMARK    9  A    between atoms: C_10  and  C_16
REMARK   10  A    between atoms: C_11  and  C_17
REMARK   11  A    between atoms: C_19  and  C_22
REMARK   12  A    between atoms: C_21  and  C_23
REMARK                            x       y       z     vdW  Elec       q    Type
REMARK                         _______ _______ _______ _____ _____    ______ ____
ROOT
ATOM      5  N   UNL     1      -4.902   2.545  25.470  0.00  0.00    -0.297 NA
ATOM      9  C   UNL     1      -5.028   0.447  23.932  0.00  0.00    +0.002 C 
ATOM     10  C   UNL     1      -4.052   0.197  25.114  0.00  0.00    +0.055 C 
ATOM     11  C   UNL     1      -4.707   2.943  24.051  0.00  0.00    +0.074 C 
ATOM     12  C   UNL     1      -4.571   1.696  23.149  0.00  0.00    +0.024 C 
ATOM     13  C   UNL     1      -6.403   0.777  24.551  0.00  0.00    +0.019 C 
ATOM     14  C   UNL     1      -3.876   1.548  25.865  0.00  0.00    +0.094 C 
ATOM     15  C   UNL     1      -6.236   1.906  25.583  0.00  0.00    +0.085 C 
ENDROOT
BRANCH  10  16
ATOM      6  N   UNL     1      -2.587  -1.824  24.656  0.00  0.00    -0.270 N 
ATOM      8  N   UNL     1      -1.328  -2.219  24.400  0.00  0.00    -0.171 NA
ATOM     16  C   UNL     1      -2.720  -0.476  24.816  0.00  0.00    +0.044 A 
ATOM     18  C   UNL     1      -1.461   0.047  24.653  0.00  0.00    +0.053 A 
ATOM     19  C   UNL     1      -0.645  -1.072  24.399  0.00  0.00    +0.093 A 
ATOM     20  C   UNL     1      -3.635  -2.816  24.738  0.00  0.00    +0.172 C 
BRANCH  19  22
ATOM     22  C   UNL     1       0.775  -1.066  24.158  0.00  0.00    +0.006 A 
ATOM     24  C   UNL     1       1.349  -0.050  23.394  0.00  0.00    +0.059 A 
ATOM     25  C   UNL     1       1.576  -2.078  24.688  0.00  0.00    +0.014 A 
ATOM     28  C   UNL     1       2.724  -0.045  23.160  0.00  0.00    +0.162 A 
ATOM     29  C   UNL     1       2.951  -2.072  24.454  0.00  0.00    +0.050 A 
ATOM     30  C   UNL     1       3.525  -1.056  23.690  0.00  0.00    +0.162 A 
BRANCH  28   2
ATOM      2  O   UNL     1       3.273   0.952  22.412  0.00  0.00    -0.491 OA
ATOM     34  C   UNL     1       3.707   0.611  21.096  0.00  0.00    +0.277 C 
ENDBRANCH  28   2
BRANCH  30   3
ATOM      3  O   UNL     1       4.870  -1.062  23.469  0.00  0.00    -0.491 OA
ATOM     35  C   UNL     1       5.637  -0.054  24.124  0.00  0.00    +0.277 C 
ENDBRANCH  30   3
ENDBRANCH  19  22
ENDBRANCH  10  16
BRANCH  11  17
ATOM     17  C   UNL     1      -3.532   3.906  23.872  0.00  0.00    +0.123 C 
BRANCH  17   7
ATOM      1  O   UNL     1      -3.061   4.635  26.610  0.00  0.00    -0.270 OA
ATOM      7  N   UNL     1      -2.421   3.512  24.682  0.00  0.00    -0.310 N 
ATOM     21  C   UNL     1      -2.269   3.913  26.008  0.00  0.00    +0.244 C 
ATOM     37  H   UNL     1      -1.686   2.988  24.221  0.00  0.00    +0.149 HD
BRANCH  21  23
ATOM     23  C   UNL     1      -1.046   3.439  26.705  0.00  0.00    +0.037 A 
ATOM     26  C   UNL     1      -1.044   3.298  28.093  0.00  0.00    +0.016 A 
ATOM     27  C   UNL     1       0.101   3.137  25.972  0.00  0.00    +0.016 A 
ATOM     31  C   UNL     1       0.105   2.854  28.747  0.00  0.00    +0.046 A 
ATOM     32  C   UNL     1       1.251   2.694  26.625  0.00  0.00    +0.046 A 
ATOM     33  C   UNL     1       1.252   2.552  28.014  0.00  0.00    +0.120 A 
BRANCH  33   4
ATOM      4  O   UNL     1       2.375   2.119  28.651  0.00  0.00    -0.495 OA
ATOM     36  C   UNL     1       2.268   1.869  30.052  0.00  0.00    +0.277 C 
ENDBRANCH  33   4
ENDBRANCH  21  23
ENDBRANCH  17   7
ENDBRANCH  11  17
TORSDOF 8
ENDMDL
