MODEL 1
REMARK VINA RESULT:       5.1      0.000      0.000
REMARK  Name = 9424622
REMARK  4 active torsions:
REMARK  status: ('A' for Active; 'I' for Inactive)
REMARK    1  A    between atoms: N_4  and  C_15
REMARK    2  A    between atoms: N_7  and  C_22
REMARK    3  A    between atoms: C_26  and  C_27
REMARK    4  A    between atoms: C_28  and  C_29
REMARK                            x       y       z     vdW  Elec       q    Type
REMARK                         _______ _______ _______ _____ _____    ______ ____
ROOT
ATOM      1  O   UNL     1      -3.787   5.269  26.997  0.00  0.00    -0.268 OA
ATOM      4  N   UNL     1      -4.228   0.738  24.885  0.00  0.00    -0.298 NA
ATOM      5  N   UNL     1      -3.434   3.816  25.194  0.00  0.00    -0.310 N 
ATOM     10  C   UNL     1      -5.374   2.742  23.906  0.00  0.00    +0.024 C 
ATOM     11  C   UNL     1      -3.064   2.242  23.268  0.00  0.00    +0.052 C 
ATOM     12  C   UNL     1      -4.402   2.753  22.738  0.00  0.00    +0.017 C 
ATOM     13  C   UNL     1      -5.513   1.313  24.470  0.00  0.00    +0.090 C 
ATOM     14  C   UNL     1      -3.237   0.801  23.801  0.00  0.00    +0.094 C 
ATOM     16  C   UNL     1      -4.882   3.746  24.953  0.00  0.00    +0.130 C 
ATOM     17  C   UNL     1      -2.512   3.151  24.364  0.00  0.00    +0.047 A 
ATOM     22  C   UNL     1      -1.186   3.312  24.574  0.00  0.00    +0.054 A 
ATOM     23  C   UNL     1      -3.027   4.652  26.250  0.00  0.00    +0.252 A 
ATOM     24  C   UNL     1      -0.716   4.162  25.642  0.00  0.00    +0.030 A 
ATOM     25  C   UNL     1      -1.565   4.799  26.452  0.00  0.00    +0.072 A 
ENDROOT
BRANCH   4  15
ATOM      2  O   UNL     1      -1.088  -3.858  23.445  0.00  0.00    -0.276 OA
ATOM      6  N   UNL     1      -1.948  -2.041  24.610  0.00  0.00    -0.302 N 
ATOM     15  C   UNL     1      -4.396  -0.636  25.362  0.00  0.00    +0.060 C 
ATOM     18  C   UNL     1      -3.304  -0.984  26.384  0.00  0.00    +0.038 C 
ATOM     19  C   UNL     1      -4.343  -1.621  24.185  0.00  0.00    +0.038 C 
ATOM     20  C   UNL     1      -1.919  -1.107  25.744  0.00  0.00    +0.109 C 
ATOM     21  C   UNL     1      -2.943  -1.732  23.580  0.00  0.00    +0.109 C 
ATOM     26  C   UNL     1      -1.082  -3.120  24.433  0.00  0.00    +0.212 C 
ATOM     27  C   UNL     1      -0.088  -3.377  25.538  0.00  0.00    +0.109 C 
ENDBRANCH   4  15
BRANCH  22   7
ATOM      3  O   UNL     1       0.061   0.823  25.200  0.00  0.00    -0.268 OA
ATOM      7  N   UNL     1      -0.218   2.686  23.836  0.00  0.00    -0.279 N 
ATOM     28  C   UNL     1       0.347   1.474  24.197  0.00  0.00    +0.268 C 
ATOM     33  H   UNL     1      -0.041   3.018  22.893  0.00  0.00    +0.155 HD
BRANCH  28  29
ATOM      8  N   UNL     1       2.604   1.397  23.440  0.00  0.00    -0.247 NA
ATOM      9  N   UNL     1       1.923  -0.446  21.438  0.00  0.00    -0.259 NA
ATOM     29  C   UNL     1       1.367   0.938  23.258  0.00  0.00    +0.144 A 
ATOM     30  C   UNL     1       1.008   0.046  22.297  0.00  0.00    +0.143 A 
ATOM     31  C   UNL     1       3.519   0.905  22.581  0.00  0.00    +0.131 A 
ATOM     32  C   UNL     1       3.184   0.000  21.598  0.00  0.00    +0.130 A 
ENDBRANCH  28  29
ENDBRANCH  22   7
TORSDOF 3
ENDMDL
MODEL 2
REMARK VINA RESULT:       7.2      1.754      5.656
REMARK  Name = 9424622
REMARK  4 active torsions:
REMARK  status: ('A' for Active; 'I' for Inactive)
REMARK    1  A    between atoms: N_4  and  C_15
REMARK    2  A    between atoms: N_7  and  C_22
REMARK    3  A    between atoms: C_26  and  C_27
REMARK    4  A    between atoms: C_28  and  C_29
REMARK                            x       y       z     vdW  Elec       q    Type
REMARK                         _______ _______ _______ _____ _____    ______ ____
ROOT
ATOM      1  O   UNL     1      -4.248  -3.915  23.815  0.00  0.00    -0.268 OA
ATOM      4  N   UNL     1      -3.036   0.944  24.138  0.00  0.00    -0.298 NA
ATOM      5  N   UNL     1      -2.875  -2.206  24.640  0.00  0.00    -0.310 N 
ATOM     10  C   UNL     1      -3.775  -0.345  26.157  0.00  0.00    +0.024 C 
ATOM     11  C   UNL     1      -1.412  -0.358  25.517  0.00  0.00    +0.052 C 
ATOM     12  C   UNL     1      -2.361  -0.325  26.714  0.00  0.00    +0.017 C 
ATOM     13  C   UNL     1      -4.004   0.873  25.239  0.00  0.00    +0.090 C 
ATOM     14  C   UNL     1      -1.653   0.889  24.635  0.00  0.00    +0.094 C 
ATOM     16  C   UNL     1      -3.992  -1.679  25.437  0.00  0.00    +0.130 C 
ATOM     17  C   UNL     1      -1.591  -1.633  24.695  0.00  0.00    +0.047 A 
ATOM     22  C   UNL     1      -0.574  -2.203  24.010  0.00  0.00    +0.054 A 
ATOM     23  C   UNL     1      -3.149  -3.363  23.888  0.00  0.00    +0.252 A 
ATOM     24  C   UNL     1      -0.802  -3.393  23.226  0.00  0.00    +0.030 A 
ATOM     25  C   UNL     1      -2.010  -3.955  23.146  0.00  0.00    +0.072 A 
ENDROOT
BRANCH   4  15
ATOM      2  O   UNL     1      -2.093   6.408  25.659  0.00  0.00    -0.276 OA
ATOM      6  N   UNL     1      -1.855   4.302  24.705  0.00  0.00    -0.302 N 
ATOM     15  C   UNL     1      -3.252   2.141  23.324  0.00  0.00    +0.060 C 
ATOM     18  C   UNL     1      -1.910   2.699  22.827  0.00  0.00    +0.038 C 
ATOM     19  C   UNL     1      -3.995   3.213  24.135  0.00  0.00    +0.038 C 
ATOM     20  C   UNL     1      -1.075   3.309  23.954  0.00  0.00    +0.109 C 
ATOM     21  C   UNL     1      -3.127   3.812  25.242  0.00  0.00    +0.109 C 
ATOM     26  C   UNL     1      -1.446   5.608  24.978  0.00  0.00    +0.212 C 
ATOM     27  C   UNL     1      -0.128   6.041  24.388  0.00  0.00    +0.109 C 
ENDBRANCH   4  15
BRANCH  22   7
ATOM      3  O   UNL     1       0.453  -0.315  22.132  0.00  0.00    -0.268 OA
ATOM      7  N   UNL     1       0.699  -1.701  23.983  0.00  0.00    -0.279 N 
ATOM     28  C   UNL     1       1.135  -0.783  23.041  0.00  0.00    +0.268 C 
ATOM     33  H   UNL     1       1.295  -1.855  24.790  0.00  0.00    +0.155 HD
BRANCH  28  29
ATOM      8  N   UNL     1       3.381  -1.248  23.684  0.00  0.00    -0.247 NA
ATOM      9  N   UNL     1       4.178   1.339  22.951  0.00  0.00    -0.259 NA
ATOM     29  C   UNL     1       2.545  -0.338  23.186  0.00  0.00    +0.144 A 
ATOM     30  C   UNL     1       2.903   0.923  22.822  0.00  0.00    +0.143 A 
ATOM     31  C   UNL     1       4.656  -0.831  23.811  0.00  0.00    +0.131 A 
ATOM     32  C   UNL     1       5.048   0.439  23.452  0.00  0.00    +0.130 A 
ENDBRANCH  28  29
ENDBRANCH  22   7
TORSDOF 3
ENDMDL
MODEL 3
REMARK VINA RESULT:       7.7      1.475      1.990
REMARK  Name = 9424622
REMARK  4 active torsions:
REMARK  status: ('A' for Active; 'I' for Inactive)
REMARK    1  A    between atoms: N_4  and  C_15
REMARK    2  A    between atoms: N_7  and  C_22
REMARK    3  A    between atoms: C_26  and  C_27
REMARK    4  A    between atoms: C_28  and  C_29
REMARK                            x       y       z     vdW  Elec       q    Type
REMARK                         _______ _______ _______ _____ _____    ______ ____
ROOT
ATOM      1  O   UNL     1      -2.283   3.737  29.072  0.00  0.00    -0.268 OA
ATOM      4  N   UNL     1      -3.688   2.196  24.508  0.00  0.00    -0.298 NA
ATOM      5  N   UNL     1      -1.961   3.670  26.753  0.00  0.00    -0.310 N 
ATOM     10  C   UNL     1      -3.678   4.630  25.108  0.00  0.00    +0.024 C 
ATOM     11  C   UNL     1      -1.632   3.588  24.261  0.00  0.00    +0.052 C 
ATOM     12  C   UNL     1      -2.468   4.866  24.220  0.00  0.00    +0.017 C 
ATOM     13  C   UNL     1      -4.489   3.423  24.595  0.00  0.00    +0.090 C 
ATOM     14  C   UNL     1      -2.467   2.408  23.717  0.00  0.00    +0.094 C 
ATOM     16  C   UNL     1      -3.192   4.447  26.549  0.00  0.00    +0.130 C 
ATOM     17  C   UNL     1      -1.142   3.285  25.676  0.00  0.00    +0.047 A 
ATOM     22  C   UNL     1       0.025   2.644  25.918  0.00  0.00    +0.054 A 
ATOM     23  C   UNL     1      -1.613   3.411  28.091  0.00  0.00    +0.252 A 
ATOM     24  C   UNL     1       0.429   2.358  27.273  0.00  0.00    +0.030 A 
ATOM     25  C   UNL     1      -0.330   2.701  28.316  0.00  0.00    +0.072 A 
ENDROOT
BRANCH   4  15
ATOM      2  O   UNL     1      -1.993  -3.242  23.726  0.00  0.00    -0.276 OA
ATOM      6  N   UNL     1      -2.991  -1.340  24.611  0.00  0.00    -0.302 N 
ATOM     15  C   UNL     1      -4.478   1.089  23.965  0.00  0.00    +0.060 C 
ATOM     18  C   UNL     1      -4.911   0.138  25.091  0.00  0.00    +0.038 C 
ATOM     19  C   UNL     1      -3.668   0.319  22.912  0.00  0.00    +0.038 C 
ATOM     20  C   UNL     1      -3.738  -0.653  25.673  0.00  0.00    +0.109 C 
ATOM     21  C   UNL     1      -2.515  -0.473  23.530  0.00  0.00    +0.109 C 
ATOM     26  C   UNL     1      -2.670  -2.697  24.602  0.00  0.00    +0.212 C 
ATOM     27  C   UNL     1      -3.199  -3.525  25.745  0.00  0.00    +0.109 C 
ENDBRANCH   4  15
BRANCH  22   7
ATOM      3  O   UNL     1      -0.044   0.091  24.646  0.00  0.00    -0.268 OA
ATOM      7  N   UNL     1       0.871   2.209  24.934  0.00  0.00    -0.279 N 
ATOM     28  C   UNL     1       0.783   0.953  24.357  0.00  0.00    +0.268 C 
ATOM     33  H   UNL     1       1.464   2.892  24.472  0.00  0.00    +0.155 HD
BRANCH  28  29
ATOM      8  N   UNL     1       2.976   1.221  23.466  0.00  0.00    -0.247 NA
ATOM      9  N   UNL     1       2.322  -0.368  21.248  0.00  0.00    -0.259 NA
ATOM     29  C   UNL     1       1.776   0.669  23.288  0.00  0.00    +0.144 A 
ATOM     30  C   UNL     1       1.431  -0.105  22.225  0.00  0.00    +0.143 A 
ATOM     31  C   UNL     1       3.866   0.956  22.489  0.00  0.00    +0.131 A 
ATOM     32  C   UNL     1       3.545   0.177  21.400  0.00  0.00    +0.130 A 
ENDBRANCH  28  29
ENDBRANCH  22   7
TORSDOF 3
ENDMDL
