MODEL 1
REMARK VINA RESULT:      -2.2      0.000      0.000
REMARK  Name = 71693321
REMARK  12 active torsions:
REMARK  status: ('A' for Active; 'I' for Inactive)
REMARK    1  A    between atoms: O_2  and  C_11
REMARK    2  A    between atoms: N_5  and  C_9
REMARK    3  A    between atoms: N_6  and  C_21
REMARK    4  A    between atoms: C_7  and  C_11
REMARK    5  A    between atoms: C_8  and  C_13
REMARK    6  A    between atoms: C_9  and  C_10
REMARK    7  A    between atoms: C_10  and  C_15
REMARK    8  A    between atoms: C_10  and  C_16
REMARK    9  A    between atoms: C_22  and  C_23
REMARK   10  A    between atoms: C_22  and  C_25
REMARK   11  A    between atoms: C_22  and  C_26
REMARK   12  A    between atoms: C_23  and  C_24
REMARK                            x       y       z     vdW  Elec       q    Type
REMARK                         _______ _______ _______ _____ _____    ______ ____
ROOT
ATOM      1  O   UNL     1      14.652  -6.354  30.560  0.00  0.00    -0.361 OA
ATOM      3  O   UNL     1      13.299  -8.701  32.873  0.00  0.00    -0.273 OA
ATOM      5  N   UNL     1      14.405  -9.102  30.862  0.00  0.00    -0.291 N 
ATOM      7  C   UNL     1      15.047  -8.541  29.648  0.00  0.00    +0.135 C 
ATOM      8  C   UNL     1      15.654  -7.153  29.930  0.00  0.00    +0.171 C 
ATOM     12  C   UNL     1      13.948  -8.297  31.907  0.00  0.00    +0.242 C 
ATOM     14  C   UNL     1      14.361  -6.841  31.848  0.00  0.00    +0.256 C 
ENDROOT
BRANCH   8  13
ATOM     13  C   UNL     1      16.102  -6.407  28.691  0.00  0.00    -0.017 A 
ATOM     17  C   UNL     1      16.861  -5.244  28.812  0.00  0.00    +0.008 A 
ATOM     18  C   UNL     1      15.755  -6.885  27.426  0.00  0.00    +0.008 A 
ATOM     19  C   UNL     1      17.274  -4.558  27.670  0.00  0.00    +0.023 A 
ATOM     20  C   UNL     1      16.169  -6.199  26.284  0.00  0.00    +0.023 A 
ATOM     21  C   UNL     1      16.928  -5.036  26.406  0.00  0.00    +0.033 A 
BRANCH  21   6
ATOM      4  O   UNL     1      15.332  -3.519  24.367  0.00  0.00    -0.275 OA
ATOM      6  N   UNL     1      17.341  -4.349  25.264  0.00  0.00    -0.285 N 
ATOM     24  C   UNL     1      16.551  -3.641  24.342  0.00  0.00    +0.217 C 
ATOM     28  H   UNL     1      18.341  -4.395  25.079  0.00  0.00    +0.155 HD
BRANCH  24  23
ATOM     23  C   UNL     1      17.405  -3.037  23.233  0.00  0.00    +0.099 C 
BRANCH  23  22
ATOM     22  C   UNL     1      17.122  -1.550  22.969  0.00  0.00    -0.008 C 
ATOM     25  C   UNL     1      15.766  -1.354  22.286  0.00  0.00    +0.008 C 
ATOM     26  C   UNL     1      17.156  -0.767  24.283  0.00  0.00    +0.008 C 
ENDBRANCH  23  22
ENDBRANCH  24  23
ENDBRANCH  21   6
ENDBRANCH   8  13
BRANCH   5   9
ATOM      9  C   UNL     1      14.027 -10.514  30.849  0.00  0.00    +0.111 C 
BRANCH   9  10
ATOM     10  C   UNL     1      12.758 -10.769  30.027  0.00  0.00    +0.000 C 
ATOM     15  C   UNL     1      13.067 -10.644  28.534  0.00  0.00    +0.009 C 
ATOM     16  C   UNL     1      11.634  -9.802  30.410  0.00  0.00    +0.009 C 
ENDBRANCH   9  10
ENDBRANCH   5   9
BRANCH   7  11
ATOM     11  C   UNL     1      16.104  -9.483  29.052  0.00  0.00    +0.181 C 
BRANCH  11   2
ATOM      2  O   UNL     1      17.102  -9.698  30.029  0.00  0.00    -0.393 OA
ATOM     27  H   UNL     1      17.929  -9.895  29.558  0.00  0.00    +0.209 HD
ENDBRANCH  11   2
ENDBRANCH   7  11
TORSDOF 8
ENDMDL
MODEL 2
REMARK VINA RESULT:      -0.4     17.672     19.465
REMARK  Name = 71693321
REMARK  12 active torsions:
REMARK  status: ('A' for Active; 'I' for Inactive)
REMARK    1  A    between atoms: O_2  and  C_11
REMARK    2  A    between atoms: N_5  and  C_9
REMARK    3  A    between atoms: N_6  and  C_21
REMARK    4  A    between atoms: C_7  and  C_11
REMARK    5  A    between atoms: C_8  and  C_13
REMARK    6  A    between atoms: C_9  and  C_10
REMARK    7  A    between atoms: C_10  and  C_15
REMARK    8  A    between atoms: C_10  and  C_16
REMARK    9  A    between atoms: C_22  and  C_23
REMARK   10  A    between atoms: C_22  and  C_25
REMARK   11  A    between atoms: C_22  and  C_26
REMARK   12  A    between atoms: C_23  and  C_24
REMARK                            x       y       z     vdW  Elec       q    Type
REMARK                         _______ _______ _______ _____ _____    ______ ____
ROOT
ATOM      1  O   UNL     1      -2.974  -0.001  25.367  0.00  0.00    -0.361 OA
ATOM      3  O   UNL     1      -6.390   0.854  25.914  0.00  0.00    -0.273 OA
ATOM      5  N   UNL     1      -4.771   2.006  24.697  0.00  0.00    -0.291 N 
ATOM      7  C   UNL     1      -3.359   2.092  24.251  0.00  0.00    +0.135 C 
ATOM      8  C   UNL     1      -2.723   0.692  24.144  0.00  0.00    +0.171 C 
ATOM     12  C   UNL     1      -5.265   0.916  25.416  0.00  0.00    +0.242 C 
ATOM     14  C   UNL     1      -4.346  -0.286  25.507  0.00  0.00    +0.256 C 
ENDROOT
BRANCH   8  13
ATOM     13  C   UNL     1      -1.222   0.706  23.943  0.00  0.00    -0.017 A 
ATOM     17  C   UNL     1      -0.587  -0.385  23.350  0.00  0.00    +0.008 A 
ATOM     18  C   UNL     1      -0.474   1.811  24.350  0.00  0.00    +0.008 A 
ATOM     19  C   UNL     1       0.795  -0.372  23.165  0.00  0.00    +0.023 A 
ATOM     20  C   UNL     1       0.908   1.825  24.164  0.00  0.00    +0.023 A 
ATOM     21  C   UNL     1       1.543   0.734  23.571  0.00  0.00    +0.033 A 
BRANCH  21   6
ATOM      4  O   UNL     1       3.184   0.054  21.153  0.00  0.00    -0.275 OA
ATOM      6  N   UNL     1       2.926   0.746  23.385  0.00  0.00    -0.285 N 
ATOM     24  C   UNL     1       3.649   0.428  22.223  0.00  0.00    +0.217 C 
ATOM     28  H   UNL     1       3.463   0.999  24.211  0.00  0.00    +0.155 HD
BRANCH  24  23
ATOM     23  C   UNL     1       5.150   0.571  22.451  0.00  0.00    +0.099 C 
BRANCH  23  22
ATOM     22  C   UNL     1       5.687  -0.283  23.611  0.00  0.00    -0.008 C 
ATOM     25  C   UNL     1       5.766   0.527  24.908  0.00  0.00    +0.008 C 
ATOM     26  C   UNL     1       4.794  -1.507  23.821  0.00  0.00    +0.008 C 
ENDBRANCH  23  22
ENDBRANCH  24  23
ENDBRANCH  21   6
ENDBRANCH   8  13
BRANCH   5   9
ATOM      9  C   UNL     1      -5.601   3.204  24.585  0.00  0.00    +0.111 C 
BRANCH   9  10
ATOM     10  C   UNL     1      -5.479   4.112  25.814  0.00  0.00    +0.000 C 
ATOM     15  C   UNL     1      -6.185   5.444  25.553  0.00  0.00    +0.009 C 
ATOM     16  C   UNL     1      -4.016   4.361  26.189  0.00  0.00    +0.009 C 
ENDBRANCH   9  10
ENDBRANCH   5   9
BRANCH   7  11
ATOM     11  C   UNL     1      -3.203   2.859  22.930  0.00  0.00    +0.181 C 
BRANCH  11   2
ATOM      2  O   UNL     1      -2.868   1.930  21.919  0.00  0.00    -0.393 OA
ATOM     27  H   UNL     1      -2.232   2.366  21.326  0.00  0.00    +0.209 HD
ENDBRANCH  11   2
ENDBRANCH   7  11
TORSDOF 8
ENDMDL
MODEL 3
REMARK VINA RESULT:       1.4     18.015     19.706
REMARK  Name = 71693321
REMARK  12 active torsions:
REMARK  status: ('A' for Active; 'I' for Inactive)
REMARK    1  A    between atoms: O_2  and  C_11
REMARK    2  A    between atoms: N_5  and  C_9
REMARK    3  A    between atoms: N_6  and  C_21
REMARK    4  A    between atoms: C_7  and  C_11
REMARK    5  A    between atoms: C_8  and  C_13
REMARK    6  A    between atoms: C_9  and  C_10
REMARK    7  A    between atoms: C_10  and  C_15
REMARK    8  A    between atoms: C_10  and  C_16
REMARK    9  A    between atoms: C_22  and  C_23
REMARK   10  A    between atoms: C_22  and  C_25
REMARK   11  A    between atoms: C_22  and  C_26
REMARK   12  A    between atoms: C_23  and  C_24
REMARK                            x       y       z     vdW  Elec       q    Type
REMARK                         _______ _______ _______ _____ _____    ______ ____
ROOT
ATOM      1  O   UNL     1      -2.476   4.182  25.610  0.00  0.00    -0.361 OA
ATOM      3  O   UNL     1      -5.958   4.790  26.063  0.00  0.00    -0.273 OA
ATOM      5  N   UNL     1      -4.914   3.033  24.944  0.00  0.00    -0.291 N 
ATOM      7  C   UNL     1      -3.648   2.413  24.481  0.00  0.00    +0.135 C 
ATOM      8  C   UNL     1      -2.479   2.766  25.422  0.00  0.00    +0.171 C 
ATOM     12  C   UNL     1      -4.939   4.168  25.757  0.00  0.00    +0.242 C 
ATOM     14  C   UNL     1      -3.607   4.591  26.341  0.00  0.00    +0.256 C 
ENDROOT
BRANCH   8  13
ATOM     13  C   UNL     1      -1.114   2.387  24.887  0.00  0.00    -0.017 A 
ATOM     17  C   UNL     1      -0.315   3.348  24.268  0.00  0.00    +0.008 A 
ATOM     18  C   UNL     1      -0.655   1.075  25.015  0.00  0.00    +0.008 A 
ATOM     19  C   UNL     1       0.942   2.998  23.776  0.00  0.00    +0.023 A 
ATOM     20  C   UNL     1       0.603   0.726  24.523  0.00  0.00    +0.023 A 
ATOM     21  C   UNL     1       1.401   1.686  23.904  0.00  0.00    +0.033 A 
BRANCH  21   6
ATOM      4  O   UNL     1       2.173  -0.255  21.750  0.00  0.00    -0.275 OA
ATOM      6  N   UNL     1       2.659   1.337  23.411  0.00  0.00    -0.285 N 
ATOM     24  C   UNL     1       2.968   0.425  22.388  0.00  0.00    +0.217 C 
ATOM     28  H   UNL     1       3.440   1.794  23.877  0.00  0.00    +0.155 HD
BRANCH  24  23
ATOM     23  C   UNL     1       4.474   0.339  22.163  0.00  0.00    +0.099 C 
BRANCH  23  22
ATOM     22  C   UNL     1       5.220  -0.461  23.242  0.00  0.00    -0.008 C 
ATOM     25  C   UNL     1       5.753   0.456  24.347  0.00  0.00    +0.008 C 
ATOM     26  C   UNL     1       4.294  -1.516  23.850  0.00  0.00    +0.008 C 
ENDBRANCH  23  22
ENDBRANCH  24  23
ENDBRANCH  21   6
ENDBRANCH   8  13
BRANCH   5   9
ATOM      9  C   UNL     1      -6.162   2.581  24.334  0.00  0.00    +0.111 C 
BRANCH   9  10
ATOM     10  C   UNL     1      -6.767   1.378  25.068  0.00  0.00    +0.000 C 
ATOM     15  C   UNL     1      -6.540   1.516  26.575  0.00  0.00    +0.009 C 
ATOM     16  C   UNL     1      -6.174   0.058  24.570  0.00  0.00    +0.009 C 
ENDBRANCH   9  10
ENDBRANCH   5   9
BRANCH   7  11
ATOM     11  C   UNL     1      -3.764   0.892  24.311  0.00  0.00    +0.181 C 
BRANCH  11   2
ATOM      2  O   UNL     1      -3.220   0.546  23.053  0.00  0.00    -0.393 OA
ATOM     27  H   UNL     1      -3.874   0.797  22.378  0.00  0.00    +0.209 HD
ENDBRANCH  11   2
ENDBRANCH   7  11
TORSDOF 8
ENDMDL
