MODEL 1
REMARK VINA RESULT:       3.2      0.000      0.000
REMARK  Name = 26763474
REMARK  10 active torsions:
REMARK  status: ('A' for Active; 'I' for Inactive)
REMARK    1  A    between atoms: S_1  and  N_9
REMARK    2  A    between atoms: S_1  and  C_23
REMARK    3  A    between atoms: N_9  and  C_14
REMARK    4  A    between atoms: N_10  and  C_22
REMARK    5  A    between atoms: N_11  and  C_29
REMARK    6  A    between atoms: C_16  and  C_19
REMARK    7  A    between atoms: C_20  and  C_21
REMARK    8  A    between atoms: C_22  and  C_25
REMARK    9  A    between atoms: C_22  and  C_28
REMARK   10  A    between atoms: C_26  and  C_32
REMARK                            x       y       z     vdW  Elec       q    Type
REMARK                         _______ _______ _______ _____ _____    ______ ____
ROOT
ATOM      4  O   UNL     1      -2.420   3.914  26.999  0.00  0.00    -0.268 OA
ATOM      8  N   UNL     1      -1.429   2.358  25.552  0.00  0.00    -0.285 N 
ATOM     14  C   UNL     1       0.958   1.376  24.205  0.00  0.00    +0.080 C 
ATOM     15  C   UNL     1      -0.413   1.275  23.534  0.00  0.00    +0.052 C 
ATOM     16  C   UNL     1      -1.573   1.304  24.532  0.00  0.00    +0.164 C 
ATOM     17  C   UNL     1       1.007   2.573  25.151  0.00  0.00    +0.039 C 
ATOM     18  C   UNL     1      -0.111   2.489  26.183  0.00  0.00    +0.110 C 
ATOM     20  C   UNL     1      -2.488   3.125  26.058  0.00  0.00    +0.265 C 
ENDROOT
BRANCH  20  21
ATOM     11  N   UNL     1      -4.293   3.813  24.444  0.00  0.00    -0.262 N 
ATOM     12  N   UNL     1      -5.526   3.481  24.026  0.00  0.00    -0.176 NA
ATOM     21  C   UNL     1      -3.803   2.996  25.420  0.00  0.00    +0.123 A 
ATOM     24  C   UNL     1      -4.784   2.064  25.657  0.00  0.00    +0.057 A 
ATOM     26  C   UNL     1      -5.821   2.412  24.770  0.00  0.00    +0.061 A 
ATOM     29  C   UNL     1      -3.628   4.951  23.851  0.00  0.00    +0.173 C 
ATOM     32  C   UNL     1      -7.121   1.741  24.604  0.00  0.00    +0.067 C 
ENDBRANCH  20  21
BRANCH  16  19
ATOM      3  O   UNL     1      -1.293  -0.148  26.410  0.00  0.00    -0.274 OA
ATOM     10  N   UNL     1      -2.347  -0.964  24.502  0.00  0.00    -0.303 N 
ATOM     19  C   UNL     1      -1.717   0.003  25.267  0.00  0.00    +0.234 C 
ATOM     34  H   UNL     1      -2.707  -0.712  23.585  0.00  0.00    +0.149 HD
BRANCH  10  22
ATOM     22  C   UNL     1      -2.589  -2.310  24.969  0.00  0.00    +0.156 C 
ATOM     25  C   UNL     1      -1.373  -3.194  24.745  0.00  0.00    +0.038 C 
BRANCH  22  28
ATOM      7  O   UNL     1      -4.008  -4.054  24.051  0.00  0.00    -0.274 OA
ATOM     13  N   UNL     1      -4.677  -1.867  23.834  0.00  0.00    -0.328 N 
ATOM     28  C   UNL     1      -3.803  -2.857  24.235  0.00  0.00    +0.231 C 
ATOM     35  H   UNL     1      -4.504  -0.883  24.011  0.00  0.00    +0.145 HD
ATOM     36  H   UNL     1      -5.534  -2.097  23.343  0.00  0.00    +0.145 HD
ENDBRANCH  22  28
ENDBRANCH  10  22
ENDBRANCH  16  19
BRANCH  14   9
ATOM      9  N   UNL     1       2.006   1.530  23.167  0.00  0.00    -0.186 NA
ATOM     33  H   UNL     1       2.012   2.428  22.667  0.00  0.00    +0.148 HD
BRANCH   9   1
ATOM      1  S   UNL     1       2.631   0.158  22.387  0.00  0.00    +0.065 S 
ATOM      5  O   UNL     1       2.911   0.476  20.999  0.00  0.00    -0.153 OA
ATOM      6  O   UNL     1       1.806  -0.986  22.721  0.00  0.00    -0.153 OA
BRANCH   1  23
ATOM      2  S   UNL     1       4.445  -1.637  23.830  0.00  0.00    -0.077 S 
ATOM     23  C   UNL     1       4.177  -0.060  23.218  0.00  0.00    +0.142 A 
ATOM     27  C   UNL     1       5.232   0.784  23.483  0.00  0.00    +0.036 A 
ATOM     30  C   UNL     1       6.275   0.128  24.197  0.00  0.00    +0.010 A 
ATOM     31  C   UNL     1       5.978  -1.193  24.452  0.00  0.00    +0.047 A 
ENDBRANCH   1  23
ENDBRANCH   9   1
ENDBRANCH  14   9
TORSDOF 7
ENDMDL
MODEL 2
REMARK VINA RESULT:       3.9      2.695      7.419
REMARK  Name = 26763474
REMARK  10 active torsions:
REMARK  status: ('A' for Active; 'I' for Inactive)
REMARK    1  A    between atoms: S_1  and  N_9
REMARK    2  A    between atoms: S_1  and  C_23
REMARK    3  A    between atoms: N_9  and  C_14
REMARK    4  A    between atoms: N_10  and  C_22
REMARK    5  A    between atoms: N_11  and  C_29
REMARK    6  A    between atoms: C_16  and  C_19
REMARK    7  A    between atoms: C_20  and  C_21
REMARK    8  A    between atoms: C_22  and  C_25
REMARK    9  A    between atoms: C_22  and  C_28
REMARK   10  A    between atoms: C_26  and  C_32
REMARK                            x       y       z     vdW  Elec       q    Type
REMARK                         _______ _______ _______ _____ _____    ______ ____
ROOT
ATOM      4  O   UNL     1       1.579  -0.427  20.807  0.00  0.00    -0.268 OA
ATOM      8  N   UNL     1       0.519   0.437  22.712  0.00  0.00    -0.285 N 
ATOM     14  C   UNL     1      -1.562   2.119  23.859  0.00  0.00    +0.080 C 
ATOM     15  C   UNL     1      -0.211   1.962  24.560  0.00  0.00    +0.052 C 
ATOM     16  C   UNL     1       0.524   0.679  24.165  0.00  0.00    +0.164 C 
ATOM     17  C   UNL     1      -1.407   1.954  22.350  0.00  0.00    +0.039 C 
ATOM     18  C   UNL     1      -0.762   0.614  22.019  0.00  0.00    +0.110 C 
ATOM     20  C   UNL     1       1.599  -0.090  21.990  0.00  0.00    +0.265 C 
ENDROOT
BRANCH  20  21
ATOM     11  N   UNL     1       3.826   0.710  22.850  0.00  0.00    -0.262 N 
ATOM     12  N   UNL     1       4.912   0.298  23.525  0.00  0.00    -0.176 NA
ATOM     21  C   UNL     1       2.880  -0.260  22.685  0.00  0.00    +0.123 A 
ATOM     24  C   UNL     1       3.384  -1.383  23.295  0.00  0.00    +0.057 A 
ATOM     26  C   UNL     1       4.637  -0.981  23.794  0.00  0.00    +0.061 A 
ATOM     29  C   UNL     1       3.759   2.075  22.382  0.00  0.00    +0.173 C 
ATOM     32  C   UNL     1       5.610  -1.797  24.539  0.00  0.00    +0.067 C 
ENDBRANCH  20  21
BRANCH  16  19
ATOM      3  O   UNL     1       0.622  -1.404  25.331  0.00  0.00    -0.274 OA
ATOM     10  N   UNL     1      -1.456  -0.550  24.724  0.00  0.00    -0.303 N 
ATOM     19  C   UNL     1      -0.074  -0.536  24.812  0.00  0.00    +0.234 C 
ATOM     34  H   UNL     1      -1.933   0.251  24.319  0.00  0.00    +0.149 HD
BRANCH  10  22
ATOM     22  C   UNL     1      -2.271  -1.621  25.249  0.00  0.00    +0.156 C 
ATOM     25  C   UNL     1      -2.095  -2.893  24.436  0.00  0.00    +0.038 C 
BRANCH  22  28
ATOM      7  O   UNL     1      -4.251  -0.546  26.158  0.00  0.00    -0.274 OA
ATOM     13  N   UNL     1      -4.372  -1.477  24.061  0.00  0.00    -0.328 N 
ATOM     28  C   UNL     1      -3.722  -1.164  25.237  0.00  0.00    +0.231 C 
ATOM     35  H   UNL     1      -3.915  -1.969  23.299  0.00  0.00    +0.145 HD
ATOM     36  H   UNL     1      -5.341  -1.217  23.917  0.00  0.00    +0.145 HD
ENDBRANCH  22  28
ENDBRANCH  10  22
ENDBRANCH  16  19
BRANCH  14   9
ATOM      9  N   UNL     1      -2.115   3.464  24.150  0.00  0.00    -0.186 NA
ATOM     33  H   UNL     1      -1.744   4.233  23.579  0.00  0.00    +0.148 HD
BRANCH   9   1
ATOM      1  S   UNL     1      -2.718   3.813  25.698  0.00  0.00    +0.065 S 
ATOM      5  O   UNL     1      -2.910   5.245  25.830  0.00  0.00    -0.153 OA
ATOM      6  O   UNL     1      -1.934   3.089  26.679  0.00  0.00    -0.153 OA
BRANCH   1  23
ATOM      2  S   UNL     1      -4.713   2.323  24.151  0.00  0.00    -0.077 S 
ATOM     23  C   UNL     1      -4.313   3.052  25.648  0.00  0.00    +0.142 A 
ATOM     27  C   UNL     1      -5.323   2.918  26.575  0.00  0.00    +0.036 A 
ATOM     30  C   UNL     1      -6.440   2.206  26.049  0.00  0.00    +0.010 A 
ATOM     31  C   UNL     1      -6.241   1.824  24.741  0.00  0.00    +0.047 A 
ENDBRANCH   1  23
ENDBRANCH   9   1
ENDBRANCH  14   9
TORSDOF 7
ENDMDL
MODEL 3
REMARK VINA RESULT:       3.9      2.836      7.482
REMARK  Name = 26763474
REMARK  10 active torsions:
REMARK  status: ('A' for Active; 'I' for Inactive)
REMARK    1  A    between atoms: S_1  and  N_9
REMARK    2  A    between atoms: S_1  and  C_23
REMARK    3  A    between atoms: N_9  and  C_14
REMARK    4  A    between atoms: N_10  and  C_22
REMARK    5  A    between atoms: N_11  and  C_29
REMARK    6  A    between atoms: C_16  and  C_19
REMARK    7  A    between atoms: C_20  and  C_21
REMARK    8  A    between atoms: C_22  and  C_25
REMARK    9  A    between atoms: C_22  and  C_28
REMARK   10  A    between atoms: C_26  and  C_32
REMARK                            x       y       z     vdW  Elec       q    Type
REMARK                         _______ _______ _______ _____ _____    ______ ____
ROOT
ATOM      4  O   UNL     1       1.666  -0.284  20.870  0.00  0.00    -0.268 OA
ATOM      8  N   UNL     1       0.582   0.324  22.858  0.00  0.00    -0.285 N 
ATOM     14  C   UNL     1      -1.560   1.785  24.182  0.00  0.00    +0.080 C 
ATOM     15  C   UNL     1      -0.201   1.609  24.861  0.00  0.00    +0.052 C 
ATOM     16  C   UNL     1       0.584   0.407  24.329  0.00  0.00    +0.164 C 
ATOM     17  C   UNL     1      -1.406   1.791  22.663  0.00  0.00    +0.039 C 
ATOM     18  C   UNL     1      -0.709   0.522  22.188  0.00  0.00    +0.110 C 
ATOM     20  C   UNL     1       1.679  -0.077  22.083  0.00  0.00    +0.265 C 
ENDROOT
BRANCH  20  21
ATOM     11  N   UNL     1       3.936   0.683  22.897  0.00  0.00    -0.262 N 
ATOM     12  N   UNL     1       5.027   0.253  23.553  0.00  0.00    -0.176 NA
ATOM     21  C   UNL     1       2.969  -0.269  22.755  0.00  0.00    +0.123 A 
ATOM     24  C   UNL     1       3.462  -1.398  23.361  0.00  0.00    +0.057 A 
ATOM     26  C   UNL     1       4.732  -1.018  23.835  0.00  0.00    +0.061 A 
ATOM     29  C   UNL     1       3.888   2.047  22.422  0.00  0.00    +0.173 C 
ATOM     32  C   UNL     1       5.702  -1.850  24.567  0.00  0.00    +0.067 C 
ENDBRANCH  20  21
BRANCH  16  19
ATOM      3  O   UNL     1       0.760  -1.739  25.364  0.00  0.00    -0.274 OA
ATOM     10  N   UNL     1      -1.325  -1.012  24.627  0.00  0.00    -0.303 N 
ATOM     19  C   UNL     1       0.039  -0.895  24.840  0.00  0.00    +0.234 C 
ATOM     34  H   UNL     1      -1.832  -0.225  24.231  0.00  0.00    +0.149 HD
BRANCH  10  22
ATOM     22  C   UNL     1      -2.087  -2.179  25.006  0.00  0.00    +0.156 C 
ATOM     25  C   UNL     1      -2.041  -3.241  23.919  0.00  0.00    +0.038 C 
BRANCH  22  28
ATOM      7  O   UNL     1      -3.881  -1.210  26.327  0.00  0.00    -0.274 OA
ATOM     13  N   UNL     1      -4.361  -1.967  24.212  0.00  0.00    -0.328 N 
ATOM     28  C   UNL     1      -3.518  -1.743  25.281  0.00  0.00    +0.231 C 
ATOM     35  H   UNL     1      -4.043  -2.388  23.345  0.00  0.00    +0.145 HD
ATOM     36  H   UNL     1      -5.341  -1.710  24.259  0.00  0.00    +0.145 HD
ENDBRANCH  22  28
ENDBRANCH  10  22
ENDBRANCH  16  19
BRANCH  14   9
ATOM      9  N   UNL     1      -2.167   3.066  24.617  0.00  0.00    -0.186 NA
ATOM     33  H   UNL     1      -1.943   3.365  25.575  0.00  0.00    +0.148 HD
BRANCH   9   1
ATOM      1  S   UNL     1      -3.619   3.595  23.916  0.00  0.00    +0.065 S 
ATOM      5  O   UNL     1      -3.672   3.165  22.531  0.00  0.00    -0.153 OA
ATOM      6  O   UNL     1      -3.821   4.991  24.254  0.00  0.00    -0.153 OA
BRANCH   1  23
ATOM      2  S   UNL     1      -5.464   3.468  26.190  0.00  0.00    -0.077 S 
ATOM     23  C   UNL     1      -4.820   2.666  24.821  0.00  0.00    +0.142 A 
ATOM     27  C   UNL     1      -5.359   1.409  24.656  0.00  0.00    +0.036 A 
ATOM     30  C   UNL     1      -6.315   1.101  25.667  0.00  0.00    +0.010 A 
ATOM     31  C   UNL     1      -6.469   2.133  26.566  0.00  0.00    +0.047 A 
ENDBRANCH   1  23
ENDBRANCH   9   1
ENDBRANCH  14   9
TORSDOF 7
ENDMDL
MODEL 4
REMARK VINA RESULT:       5.4      1.580      2.079
REMARK  Name = 26763474
REMARK  10 active torsions:
REMARK  status: ('A' for Active; 'I' for Inactive)
REMARK    1  A    between atoms: S_1  and  N_9
REMARK    2  A    between atoms: S_1  and  C_23
REMARK    3  A    between atoms: N_9  and  C_14
REMARK    4  A    between atoms: N_10  and  C_22
REMARK    5  A    between atoms: N_11  and  C_29
REMARK    6  A    between atoms: C_16  and  C_19
REMARK    7  A    between atoms: C_20  and  C_21
REMARK    8  A    between atoms: C_22  and  C_25
REMARK    9  A    between atoms: C_22  and  C_28
REMARK   10  A    between atoms: C_26  and  C_32
REMARK                            x       y       z     vdW  Elec       q    Type
REMARK                         _______ _______ _______ _____ _____    ______ ____
ROOT
ATOM      4  O   UNL     1      -2.670   3.588  27.533  0.00  0.00    -0.268 OA
ATOM      8  N   UNL     1      -2.280   2.376  25.564  0.00  0.00    -0.285 N 
ATOM     14  C   UNL     1      -0.394   1.053  23.785  0.00  0.00    +0.080 C 
ATOM     15  C   UNL     1      -1.634   1.752  23.226  0.00  0.00    +0.052 C 
ATOM     16  C   UNL     1      -2.757   1.895  24.256  0.00  0.00    +0.164 C 
ATOM     17  C   UNL     1       0.060   1.718  25.082  0.00  0.00    +0.039 C 
ATOM     18  C   UNL     1      -1.073   1.738  26.101  0.00  0.00    +0.110 C 
ATOM     20  C   UNL     1      -2.978   3.275  26.384  0.00  0.00    +0.265 C 
ENDROOT
BRANCH  20  21
ATOM     11  N   UNL     1      -5.442   3.396  25.886  0.00  0.00    -0.262 N 
ATOM     12  N   UNL     1      -6.372   4.182  25.319  0.00  0.00    -0.176 NA
ATOM     21  C   UNL     1      -4.181   3.916  25.842  0.00  0.00    +0.123 A 
ATOM     24  C   UNL     1      -4.296   5.125  25.202  0.00  0.00    +0.057 A 
ATOM     26  C   UNL     1      -5.667   5.237  24.903  0.00  0.00    +0.061 A 
ATOM     29  C   UNL     1      -5.840   2.133  26.464  0.00  0.00    +0.173 C 
ATOM     32  C   UNL     1      -6.346   6.346  24.213  0.00  0.00    +0.067 C 
ENDBRANCH  20  21
BRANCH  16  19
ATOM      3  O   UNL     1      -4.509   0.305  23.918  0.00  0.00    -0.274 OA
ATOM     10  N   UNL     1      -2.825  -0.182  25.450  0.00  0.00    -0.303 N 
ATOM     19  C   UNL     1      -3.468   0.596  24.501  0.00  0.00    +0.234 C 
ATOM     34  H   UNL     1      -1.937   0.135  25.830  0.00  0.00    +0.149 HD
BRANCH  10  22
ATOM     22  C   UNL     1      -3.318  -1.470  25.883  0.00  0.00    +0.156 C 
ATOM     25  C   UNL     1      -2.747  -1.847  27.240  0.00  0.00    +0.038 C 
BRANCH  22  28
ATOM      7  O   UNL     1      -3.741  -3.291  24.332  0.00  0.00    -0.274 OA
ATOM     13  N   UNL     1      -1.617  -2.425  24.455  0.00  0.00    -0.328 N 
ATOM     28  C   UNL     1      -2.942  -2.500  24.829  0.00  0.00    +0.231 C 
ATOM     35  H   UNL     1      -0.973  -1.752  24.858  0.00  0.00    +0.145 HD
ATOM     36  H   UNL     1      -1.238  -3.048  23.750  0.00  0.00    +0.145 HD
ENDBRANCH  22  28
ENDBRANCH  10  22
ENDBRANCH  16  19
BRANCH  14   9
ATOM      9  N   UNL     1       0.703   1.124  22.789  0.00  0.00    -0.186 NA
ATOM     33  H   UNL     1       0.662   1.915  22.134  0.00  0.00    +0.148 HD
BRANCH   9   1
ATOM      1  S   UNL     1       1.499  -0.295  22.307  0.00  0.00    +0.065 S 
ATOM      5  O   UNL     1       1.533  -0.362  20.858  0.00  0.00    -0.153 OA
ATOM      6  O   UNL     1       0.979  -1.409  23.076  0.00  0.00    -0.153 OA
BRANCH   1  23
ATOM      2  S   UNL     1       3.869  -1.319  23.695  0.00  0.00    -0.077 S 
ATOM     23  C   UNL     1       3.147  -0.000  22.876  0.00  0.00    +0.142 A 
ATOM     27  C   UNL     1       3.990   1.086  22.800  0.00  0.00    +0.036 A 
ATOM     30  C   UNL     1       5.247   0.832  23.422  0.00  0.00    +0.010 A 
ATOM     31  C   UNL     1       5.316  -0.439  23.950  0.00  0.00    +0.047 A 
ENDBRANCH   1  23
ENDBRANCH   9   1
ENDBRANCH  14   9
TORSDOF 7
ENDMDL
MODEL 5
REMARK VINA RESULT:       6.5      1.593      2.383
REMARK  Name = 26763474
REMARK  10 active torsions:
REMARK  status: ('A' for Active; 'I' for Inactive)
REMARK    1  A    between atoms: S_1  and  N_9
REMARK    2  A    between atoms: S_1  and  C_23
REMARK    3  A    between atoms: N_9  and  C_14
REMARK    4  A    between atoms: N_10  and  C_22
REMARK    5  A    between atoms: N_11  and  C_29
REMARK    6  A    between atoms: C_16  and  C_19
REMARK    7  A    between atoms: C_20  and  C_21
REMARK    8  A    between atoms: C_22  and  C_25
REMARK    9  A    between atoms: C_22  and  C_28
REMARK   10  A    between atoms: C_26  and  C_32
REMARK                            x       y       z     vdW  Elec       q    Type
REMARK                         _______ _______ _______ _____ _____    ______ ____
ROOT
ATOM      4  O   UNL     1      -1.426   3.231  26.881  0.00  0.00    -0.268 OA
ATOM      8  N   UNL     1      -1.304   1.794  25.033  0.00  0.00    -0.285 N 
ATOM     14  C   UNL     1       0.171  -0.222  23.537  0.00  0.00    +0.080 C 
ATOM     15  C   UNL     1      -0.713   0.795  22.813  0.00  0.00    +0.052 C 
ATOM     16  C   UNL     1      -1.804   1.386  23.709  0.00  0.00    +0.164 C 
ATOM     17  C   UNL     1       0.712   0.366  24.838  0.00  0.00    +0.039 C 
ATOM     18  C   UNL     1      -0.429   0.843  25.728  0.00  0.00    +0.110 C 
ATOM     20  C   UNL     1      -1.725   2.939  25.724  0.00  0.00    +0.265 C 
ENDROOT
BRANCH  20  21
ATOM     11  N   UNL     1      -3.959   3.858  25.019  0.00  0.00    -0.262 N 
ATOM     12  N   UNL     1      -4.521   4.845  24.300  0.00  0.00    -0.176 NA
ATOM     21  C   UNL     1      -2.595   3.890  25.024  0.00  0.00    +0.123 A 
ATOM     24  C   UNL     1      -2.242   4.973  24.257  0.00  0.00    +0.057 A 
ATOM     26  C   UNL     1      -3.468   5.523  23.837  0.00  0.00    +0.061 A 
ATOM     29  C   UNL     1      -4.807   2.899  25.688  0.00  0.00    +0.173 C 
ATOM     32  C   UNL     1      -3.675   6.705  22.985  0.00  0.00    +0.067 C 
ENDBRANCH  20  21
BRANCH  16  19
ATOM      3  O   UNL     1      -3.957   0.442  23.278  0.00  0.00    -0.274 OA
ATOM     10  N   UNL     1      -2.658  -0.451  24.990  0.00  0.00    -0.303 N 
ATOM     19  C   UNL     1      -2.927   0.418  23.946  0.00  0.00    +0.234 C 
ATOM     34  H   UNL     1      -1.747  -0.415  25.440  0.00  0.00    +0.149 HD
BRANCH  10  22
ATOM     22  C   UNL     1      -3.586  -1.465  25.435  0.00  0.00    +0.156 C 
ATOM     25  C   UNL     1      -3.271  -1.912  26.853  0.00  0.00    +0.038 C 
BRANCH  22  28
ATOM      7  O   UNL     1      -4.480  -3.076  23.851  0.00  0.00    -0.274 OA
ATOM     13  N   UNL     1      -2.230  -3.122  24.313  0.00  0.00    -0.328 N 
ATOM     28  C   UNL     1      -3.511  -2.634  24.465  0.00  0.00    +0.231 C 
ATOM     35  H   UNL     1      -1.435  -2.734  24.811  0.00  0.00    +0.145 HD
ATOM     36  H   UNL     1      -2.038  -3.895  23.685  0.00  0.00    +0.145 HD
ENDBRANCH  22  28
ENDBRANCH  10  22
ENDBRANCH  16  19
BRANCH  14   9
ATOM      9  N   UNL     1       1.306  -0.601  22.662  0.00  0.00    -0.186 NA
ATOM     33  H   UNL     1       1.484  -1.609  22.571  0.00  0.00    +0.148 HD
BRANCH   9   1
ATOM      1  S   UNL     1       2.596   0.479  22.437  0.00  0.00    +0.065 S 
ATOM      5  O   UNL     1       2.329   1.709  23.158  0.00  0.00    -0.153 OA
ATOM      6  O   UNL     1       2.932   0.519  21.026  0.00  0.00    -0.153 OA
BRANCH   1  23
ATOM      2  S   UNL     1       5.303   0.607  23.554  0.00  0.00    -0.077 S 
ATOM     23  C   UNL     1       3.920  -0.358  23.258  0.00  0.00    +0.142 A 
ATOM     27  C   UNL     1       4.078  -1.646  23.720  0.00  0.00    +0.036 A 
ATOM     30  C   UNL     1       5.353  -1.843  24.326  0.00  0.00    +0.010 A 
ATOM     31  C   UNL     1       6.120  -0.699  24.303  0.00  0.00    +0.047 A 
ENDBRANCH   1  23
ENDBRANCH   9   1
ENDBRANCH  14   9
TORSDOF 7
ENDMDL
MODEL 6
REMARK VINA RESULT:       6.7      3.348      5.879
REMARK  Name = 26763474
REMARK  10 active torsions:
REMARK  status: ('A' for Active; 'I' for Inactive)
REMARK    1  A    between atoms: S_1  and  N_9
REMARK    2  A    between atoms: S_1  and  C_23
REMARK    3  A    between atoms: N_9  and  C_14
REMARK    4  A    between atoms: N_10  and  C_22
REMARK    5  A    between atoms: N_11  and  C_29
REMARK    6  A    between atoms: C_16  and  C_19
REMARK    7  A    between atoms: C_20  and  C_21
REMARK    8  A    between atoms: C_22  and  C_25
REMARK    9  A    between atoms: C_22  and  C_28
REMARK   10  A    between atoms: C_26  and  C_32
REMARK                            x       y       z     vdW  Elec       q    Type
REMARK                         _______ _______ _______ _____ _____    ______ ____
ROOT
ATOM      4  O   UNL     1      -1.977   3.109  22.333  0.00  0.00    -0.268 OA
ATOM      8  N   UNL     1      -1.199   1.854  24.155  0.00  0.00    -0.285 N 
ATOM     14  C   UNL     1       0.057  -0.576  25.153  0.00  0.00    +0.080 C 
ATOM     15  C   UNL     1      -1.009   0.147  25.978  0.00  0.00    +0.052 C 
ATOM     16  C   UNL     1      -1.153   1.626  25.610  0.00  0.00    +0.164 C 
ATOM     17  C   UNL     1      -0.172  -0.346  23.661  0.00  0.00    +0.039 C 
ATOM     18  C   UNL     1      -0.204   1.144  23.344  0.00  0.00    +0.110 C 
ATOM     20  C   UNL     1      -2.014   2.805  23.525  0.00  0.00    +0.265 C 
ENDROOT
BRANCH  20  21
ATOM     11  N   UNL     1      -2.786   4.644  25.061  0.00  0.00    -0.262 N 
ATOM     12  N   UNL     1      -3.868   5.091  25.720  0.00  0.00    -0.176 NA
ATOM     21  C   UNL     1      -3.012   3.509  24.338  0.00  0.00    +0.123 A 
ATOM     24  C   UNL     1      -4.335   3.195  24.537  0.00  0.00    +0.057 A 
ATOM     26  C   UNL     1      -4.811   4.203  25.396  0.00  0.00    +0.061 A 
ATOM     29  C   UNL     1      -1.540   5.367  25.173  0.00  0.00    +0.173 C 
ATOM     32  C   UNL     1      -6.173   4.352  25.935  0.00  0.00    +0.067 C 
ENDBRANCH  20  21
BRANCH  16  19
ATOM      3  O   UNL     1       0.639   3.195  25.423  0.00  0.00    -0.274 OA
ATOM     10  N   UNL     1       0.177   2.256  27.502  0.00  0.00    -0.303 N 
ATOM     19  C   UNL     1      -0.021   2.454  26.145  0.00  0.00    +0.234 C 
ATOM     34  H   UNL     1      -0.466   1.657  28.013  0.00  0.00    +0.149 HD
BRANCH  10  22
ATOM     22  C   UNL     1       1.218   2.918  28.254  0.00  0.00    +0.156 C 
ATOM     25  C   UNL     1       2.593   2.583  27.699  0.00  0.00    +0.038 C 
BRANCH  22  28
ATOM      7  O   UNL     1       0.244   2.920  30.480  0.00  0.00    -0.274 OA
ATOM     13  N   UNL     1       2.024   1.528  30.061  0.00  0.00    -0.328 N 
ATOM     28  C   UNL     1       1.098   2.489  29.708  0.00  0.00    +0.231 C 
ATOM     35  H   UNL     1       2.710   1.166  29.408  0.00  0.00    +0.145 HD
ATOM     36  H   UNL     1       2.045   1.146  31.001  0.00  0.00    +0.145 HD
ENDBRANCH  22  28
ENDBRANCH  10  22
ENDBRANCH  16  19
BRANCH  14   9
ATOM      9  N   UNL     1       0.001  -2.030  25.438  0.00  0.00    -0.186 NA
ATOM     33  H   UNL     1       0.907  -2.493  25.582  0.00  0.00    +0.148 HD
BRANCH   9   1
ATOM      1  S   UNL     1      -1.306  -2.952  24.872  0.00  0.00    +0.065 S 
ATOM      5  O   UNL     1      -1.540  -4.064  25.774  0.00  0.00    -0.153 OA
ATOM      6  O   UNL     1      -1.131  -3.190  23.452  0.00  0.00    -0.153 OA
BRANCH   1  23
ATOM      2  S   UNL     1      -3.341  -1.295  23.565  0.00  0.00    -0.077 S 
ATOM     23  C   UNL     1      -2.653  -1.820  25.043  0.00  0.00    +0.142 A 
ATOM     27  C   UNL     1      -3.280  -1.259  26.134  0.00  0.00    +0.036 A 
ATOM     30  C   UNL     1      -4.340  -0.386  25.751  0.00  0.00    +0.010 A 
ATOM     31  C   UNL     1      -4.482  -0.314  24.382  0.00  0.00    +0.047 A 
ENDBRANCH   1  23
ENDBRANCH   9   1
ENDBRANCH  14   9
TORSDOF 7
ENDMDL
