MODEL 1
REMARK VINA RESULT:      -5.6      0.000      0.000
REMARK  Name = 75367175
REMARK  4 active torsions:
REMARK  status: ('A' for Active; 'I' for Inactive)
REMARK    1  A    between atoms: N_4  and  C_10
REMARK    2  A    between atoms: C_7  and  C_12
REMARK    3  A    between atoms: C_10  and  C_13
REMARK    4  A    between atoms: C_14  and  C_18
REMARK                            x       y       z     vdW  Elec       q    Type
REMARK                         _______ _______ _______ _____ _____    ______ ____
ROOT
ATOM      3  O   UNL     1      -1.444   4.871  25.370  0.00  0.00    -0.377 OA
ATOM      4  N   UNL     1      -2.683   2.366  24.748  0.00  0.00    -0.285 NA
ATOM      7  C   UNL     1      -1.440   2.803  24.064  0.00  0.00    +0.149 C 
ATOM      8  C   UNL     1      -3.448   3.536  25.215  0.00  0.00    +0.113 C 
ATOM      9  C   UNL     1      -0.643   3.757  24.974  0.00  0.00    +0.186 C 
ATOM     11  C   UNL     1      -2.587   4.428  26.098  0.00  0.00    +0.175 C 
ENDROOT
BRANCH   7  12
ATOM      5  N   UNL     1       0.820   1.721  23.792  0.00  0.00    -0.341 N 
ATOM      6  N   UNL     1      -0.914   0.511  23.113  0.00  0.00    -0.238 NA
ATOM     12  C   UNL     1      -0.537   1.653  23.643  0.00  0.00    +0.127 A 
ATOM     14  C   UNL     1       1.342   0.548  23.327  0.00  0.00    +0.066 A 
ATOM     15  C   UNL     1       0.254  -0.183  22.913  0.00  0.00    +0.139 A 
ATOM     27  H   UNL     1       1.333   2.499  24.185  0.00  0.00    +0.167 HD
BRANCH  14  18
ATOM      2  F   UNL     1       5.006  -2.506  24.047  0.00  0.00    -0.205 F 
ATOM     18  C   UNL     1       2.752   0.256  23.321  0.00  0.00    +0.003 A 
ATOM     21  C   UNL     1       3.205  -1.009  23.694  0.00  0.00    +0.048 A 
ATOM     22  C   UNL     1       3.665   1.240  22.939  0.00  0.00    +0.010 A 
ATOM     24  C   UNL     1       4.572  -1.291  23.687  0.00  0.00    +0.124 A 
ATOM     25  C   UNL     1       5.031   0.959  22.933  0.00  0.00    +0.003 A 
ATOM     26  C   UNL     1       5.484  -0.306  23.306  0.00  0.00    +0.038 A 
ENDBRANCH  14  18
ENDBRANCH   7  12
BRANCH   4  10
ATOM     10  C   UNL     1      -3.536   1.549  23.877  0.00  0.00    +0.120 C 
BRANCH  10  13
ATOM      1  F   UNL     1      -3.615  -3.852  25.478  0.00  0.00    -0.205 F 
ATOM     13  C   UNL     1      -3.558   0.106  24.305  0.00  0.00    -0.033 A 
ATOM     16  C   UNL     1      -3.130  -0.249  25.584  0.00  0.00    +0.008 A 
ATOM     17  C   UNL     1      -4.004  -0.877  23.421  0.00  0.00    +0.008 A 
ATOM     19  C   UNL     1      -3.151  -1.585  25.982  0.00  0.00    +0.038 A 
ATOM     20  C   UNL     1      -4.024  -2.214  23.817  0.00  0.00    +0.038 A 
ATOM     23  C   UNL     1      -3.597  -2.569  25.098  0.00  0.00    +0.123 A 
ENDBRANCH  10  13
ENDBRANCH   4  10
TORSDOF 4
ENDMDL
MODEL 2
REMARK VINA RESULT:      -5.4      1.589      2.598
REMARK  Name = 75367175
REMARK  4 active torsions:
REMARK  status: ('A' for Active; 'I' for Inactive)
REMARK    1  A    between atoms: N_4  and  C_10
REMARK    2  A    between atoms: C_7  and  C_12
REMARK    3  A    between atoms: C_10  and  C_13
REMARK    4  A    between atoms: C_14  and  C_18
REMARK                            x       y       z     vdW  Elec       q    Type
REMARK                         _______ _______ _______ _____ _____    ______ ____
ROOT
ATOM      3  O   UNL     1      -4.919   4.708  25.698  0.00  0.00    -0.377 OA
ATOM      4  N   UNL     1      -4.243   2.062  24.836  0.00  0.00    -0.285 NA
ATOM      7  C   UNL     1      -3.264   3.176  24.752  0.00  0.00    +0.149 C 
ATOM      8  C   UNL     1      -5.619   2.587  24.785  0.00  0.00    +0.113 C 
ATOM      9  C   UNL     1      -3.577   4.238  25.824  0.00  0.00    +0.186 C 
ATOM     11  C   UNL     1      -5.841   3.634  25.867  0.00  0.00    +0.175 C 
ENDROOT
BRANCH   7  12
ATOM      5  N   UNL     1      -1.161   2.083  23.895  0.00  0.00    -0.341 N 
ATOM      6  N   UNL     1      -1.051   2.894  25.960  0.00  0.00    -0.238 NA
ATOM     12  C   UNL     1      -1.817   2.730  24.905  0.00  0.00    +0.127 A 
ATOM     14  C   UNL     1       0.105   1.818  24.335  0.00  0.00    +0.066 A 
ATOM     15  C   UNL     1       0.150   2.327  25.610  0.00  0.00    +0.139 A 
ATOM     27  H   UNL     1      -1.547   1.856  22.988  0.00  0.00    +0.167 HD
BRANCH  14  18
ATOM      2  F   UNL     1       4.680   1.216  22.927  0.00  0.00    -0.205 F 
ATOM     18  C   UNL     1       1.094   1.140  23.538  0.00  0.00    +0.003 A 
ATOM     21  C   UNL     1       2.435   1.514  23.620  0.00  0.00    +0.048 A 
ATOM     22  C   UNL     1       0.709   0.105  22.684  0.00  0.00    +0.010 A 
ATOM     24  C   UNL     1       3.392   0.855  22.848  0.00  0.00    +0.124 A 
ATOM     25  C   UNL     1       1.667  -0.554  21.912  0.00  0.00    +0.003 A 
ATOM     26  C   UNL     1       3.007  -0.179  21.995  0.00  0.00    +0.038 A 
ENDBRANCH  14  18
ENDBRANCH   7  12
BRANCH   4  10
ATOM     10  C   UNL     1      -4.060   1.082  23.760  0.00  0.00    +0.120 C 
BRANCH  10  13
ATOM      1  F   UNL     1      -3.227  -4.114  25.773  0.00  0.00    -0.205 F 
ATOM     13  C   UNL     1      -3.837  -0.306  24.297  0.00  0.00    -0.033 A 
ATOM     16  C   UNL     1      -4.182  -1.416  23.527  0.00  0.00    +0.008 A 
ATOM     17  C   UNL     1      -3.286  -0.482  25.567  0.00  0.00    +0.008 A 
ATOM     19  C   UNL     1      -3.975  -2.703  24.024  0.00  0.00    +0.038 A 
ATOM     20  C   UNL     1      -3.080  -1.768  26.066  0.00  0.00    +0.038 A 
ATOM     23  C   UNL     1      -3.424  -2.879  25.295  0.00  0.00    +0.123 A 
ENDBRANCH  10  13
ENDBRANCH   4  10
TORSDOF 4
ENDMDL
MODEL 3
REMARK VINA RESULT:      -4.5      2.949      6.630
REMARK  Name = 75367175
REMARK  4 active torsions:
REMARK  status: ('A' for Active; 'I' for Inactive)
REMARK    1  A    between atoms: N_4  and  C_10
REMARK    2  A    between atoms: C_7  and  C_12
REMARK    3  A    between atoms: C_10  and  C_13
REMARK    4  A    between atoms: C_14  and  C_18
REMARK                            x       y       z     vdW  Elec       q    Type
REMARK                         _______ _______ _______ _____ _____    ______ ____
ROOT
ATOM      3  O   UNL     1       2.643   0.987  22.836  0.00  0.00    -0.377 OA
ATOM      4  N   UNL     1       0.243  -0.068  23.988  0.00  0.00    -0.285 NA
ATOM      7  C   UNL     1       0.771   1.261  24.386  0.00  0.00    +0.149 C 
ATOM      8  C   UNL     1       1.338  -0.929  23.506  0.00  0.00    +0.113 C 
ATOM      9  C   UNL     1       1.594   1.871  23.235  0.00  0.00    +0.186 C 
ATOM     11  C   UNL     1       2.104  -0.251  22.379  0.00  0.00    +0.175 C 
ENDROOT
BRANCH   7  12
ATOM      5  N   UNL     1      -1.633   1.902  24.792  0.00  0.00    -0.341 N 
ATOM      6  N   UNL     1      -0.134   3.492  25.188  0.00  0.00    -0.238 NA
ATOM     12  C   UNL     1      -0.311   2.250  24.797  0.00  0.00    +0.127 A 
ATOM     14  C   UNL     1      -2.344   2.992  25.205  0.00  0.00    +0.066 A 
ATOM     15  C   UNL     1      -1.399   3.960  25.443  0.00  0.00    +0.139 A 
ATOM     27  H   UNL     1      -2.005   0.996  24.536  0.00  0.00    +0.167 HD
BRANCH  14  18
ATOM      2  F   UNL     1      -6.509   5.386  25.644  0.00  0.00    -0.205 F 
ATOM     18  C   UNL     1      -3.779   3.002  25.323  0.00  0.00    +0.003 A 
ATOM     21  C   UNL     1      -4.463   4.213  25.428  0.00  0.00    +0.048 A 
ATOM     22  C   UNL     1      -4.486   1.799  25.330  0.00  0.00    +0.010 A 
ATOM     24  C   UNL     1      -5.854   4.222  25.542  0.00  0.00    +0.124 A 
ATOM     25  C   UNL     1      -5.876   1.808  25.444  0.00  0.00    +0.003 A 
ATOM     26  C   UNL     1      -6.560   3.019  25.549  0.00  0.00    +0.038 A 
ENDBRANCH  14  18
ENDBRANCH   7  12
BRANCH   4  10
ATOM     10  C   UNL     1      -0.449  -0.742  25.093  0.00  0.00    +0.120 C 
BRANCH  10  13
ATOM      1  F   UNL     1      -5.384  -2.921  23.464  0.00  0.00    -0.205 F 
ATOM     13  C   UNL     1      -1.767  -1.324  24.657  0.00  0.00    -0.033 A 
ATOM     16  C   UNL     1      -2.690  -0.530  23.977  0.00  0.00    +0.008 A 
ATOM     17  C   UNL     1      -2.066  -2.659  24.934  0.00  0.00    +0.008 A 
ATOM     19  C   UNL     1      -3.912  -1.069  23.573  0.00  0.00    +0.038 A 
ATOM     20  C   UNL     1      -3.287  -3.198  24.531  0.00  0.00    +0.038 A 
ATOM     23  C   UNL     1      -4.210  -2.404  23.851  0.00  0.00    +0.123 A 
ENDBRANCH  10  13
ENDBRANCH   4  10
TORSDOF 4
ENDMDL
MODEL 4
REMARK VINA RESULT:      -2.9      2.540      3.934
REMARK  Name = 75367175
REMARK  4 active torsions:
REMARK  status: ('A' for Active; 'I' for Inactive)
REMARK    1  A    between atoms: N_4  and  C_10
REMARK    2  A    between atoms: C_7  and  C_12
REMARK    3  A    between atoms: C_10  and  C_13
REMARK    4  A    between atoms: C_14  and  C_18
REMARK                            x       y       z     vdW  Elec       q    Type
REMARK                         _______ _______ _______ _____ _____    ______ ____
ROOT
ATOM      3  O   UNL     1      -3.053  -1.853  25.560  0.00  0.00    -0.377 OA
ATOM      4  N   UNL     1      -2.923   0.036  23.412  0.00  0.00    -0.285 NA
ATOM      7  C   UNL     1      -1.708  -0.355  24.172  0.00  0.00    +0.149 C 
ATOM      8  C   UNL     1      -4.124  -0.135  24.248  0.00  0.00    +0.113 C 
ATOM      9  C   UNL     1      -1.879  -1.773  24.751  0.00  0.00    +0.186 C 
ATOM     11  C   UNL     1      -4.212  -1.556  24.787  0.00  0.00    +0.175 C 
ENDROOT
BRANCH   7  12
ATOM      5  N   UNL     1       0.800  -0.263  23.940  0.00  0.00    -0.341 N 
ATOM      6  N   UNL     1      -0.341  -0.309  22.035  0.00  0.00    -0.238 NA
ATOM     12  C   UNL     1      -0.431  -0.310  23.346  0.00  0.00    +0.127 A 
ATOM     14  C   UNL     1       1.734  -0.230  22.943  0.00  0.00    +0.066 A 
ATOM     15  C   UNL     1       1.006  -0.259  21.777  0.00  0.00    +0.139 A 
ATOM     27  H   UNL     1       0.977  -0.263  24.936  0.00  0.00    +0.167 HD
BRANCH  14  18
ATOM      2  F   UNL     1       5.841  -2.328  24.356  0.00  0.00    -0.205 F 
ATOM     18  C   UNL     1       3.151  -0.174  23.188  0.00  0.00    +0.003 A 
ATOM     21  C   UNL     1       3.823  -1.300  23.663  0.00  0.00    +0.048 A 
ATOM     22  C   UNL     1       3.853   1.008  22.949  0.00  0.00    +0.010 A 
ATOM     24  C   UNL     1       5.197  -1.246  23.899  0.00  0.00    +0.124 A 
ATOM     25  C   UNL     1       5.227   1.063  23.185  0.00  0.00    +0.003 A 
ATOM     26  C   UNL     1       5.898  -0.064  23.660  0.00  0.00    +0.038 A 
ENDBRANCH  14  18
ENDBRANCH   7  12
BRANCH   4  10
ATOM     10  C   UNL     1      -2.857   1.424  22.940  0.00  0.00    +0.120 C 
BRANCH  10  13
ATOM      1  F   UNL     1      -3.296   5.105  27.184  0.00  0.00    -0.205 F 
ATOM     13  C   UNL     1      -2.974   2.408  24.074  0.00  0.00    -0.033 A 
ATOM     16  C   UNL     1      -1.825   2.920  24.675  0.00  0.00    +0.008 A 
ATOM     17  C   UNL     1      -4.234   2.807  24.524  0.00  0.00    +0.008 A 
ATOM     19  C   UNL     1      -1.933   3.832  25.724  0.00  0.00    +0.038 A 
ATOM     20  C   UNL     1      -4.343   3.718  25.574  0.00  0.00    +0.038 A 
ATOM     23  C   UNL     1      -3.192   4.231  26.174  0.00  0.00    +0.123 A 
ENDBRANCH  10  13
ENDBRANCH   4  10
TORSDOF 4
ENDMDL
MODEL 5
REMARK VINA RESULT:      -2.6      3.341      4.419
REMARK  Name = 75367175
REMARK  4 active torsions:
REMARK  status: ('A' for Active; 'I' for Inactive)
REMARK    1  A    between atoms: N_4  and  C_10
REMARK    2  A    between atoms: C_7  and  C_12
REMARK    3  A    between atoms: C_10  and  C_13
REMARK    4  A    between atoms: C_14  and  C_18
REMARK                            x       y       z     vdW  Elec       q    Type
REMARK                         _______ _______ _______ _____ _____    ______ ____
ROOT
ATOM      3  O   UNL     1      -5.509   4.096  25.796  0.00  0.00    -0.377 OA
ATOM      4  N   UNL     1      -4.089   1.817  24.803  0.00  0.00    -0.285 NA
ATOM      7  C   UNL     1      -3.432   3.143  24.926  0.00  0.00    +0.149 C 
ATOM      8  C   UNL     1      -5.543   1.981  24.634  0.00  0.00    +0.113 C 
ATOM      9  C   UNL     1      -4.108   3.967  26.039  0.00  0.00    +0.186 C 
ATOM     11  C   UNL     1      -6.129   2.812  25.767  0.00  0.00    +0.175 C 
ENDROOT
BRANCH   7  12
ATOM      5  N   UNL     1      -1.462   2.960  26.487  0.00  0.00    -0.341 N 
ATOM      6  N   UNL     1      -0.968   3.076  24.326  0.00  0.00    -0.238 NA
ATOM     12  C   UNL     1      -1.939   3.061  25.210  0.00  0.00    +0.127 A 
ATOM     14  C   UNL     1      -0.099   2.907  26.412  0.00  0.00    +0.066 A 
ATOM     15  C   UNL     1       0.183   2.980  25.069  0.00  0.00    +0.139 A 
ATOM     27  H   UNL     1      -2.024   2.922  27.328  0.00  0.00    +0.167 HD
BRANCH  14  18
ATOM      2  F   UNL     1       0.498   2.233  31.151  0.00  0.00    -0.205 F 
ATOM     18  C   UNL     1       0.754   2.800  27.566  0.00  0.00    +0.003 A 
ATOM     21  C   UNL     1       0.202   2.563  28.825  0.00  0.00    +0.048 A 
ATOM     22  C   UNL     1       2.137   2.932  27.425  0.00  0.00    +0.010 A 
ATOM     24  C   UNL     1       1.030   2.459  29.942  0.00  0.00    +0.124 A 
ATOM     25  C   UNL     1       2.965   2.828  28.542  0.00  0.00    +0.003 A 
ATOM     26  C   UNL     1       2.412   2.591  29.800  0.00  0.00    +0.038 A 
ENDBRANCH  14  18
ENDBRANCH   7  12
BRANCH   4  10
ATOM     10  C   UNL     1      -3.558   1.039  23.678  0.00  0.00    +0.120 C 
BRANCH  10  13
ATOM      1  F   UNL     1      -0.873  -3.602  25.411  0.00  0.00    -0.205 F 
ATOM     13  C   UNL     1      -2.840  -0.201  24.141  0.00  0.00    -0.033 A 
ATOM     16  C   UNL     1      -1.474  -0.155  24.415  0.00  0.00    +0.008 A 
ATOM     17  C   UNL     1      -3.543  -1.396  24.296  0.00  0.00    +0.008 A 
ATOM     19  C   UNL     1      -0.809  -1.303  24.845  0.00  0.00    +0.038 A 
ATOM     20  C   UNL     1      -2.879  -2.545  24.725  0.00  0.00    +0.038 A 
ATOM     23  C   UNL     1      -1.511  -2.499  25.000  0.00  0.00    +0.123 A 
ENDBRANCH  10  13
ENDBRANCH   4  10
TORSDOF 4
ENDMDL
