MODEL 1
REMARK VINA RESULT:       1.7      0.000      0.000
REMARK  Name = 40587795
REMARK  3 active torsions:
REMARK  status: ('A' for Active; 'I' for Inactive)
REMARK    1  A    between atoms: N_6  and  C_18
REMARK    2  A    between atoms: N_7  and  C_22
REMARK    3  A    between atoms: C_17  and  C_20
REMARK                            x       y       z     vdW  Elec       q    Type
REMARK                         _______ _______ _______ _____ _____    ______ ____
ROOT
ATOM      1  O   UNL     1      -1.863   1.440  22.492  0.00  0.00    -0.266 OA
ATOM      2  O   UNL     1      -2.871   5.240  26.126  0.00  0.00    -0.276 OA
ATOM      4  N   UNL     1      -4.558   3.642  26.114  0.00  0.00    -0.301 N 
ATOM      5  N   UNL     1      -3.651   1.426  23.997  0.00  0.00    -0.310 N 
ATOM      8  C   UNL     1      -5.565   3.122  23.887  0.00  0.00    +0.027 C 
ATOM      9  C   UNL     1      -5.551   1.409  25.651  0.00  0.00    +0.054 C 
ATOM     10  C   UNL     1      -6.394   2.019  24.533  0.00  0.00    +0.018 C 
ATOM     11  C   UNL     1      -5.203   4.201  24.923  0.00  0.00    +0.113 C 
ATOM     12  C   UNL     1      -4.320   2.497  23.247  0.00  0.00    +0.130 C 
ATOM     13  C   UNL     1      -5.241   2.485  26.709  0.00  0.00    +0.117 C 
ATOM     14  C   UNL     1      -4.258   0.832  25.107  0.00  0.00    +0.027 A 
ATOM     15  C   UNL     1      -3.682  -0.224  25.708  0.00  0.00    +0.024 A 
ATOM     16  C   UNL     1      -2.426   0.961  23.478  0.00  0.00    +0.273 A 
ATOM     17  C   UNL     1      -3.429   4.268  26.642  0.00  0.00    +0.212 C 
ATOM     18  C   UNL     1      -1.806  -0.201  24.189  0.00  0.00    +0.100 A 
ATOM     19  C   UNL     1      -2.431  -0.749  25.237  0.00  0.00    +0.030 A 
ATOM     20  C   UNL     1      -2.874   3.694  27.921  0.00  0.00    +0.109 C 
ENDROOT
BRANCH  18   6
ATOM      3  O   UNL     1       0.736   1.024  24.552  0.00  0.00    -0.252 OA
ATOM      6  N   UNL     1      -0.612  -0.673  23.726  0.00  0.00    -0.265 N 
ATOM      7  N   UNL     1       1.647  -0.764  23.336  0.00  0.00    -0.269 N 
ATOM     21  C   UNL     1       0.617  -0.030  23.932  0.00  0.00    +0.308 C 
ATOM     28  H   UNL     1      -0.648  -1.383  22.999  0.00  0.00    +0.157 HD
ATOM     29  H   UNL     1       1.380  -1.622  22.860  0.00  0.00    +0.156 HD
BRANCH   7  22
ATOM     22  C   UNL     1       3.029  -0.461  23.313  0.00  0.00    +0.035 A 
ATOM     23  C   UNL     1       3.950  -1.360  23.851  0.00  0.00    +0.023 A 
ATOM     24  C   UNL     1       3.471   0.739  22.754  0.00  0.00    +0.023 A 
ATOM     25  C   UNL     1       5.312  -1.061  23.828  0.00  0.00    +0.002 A 
ATOM     26  C   UNL     1       4.833   1.038  22.732  0.00  0.00    +0.002 A 
ATOM     27  C   UNL     1       5.753   0.138  23.269  0.00  0.00    +0.000 A 
ENDBRANCH   7  22
ENDBRANCH  18   6
TORSDOF 2
ENDMDL
MODEL 2
REMARK VINA RESULT:       2.5      1.902      3.187
REMARK  Name = 40587795
REMARK  3 active torsions:
REMARK  status: ('A' for Active; 'I' for Inactive)
REMARK    1  A    between atoms: N_6  and  C_18
REMARK    2  A    between atoms: N_7  and  C_22
REMARK    3  A    between atoms: C_17  and  C_20
REMARK                            x       y       z     vdW  Elec       q    Type
REMARK                         _______ _______ _______ _____ _____    ______ ____
ROOT
ATOM      1  O   UNL     1      -0.417   2.815  25.835  0.00  0.00    -0.266 OA
ATOM      2  O   UNL     1      -4.176  -0.929  26.551  0.00  0.00    -0.276 OA
ATOM      4  N   UNL     1      -5.006   0.843  25.299  0.00  0.00    -0.301 N 
ATOM      5  N   UNL     1      -2.550   2.847  24.881  0.00  0.00    -0.310 N 
ATOM      8  C   UNL     1      -4.683   3.123  26.269  0.00  0.00    +0.027 C 
ATOM      9  C   UNL     1      -4.841   2.845  23.832  0.00  0.00    +0.054 C 
ATOM     10  C   UNL     1      -5.264   3.733  25.000  0.00  0.00    +0.018 C 
ATOM     11  C   UNL     1      -5.216   1.693  26.474  0.00  0.00    +0.113 C 
ATOM     12  C   UNL     1      -3.153   3.160  26.183  0.00  0.00    +0.130 C 
ATOM     13  C   UNL     1      -5.425   1.432  24.019  0.00  0.00    +0.117 C 
ATOM     14  C   UNL     1      -3.329   2.769  23.723  0.00  0.00    +0.027 A 
ATOM     15  C   UNL     1      -2.745   2.596  22.525  0.00  0.00    +0.024 A 
ATOM     16  C   UNL     1      -1.146   2.735  24.845  0.00  0.00    +0.273 A 
ATOM     17  C   UNL     1      -4.522  -0.455  25.467  0.00  0.00    +0.212 C 
ATOM     18  C   UNL     1      -0.535   2.520  23.495  0.00  0.00    +0.100 A 
ATOM     19  C   UNL     1      -1.319   2.470  22.413  0.00  0.00    +0.030 A 
ATOM     20  C   UNL     1      -4.420  -1.303  24.225  0.00  0.00    +0.109 C 
ENDROOT
BRANCH  18   6
ATOM      3  O   UNL     1       0.938   0.097  23.729  0.00  0.00    -0.252 OA
ATOM      6  N   UNL     1       0.821   2.393  23.419  0.00  0.00    -0.265 N 
ATOM      7  N   UNL     1       2.879   1.378  23.416  0.00  0.00    -0.269 N 
ATOM     21  C   UNL     1       1.502   1.173  23.541  0.00  0.00    +0.308 C 
ATOM     28  H   UNL     1       1.370   3.242  23.523  0.00  0.00    +0.157 HD
ATOM     29  H   UNL     1       3.186   2.335  23.259  0.00  0.00    +0.156 HD
BRANCH   7  22
ATOM     22  C   UNL     1       3.911   0.412  23.479  0.00  0.00    +0.035 A 
ATOM     23  C   UNL     1       3.595  -0.938  23.631  0.00  0.00    +0.023 A 
ATOM     24  C   UNL     1       5.245   0.810  23.391  0.00  0.00    +0.023 A 
ATOM     25  C   UNL     1       4.612  -1.890  23.693  0.00  0.00    +0.002 A 
ATOM     26  C   UNL     1       6.262  -0.142  23.454  0.00  0.00    +0.002 A 
ATOM     27  C   UNL     1       5.946  -1.492  23.605  0.00  0.00    +0.000 A 
ENDBRANCH   7  22
ENDBRANCH  18   6
TORSDOF 2
ENDMDL
MODEL 3
REMARK VINA RESULT:       4.3      1.759      2.832
REMARK  Name = 40587795
REMARK  3 active torsions:
REMARK  status: ('A' for Active; 'I' for Inactive)
REMARK    1  A    between atoms: N_6  and  C_18
REMARK    2  A    between atoms: N_7  and  C_22
REMARK    3  A    between atoms: C_17  and  C_20
REMARK                            x       y       z     vdW  Elec       q    Type
REMARK                         _______ _______ _______ _____ _____    ______ ____
ROOT
ATOM      1  O   UNL     1      -0.492   1.579  25.799  0.00  0.00    -0.266 OA
ATOM      2  O   UNL     1      -5.688   0.795  26.824  0.00  0.00    -0.276 OA
ATOM      4  N   UNL     1      -5.395   2.589  25.377  0.00  0.00    -0.301 N 
ATOM      5  N   UNL     1      -2.254   2.748  24.803  0.00  0.00    -0.310 N 
ATOM      8  C   UNL     1      -3.772   4.341  26.111  0.00  0.00    +0.027 C 
ATOM      9  C   UNL     1      -4.167   3.972  23.713  0.00  0.00    +0.054 C 
ATOM     10  C   UNL     1      -3.948   5.049  24.774  0.00  0.00    +0.018 C 
ATOM     11  C   UNL     1      -5.023   3.512  26.452  0.00  0.00    +0.113 C 
ATOM     12  C   UNL     1      -2.507   3.477  26.053  0.00  0.00    +0.130 C 
ATOM     13  C   UNL     1      -5.452   3.184  24.034  0.00  0.00    +0.117 C 
ATOM     14  C   UNL     1      -2.984   3.024  23.644  0.00  0.00    +0.027 A 
ATOM     15  C   UNL     1      -2.660   2.430  22.483  0.00  0.00    +0.024 A 
ATOM     16  C   UNL     1      -1.176   1.840  24.808  0.00  0.00    +0.273 A 
ATOM     17  C   UNL     1      -5.743   1.274  25.689  0.00  0.00    +0.212 C 
ATOM     18  C   UNL     1      -0.861   1.182  23.501  0.00  0.00    +0.100 A 
ATOM     19  C   UNL     1      -1.576   1.491  22.413  0.00  0.00    +0.030 A 
ATOM     20  C   UNL     1      -6.205   0.409  24.544  0.00  0.00    +0.109 C 
ENDROOT
BRANCH  18   6
ATOM      3  O   UNL     1       1.913   1.809  23.604  0.00  0.00    -0.252 OA
ATOM      6  N   UNL     1       0.167   0.287  23.465  0.00  0.00    -0.265 N 
ATOM      7  N   UNL     1       2.324  -0.497  23.463  0.00  0.00    -0.269 N 
ATOM     21  C   UNL     1       1.522   0.647  23.519  0.00  0.00    +0.308 C 
ATOM     28  H   UNL     1      -0.050  -0.652  23.142  0.00  0.00    +0.157 HD
ATOM     29  H   UNL     1       1.842  -1.391  23.398  0.00  0.00    +0.156 HD
BRANCH   7  22
ATOM     22  C   UNL     1       3.737  -0.570  23.490  0.00  0.00    +0.035 A 
ATOM     23  C   UNL     1       4.368  -1.744  23.903  0.00  0.00    +0.023 A 
ATOM     24  C   UNL     1       4.499   0.533  23.106  0.00  0.00    +0.023 A 
ATOM     25  C   UNL     1       5.761  -1.815  23.929  0.00  0.00    +0.002 A 
ATOM     26  C   UNL     1       5.892   0.461  23.132  0.00  0.00    +0.002 A 
ATOM     27  C   UNL     1       6.522  -0.712  23.544  0.00  0.00    +0.000 A 
ENDBRANCH   7  22
ENDBRANCH  18   6
TORSDOF 2
ENDMDL
