MODEL 1
REMARK VINA RESULT:      -3.9      0.000      0.000
REMARK  Name = 75366936
REMARK  11 active torsions:
REMARK  status: ('A' for Active; 'I' for Inactive)
REMARK    1  A    between atoms: O_2  and  C_8
REMARK    2  A    between atoms: N_4  and  C_12
REMARK    3  A    between atoms: N_4  and  C_17
REMARK    4  A    between atoms: N_4  and  C_18
REMARK    5  A    between atoms: C_6  and  C_12
REMARK    6  A    between atoms: C_7  and  C_11
REMARK    7  A    between atoms: C_11  and  C_13
REMARK    8  A    between atoms: C_14  and  C_15
REMARK    9  A    between atoms: C_14  and  C_19
REMARK   10  A    between atoms: C_14  and  C_20
REMARK   11  A    between atoms: C_14  and  C_21
REMARK                            x       y       z     vdW  Elec       q    Type
REMARK                         _______ _______ _______ _____ _____    ______ ____
ROOT
ATOM      1  O   UNL     1      -3.258   1.259  25.610  0.00  0.00    -0.369 OA
ATOM      6  C   UNL     1      -4.609   0.861  25.340  0.00  0.00    +0.161 C 
ATOM      7  C   UNL     1      -2.672   2.121  24.632  0.00  0.00    +0.125 C 
ATOM      8  C   UNL     1      -5.521   2.078  25.141  0.00  0.00    +0.145 C 
ATOM      9  C   UNL     1      -3.487   3.405  24.485  0.00  0.00    +0.034 C 
ATOM     10  C   UNL     1      -4.941   3.082  24.150  0.00  0.00    +0.036 C 
ENDROOT
BRANCH   8   2
ATOM      2  O   UNL     1      -5.679   2.746  26.396  0.00  0.00    -0.389 OA
ATOM     22  H   UNL     1      -5.743   2.065  27.086  0.00  0.00    +0.210 HD
ENDBRANCH   8   2
BRANCH   7  11
ATOM     11  C   UNL     1      -1.251   2.430  25.086  0.00  0.00    +0.090 C 
BRANCH  11  13
ATOM      3  O   UNL     1       0.602  -0.396  23.834  0.00  0.00    -0.359 OA
ATOM      5  N   UNL     1      -0.501   0.173  24.459  0.00  0.00    -0.083 NA
ATOM     13  C   UNL     1      -0.252   1.485  24.475  0.00  0.00    +0.086 A 
ATOM     15  C   UNL     1       1.478   0.584  23.493  0.00  0.00    +0.143 A 
ATOM     16  C   UNL     1       0.982   1.801  23.880  0.00  0.00    +0.071 A 
BRANCH  15  14
ATOM     14  C   UNL     1       2.709   0.156  22.818  0.00  0.00    +0.023 C 
ATOM     19  C   UNL     1       3.482  -1.048  23.477  0.00  0.00    +0.019 C 
ATOM     20  C   UNL     1       2.441  -0.309  21.343  0.00  0.00    +0.019 C 
ATOM     21  C   UNL     1       3.770   1.310  22.741  0.00  0.00    +0.019 C 
ENDBRANCH  15  14
ENDBRANCH  11  13
ENDBRANCH   7  11
BRANCH   6  12
ATOM     12  C   UNL     1      -4.669  -0.126  24.177  0.00  0.00    +0.118 C 
BRANCH  12   4
ATOM      4  N   UNL     1      -3.736  -1.224  24.379  0.00  0.00    -0.306 NA
ATOM     17  C   UNL     1      -4.211  -2.438  23.711  0.00  0.00    +0.104 C 
ATOM     18  C   UNL     1      -3.536  -1.479  25.808  0.00  0.00    +0.104 C 
ENDBRANCH  12   4
ENDBRANCH   6  12
TORSDOF 6
ENDMDL
MODEL 2
REMARK VINA RESULT:      -3.7      1.926      6.375
REMARK  Name = 75366936
REMARK  11 active torsions:
REMARK  status: ('A' for Active; 'I' for Inactive)
REMARK    1  A    between atoms: O_2  and  C_8
REMARK    2  A    between atoms: N_4  and  C_12
REMARK    3  A    between atoms: N_4  and  C_17
REMARK    4  A    between atoms: N_4  and  C_18
REMARK    5  A    between atoms: C_6  and  C_12
REMARK    6  A    between atoms: C_7  and  C_11
REMARK    7  A    between atoms: C_11  and  C_13
REMARK    8  A    between atoms: C_14  and  C_15
REMARK    9  A    between atoms: C_14  and  C_19
REMARK   10  A    between atoms: C_14  and  C_20
REMARK   11  A    between atoms: C_14  and  C_21
REMARK                            x       y       z     vdW  Elec       q    Type
REMARK                         _______ _______ _______ _____ _____    ______ ____
ROOT
ATOM      1  O   UNL     1      -2.129  -0.168  24.361  0.00  0.00    -0.369 OA
ATOM      6  C   UNL     1      -0.718  -0.362  24.523  0.00  0.00    +0.161 C 
ATOM      7  C   UNL     1      -2.858  -1.324  23.944  0.00  0.00    +0.125 C 
ATOM      8  C   UNL     1      -0.420  -1.513  25.493  0.00  0.00    +0.145 C 
ATOM      9  C   UNL     1      -2.684  -2.463  24.948  0.00  0.00    +0.034 C 
ATOM     10  C   UNL     1      -1.205  -2.776  25.153  0.00  0.00    +0.036 C 
ENDROOT
BRANCH   8   2
ATOM      2  O   UNL     1      -0.793  -1.111  26.814  0.00  0.00    -0.389 OA
ATOM     22  H   UNL     1      -1.695  -0.752  26.768  0.00  0.00    +0.210 HD
ENDBRANCH   8   2
BRANCH   7  11
ATOM     11  C   UNL     1      -4.323  -0.924  23.826  0.00  0.00    +0.090 C 
BRANCH  11  13
ATOM      3  O   UNL     1      -5.499   1.913  25.712  0.00  0.00    -0.359 OA
ATOM      5  N   UNL     1      -5.521   0.566  25.375  0.00  0.00    -0.083 NA
ATOM     13  C   UNL     1      -4.583   0.428  24.434  0.00  0.00    +0.086 A 
ATOM     15  C   UNL     1      -4.554   2.545  24.970  0.00  0.00    +0.143 A 
ATOM     16  C   UNL     1      -3.941   1.644  24.139  0.00  0.00    +0.071 A 
BRANCH  15  14
ATOM     14  C   UNL     1      -4.394   3.986  25.200  0.00  0.00    +0.023 C 
ATOM     19  C   UNL     1      -5.698   4.775  25.599  0.00  0.00    +0.019 C 
ATOM     20  C   UNL     1      -3.381   4.289  26.360  0.00  0.00    +0.019 C 
ATOM     21  C   UNL     1      -3.858   4.730  23.928  0.00  0.00    +0.019 C 
ENDBRANCH  15  14
ENDBRANCH  11  13
ENDBRANCH   7  11
BRANCH   6  12
ATOM     12  C   UNL     1      -0.027  -0.528  23.171  0.00  0.00    +0.118 C 
BRANCH  12   4
ATOM      4  N   UNL     1       0.885   0.576  22.915  0.00  0.00    -0.306 NA
ATOM     17  C   UNL     1       2.255   0.088  22.741  0.00  0.00    +0.104 C 
ATOM     18  C   UNL     1       0.832   1.556  24.004  0.00  0.00    +0.104 C 
ENDBRANCH  12   4
ENDBRANCH   6  12
TORSDOF 6
ENDMDL
MODEL 3
REMARK VINA RESULT:      -3.6      2.402      4.364
REMARK  Name = 75366936
REMARK  11 active torsions:
REMARK  status: ('A' for Active; 'I' for Inactive)
REMARK    1  A    between atoms: O_2  and  C_8
REMARK    2  A    between atoms: N_4  and  C_12
REMARK    3  A    between atoms: N_4  and  C_17
REMARK    4  A    between atoms: N_4  and  C_18
REMARK    5  A    between atoms: C_6  and  C_12
REMARK    6  A    between atoms: C_7  and  C_11
REMARK    7  A    between atoms: C_11  and  C_13
REMARK    8  A    between atoms: C_14  and  C_15
REMARK    9  A    between atoms: C_14  and  C_19
REMARK   10  A    between atoms: C_14  and  C_20
REMARK   11  A    between atoms: C_14  and  C_21
REMARK                            x       y       z     vdW  Elec       q    Type
REMARK                         _______ _______ _______ _____ _____    ______ ____
ROOT
ATOM      1  O   UNL     1      -2.175   2.299  25.239  0.00  0.00    -0.369 OA
ATOM      6  C   UNL     1      -3.300   3.144  25.516  0.00  0.00    +0.161 C 
ATOM      7  C   UNL     1      -1.208   2.850  24.341  0.00  0.00    +0.125 C 
ATOM      8  C   UNL     1      -2.854   4.512  26.046  0.00  0.00    +0.145 C 
ATOM      9  C   UNL     1      -0.648   4.161  24.889  0.00  0.00    +0.034 C 
ATOM     10  C   UNL     1      -1.776   5.149  25.174  0.00  0.00    +0.036 C 
ENDROOT
BRANCH   8   2
ATOM      2  O   UNL     1      -2.310   4.344  27.358  0.00  0.00    -0.389 OA
ATOM     22  H   UNL     1      -2.213   3.390  27.516  0.00  0.00    +0.210 HD
ENDBRANCH   8   2
BRANCH   7  11
ATOM     11  C   UNL     1      -0.101   1.817  24.170  0.00  0.00    +0.090 C 
BRANCH  11  13
ATOM      3  O   UNL     1      -0.596  -1.749  24.342  0.00  0.00    -0.359 OA
ATOM      5  N   UNL     1       0.212  -0.621  24.286  0.00  0.00    -0.083 NA
ATOM     13  C   UNL     1      -0.635   0.411  24.237  0.00  0.00    +0.086 A 
ATOM     15  C   UNL     1      -1.899  -1.367  24.325  0.00  0.00    +0.143 A 
ATOM     16  C   UNL     1      -1.979  -0.001  24.259  0.00  0.00    +0.071 A 
BRANCH  15  14
ATOM     14  C   UNL     1      -2.898  -2.442  24.379  0.00  0.00    +0.023 C 
ATOM     19  C   UNL     1      -4.301  -2.119  23.740  0.00  0.00    +0.019 C 
ATOM     20  C   UNL     1      -2.414  -3.734  23.632  0.00  0.00    +0.019 C 
ATOM     21  C   UNL     1      -3.225  -2.869  25.852  0.00  0.00    +0.019 C 
ENDBRANCH  15  14
ENDBRANCH  11  13
ENDBRANCH   7  11
BRANCH   6  12
ATOM     12  C   UNL     1      -4.223   3.245  24.304  0.00  0.00    +0.118 C 
BRANCH  12   4
ATOM      4  N   UNL     1      -5.492   2.581  24.560  0.00  0.00    -0.306 NA
ATOM     17  C   UNL     1      -6.144   3.148  25.742  0.00  0.00    +0.104 C 
ATOM     18  C   UNL     1      -5.297   1.139  24.733  0.00  0.00    +0.104 C 
ENDBRANCH  12   4
ENDBRANCH   6  12
TORSDOF 6
ENDMDL
MODEL 4
REMARK VINA RESULT:      -3.4      1.882      6.194
REMARK  Name = 75366936
REMARK  11 active torsions:
REMARK  status: ('A' for Active; 'I' for Inactive)
REMARK    1  A    between atoms: O_2  and  C_8
REMARK    2  A    between atoms: N_4  and  C_12
REMARK    3  A    between atoms: N_4  and  C_17
REMARK    4  A    between atoms: N_4  and  C_18
REMARK    5  A    between atoms: C_6  and  C_12
REMARK    6  A    between atoms: C_7  and  C_11
REMARK    7  A    between atoms: C_11  and  C_13
REMARK    8  A    between atoms: C_14  and  C_15
REMARK    9  A    between atoms: C_14  and  C_19
REMARK   10  A    between atoms: C_14  and  C_20
REMARK   11  A    between atoms: C_14  and  C_21
REMARK                            x       y       z     vdW  Elec       q    Type
REMARK                         _______ _______ _______ _____ _____    ______ ____
ROOT
ATOM      1  O   UNL     1      -0.845   1.016  23.720  0.00  0.00    -0.369 OA
ATOM      6  C   UNL     1      -0.445  -0.360  23.680  0.00  0.00    +0.161 C 
ATOM      7  C   UNL     1       0.102   1.908  24.312  0.00  0.00    +0.125 C 
ATOM      8  C   UNL     1       0.906  -0.529  22.973  0.00  0.00    +0.145 C 
ATOM      9  C   UNL     1       1.432   1.858  23.563  0.00  0.00    +0.034 C 
ATOM     10  C   UNL     1       1.965   0.429  23.509  0.00  0.00    +0.036 C 
ENDROOT
BRANCH   8   2
ATOM      2  O   UNL     1       0.735  -0.256  21.580  0.00  0.00    -0.389 OA
ATOM     22  H   UNL     1       0.813  -1.099  21.103  0.00  0.00    +0.210 HD
ENDBRANCH   8   2
BRANCH   7  11
ATOM     11  C   UNL     1      -0.495   3.309  24.265  0.00  0.00    +0.090 C 
BRANCH  11  13
ATOM      3  O   UNL     1      -3.361   3.844  26.383  0.00  0.00    -0.359 OA
ATOM      5  N   UNL     1      -2.013   3.984  26.080  0.00  0.00    -0.083 NA
ATOM     13  C   UNL     1      -1.854   3.358  24.911  0.00  0.00    +0.086 A 
ATOM     15  C   UNL     1      -3.972   3.142  25.394  0.00  0.00    +0.143 A 
ATOM     16  C   UNL     1      -3.056   2.808  24.432  0.00  0.00    +0.071 A 
BRANCH  15  14
ATOM     14  C   UNL     1      -5.411   2.901  25.554  0.00  0.00    +0.023 C 
ATOM     19  C   UNL     1      -5.856   2.222  26.904  0.00  0.00    +0.019 C 
ATOM     20  C   UNL     1      -6.243   4.229  25.490  0.00  0.00    +0.019 C 
ATOM     21  C   UNL     1      -5.980   1.959  24.435  0.00  0.00    +0.019 C 
ENDBRANCH  15  14
ENDBRANCH  11  13
ENDBRANCH   7  11
BRANCH   6  12
ATOM     12  C   UNL     1      -0.470  -0.980  25.076  0.00  0.00    +0.118 C 
BRANCH  12   4
ATOM      4  N   UNL     1      -1.722  -1.684  25.309  0.00  0.00    -0.306 NA
ATOM     17  C   UNL     1      -2.039  -2.564  24.183  0.00  0.00    +0.104 C 
ATOM     18  C   UNL     1      -2.816  -0.735  25.533  0.00  0.00    +0.104 C 
ENDBRANCH  12   4
ENDBRANCH   6  12
TORSDOF 6
ENDMDL
MODEL 5
REMARK VINA RESULT:      -2.9      2.209      5.214
REMARK  Name = 75366936
REMARK  11 active torsions:
REMARK  status: ('A' for Active; 'I' for Inactive)
REMARK    1  A    between atoms: O_2  and  C_8
REMARK    2  A    between atoms: N_4  and  C_12
REMARK    3  A    between atoms: N_4  and  C_17
REMARK    4  A    between atoms: N_4  and  C_18
REMARK    5  A    between atoms: C_6  and  C_12
REMARK    6  A    between atoms: C_7  and  C_11
REMARK    7  A    between atoms: C_11  and  C_13
REMARK    8  A    between atoms: C_14  and  C_15
REMARK    9  A    between atoms: C_14  and  C_19
REMARK   10  A    between atoms: C_14  and  C_20
REMARK   11  A    between atoms: C_14  and  C_21
REMARK                            x       y       z     vdW  Elec       q    Type
REMARK                         _______ _______ _______ _____ _____    ______ ____
ROOT
ATOM      1  O   UNL     1      -2.891  -0.535  24.987  0.00  0.00    -0.369 OA
ATOM      6  C   UNL     1      -1.933  -1.586  24.807  0.00  0.00    +0.161 C 
ATOM      7  C   UNL     1      -3.931  -0.486  24.007  0.00  0.00    +0.125 C 
ATOM      8  C   UNL     1      -2.614  -2.958  24.738  0.00  0.00    +0.145 C 
ATOM      9  C   UNL     1      -4.715  -1.797  23.986  0.00  0.00    +0.034 C 
ATOM     10  C   UNL     1      -3.779  -2.979  23.752  0.00  0.00    +0.036 C 
ENDROOT
BRANCH   8   2
ATOM      2  O   UNL     1      -3.133  -3.281  26.031  0.00  0.00    -0.389 OA
ATOM     22  H   UNL     1      -3.943  -2.759  26.162  0.00  0.00    +0.210 HD
ENDBRANCH   8   2
BRANCH   7  11
ATOM     11  C   UNL     1      -4.839   0.685  24.361  0.00  0.00    +0.090 C 
BRANCH  11  13
ATOM      3  O   UNL     1      -3.710   4.073  24.843  0.00  0.00    -0.359 OA
ATOM      5  N   UNL     1      -4.708   3.117  24.704  0.00  0.00    -0.083 NA
ATOM     13  C   UNL     1      -4.061   1.960  24.543  0.00  0.00    +0.086 A 
ATOM     15  C   UNL     1      -2.497   3.467  24.765  0.00  0.00    +0.143 A 
ATOM     16  C   UNL     1      -2.665   2.121  24.574  0.00  0.00    +0.071 A 
BRANCH  15  14
ATOM     14  C   UNL     1      -1.321   4.336  24.894  0.00  0.00    +0.023 C 
ATOM     19  C   UNL     1      -0.286   3.945  26.015  0.00  0.00    +0.019 C 
ATOM     20  C   UNL     1      -0.473   4.380  23.574  0.00  0.00    +0.019 C 
ATOM     21  C   UNL     1      -1.716   5.819  25.224  0.00  0.00    +0.019 C 
ENDBRANCH  15  14
ENDBRANCH  11  13
ENDBRANCH   7  11
BRANCH   6  12
ATOM     12  C   UNL     1      -1.030  -1.307  23.606  0.00  0.00    +0.118 C 
BRANCH  12   4
ATOM      4  N   UNL     1       0.192  -0.635  24.021  0.00  0.00    -0.306 NA
ATOM     17  C   UNL     1      -0.114   0.545  24.833  0.00  0.00    +0.104 C 
ATOM     18  C   UNL     1       0.995  -0.253  22.856  0.00  0.00    +0.104 C 
ENDBRANCH  12   4
ENDBRANCH   6  12
TORSDOF 6
ENDMDL
MODEL 6
REMARK VINA RESULT:      -2.9      1.777      3.270
REMARK  Name = 75366936
REMARK  11 active torsions:
REMARK  status: ('A' for Active; 'I' for Inactive)
REMARK    1  A    between atoms: O_2  and  C_8
REMARK    2  A    between atoms: N_4  and  C_12
REMARK    3  A    between atoms: N_4  and  C_17
REMARK    4  A    between atoms: N_4  and  C_18
REMARK    5  A    between atoms: C_6  and  C_12
REMARK    6  A    between atoms: C_7  and  C_11
REMARK    7  A    between atoms: C_11  and  C_13
REMARK    8  A    between atoms: C_14  and  C_15
REMARK    9  A    between atoms: C_14  and  C_19
REMARK   10  A    between atoms: C_14  and  C_20
REMARK   11  A    between atoms: C_14  and  C_21
REMARK                            x       y       z     vdW  Elec       q    Type
REMARK                         _______ _______ _______ _____ _____    ______ ____
ROOT
ATOM      1  O   UNL     1      -2.571   1.771  24.406  0.00  0.00    -0.369 OA
ATOM      6  C   UNL     1      -2.791   3.164  24.664  0.00  0.00    +0.161 C 
ATOM      7  C   UNL     1      -3.389   0.876  25.163  0.00  0.00    +0.125 C 
ATOM      8  C   UNL     1      -4.263   3.544  24.460  0.00  0.00    +0.145 C 
ATOM      9  C   UNL     1      -4.870   1.143  24.898  0.00  0.00    +0.034 C 
ATOM     10  C   UNL     1      -5.213   2.601  25.192  0.00  0.00    +0.036 C 
ENDROOT
BRANCH   8   2
ATOM      2  O   UNL     1      -4.568   3.475  23.065  0.00  0.00    -0.389 OA
ATOM     22  H   UNL     1      -5.475   3.804  22.945  0.00  0.00    +0.210 HD
ENDBRANCH   8   2
BRANCH   7  11
ATOM     11  C   UNL     1      -3.013  -0.543  24.757  0.00  0.00    +0.090 C 
BRANCH  11  13
ATOM      3  O   UNL     1       0.483  -1.406  24.605  0.00  0.00    -0.359 OA
ATOM      5  N   UNL     1      -0.798  -1.550  25.123  0.00  0.00    -0.083 NA
ATOM     13  C   UNL     1      -1.543  -0.666  24.454  0.00  0.00    +0.086 A 
ATOM     15  C   UNL     1       0.473  -0.446  23.645  0.00  0.00    +0.143 A 
ATOM     16  C   UNL     1      -0.794   0.058  23.510  0.00  0.00    +0.071 A 
BRANCH  15  14
ATOM     14  C   UNL     1       1.754  -0.163  22.988  0.00  0.00    +0.023 C 
ATOM     19  C   UNL     1       2.984  -1.025  23.460  0.00  0.00    +0.019 C 
ATOM     20  C   UNL     1       1.685  -0.394  21.437  0.00  0.00    +0.019 C 
ATOM     21  C   UNL     1       2.211   1.323  23.201  0.00  0.00    +0.019 C 
ENDBRANCH  15  14
ENDBRANCH  11  13
ENDBRANCH   7  11
BRANCH   6  12
ATOM     12  C   UNL     1      -2.258   3.559  26.040  0.00  0.00    +0.118 C 
BRANCH  12   4
ATOM      4  N   UNL     1      -0.821   3.780  25.996  0.00  0.00    -0.306 NA
ATOM     17  C   UNL     1      -0.427   4.376  24.718  0.00  0.00    +0.104 C 
ATOM     18  C   UNL     1      -0.096   2.525  26.214  0.00  0.00    +0.104 C 
ENDBRANCH  12   4
ENDBRANCH   6  12
TORSDOF 6
ENDMDL
MODEL 7
REMARK VINA RESULT:      -2.8      1.781      6.653
REMARK  Name = 75366936
REMARK  11 active torsions:
REMARK  status: ('A' for Active; 'I' for Inactive)
REMARK    1  A    between atoms: O_2  and  C_8
REMARK    2  A    between atoms: N_4  and  C_12
REMARK    3  A    between atoms: N_4  and  C_17
REMARK    4  A    between atoms: N_4  and  C_18
REMARK    5  A    between atoms: C_6  and  C_12
REMARK    6  A    between atoms: C_7  and  C_11
REMARK    7  A    between atoms: C_11  and  C_13
REMARK    8  A    between atoms: C_14  and  C_15
REMARK    9  A    between atoms: C_14  and  C_19
REMARK   10  A    between atoms: C_14  and  C_20
REMARK   11  A    between atoms: C_14  and  C_21
REMARK                            x       y       z     vdW  Elec       q    Type
REMARK                         _______ _______ _______ _____ _____    ______ ____
ROOT
ATOM      1  O   UNL     1      -0.253   0.452  23.568  0.00  0.00    -0.369 OA
ATOM      6  C   UNL     1       0.775   1.449  23.532  0.00  0.00    +0.161 C 
ATOM      7  C   UNL     1      -0.527  -0.093  24.861  0.00  0.00    +0.125 C 
ATOM      8  C   UNL     1       0.473   2.600  24.501  0.00  0.00    +0.145 C 
ATOM      9  C   UNL     1      -0.949   1.008  25.832  0.00  0.00    +0.034 C 
ATOM     10  C   UNL     1       0.113   2.102  25.898  0.00  0.00    +0.036 C 
ENDROOT
BRANCH   8   2
ATOM      2  O   UNL     1      -0.643   3.341  24.002  0.00  0.00    -0.389 OA
ATOM     22  H   UNL     1      -1.431   3.053  24.492  0.00  0.00    +0.210 HD
ENDBRANCH   8   2
BRANCH   7  11
ATOM     11  C   UNL     1      -1.635  -1.126  24.698  0.00  0.00    +0.090 C 
BRANCH  11  13
ATOM      3  O   UNL     1      -5.126  -0.281  24.406  0.00  0.00    -0.359 OA
ATOM      5  N   UNL     1      -4.044  -1.127  24.198  0.00  0.00    -0.083 NA
ATOM     13  C   UNL     1      -2.999  -0.492  24.738  0.00  0.00    +0.086 A 
ATOM     15  C   UNL     1      -4.706   0.831  25.062  0.00  0.00    +0.143 A 
ATOM     16  C   UNL     1      -3.359   0.747  25.297  0.00  0.00    +0.071 A 
BRANCH  15  14
ATOM     14  C   UNL     1      -5.729   1.839  25.366  0.00  0.00    +0.023 C 
ATOM     19  C   UNL     1      -6.409   1.735  26.783  0.00  0.00    +0.019 C 
ATOM     20  C   UNL     1      -5.153   3.298  25.313  0.00  0.00    +0.019 C 
ATOM     21  C   UNL     1      -6.925   1.790  24.351  0.00  0.00    +0.019 C 
ENDBRANCH  15  14
ENDBRANCH  11  13
ENDBRANCH   7  11
BRANCH   6  12
ATOM     12  C   UNL     1       2.152   0.827  23.756  0.00  0.00    +0.118 C 
BRANCH  12   4
ATOM      4  N   UNL     1       2.906   0.773  22.513  0.00  0.00    -0.306 NA
ATOM     17  C   UNL     1       2.362  -0.253  21.620  0.00  0.00    +0.104 C 
ATOM     18  C   UNL     1       4.324   0.514  22.776  0.00  0.00    +0.104 C 
ENDBRANCH  12   4
ENDBRANCH   6  12
TORSDOF 6
ENDMDL
MODEL 8
REMARK VINA RESULT:      -2.5      2.673      4.876
REMARK  Name = 75366936
REMARK  11 active torsions:
REMARK  status: ('A' for Active; 'I' for Inactive)
REMARK    1  A    between atoms: O_2  and  C_8
REMARK    2  A    between atoms: N_4  and  C_12
REMARK    3  A    between atoms: N_4  and  C_17
REMARK    4  A    between atoms: N_4  and  C_18
REMARK    5  A    between atoms: C_6  and  C_12
REMARK    6  A    between atoms: C_7  and  C_11
REMARK    7  A    between atoms: C_11  and  C_13
REMARK    8  A    between atoms: C_14  and  C_15
REMARK    9  A    between atoms: C_14  and  C_19
REMARK   10  A    between atoms: C_14  and  C_20
REMARK   11  A    between atoms: C_14  and  C_21
REMARK                            x       y       z     vdW  Elec       q    Type
REMARK                         _______ _______ _______ _____ _____    ______ ____
ROOT
ATOM      1  O   UNL     1      -2.898  -0.329  24.010  0.00  0.00    -0.369 OA
ATOM      6  C   UNL     1      -4.252  -0.766  24.188  0.00  0.00    +0.161 C 
ATOM      7  C   UNL     1      -1.959  -0.862  24.946  0.00  0.00    +0.125 C 
ATOM      8  C   UNL     1      -4.351  -2.297  24.174  0.00  0.00    +0.145 C 
ATOM      9  C   UNL     1      -1.940  -2.388  24.882  0.00  0.00    +0.034 C 
ATOM     10  C   UNL     1      -3.339  -2.953  25.109  0.00  0.00    +0.036 C 
ENDROOT
BRANCH   8   2
ATOM      2  O   UNL     1      -4.087  -2.764  22.849  0.00  0.00    -0.389 OA
ATOM     22  H   UNL     1      -4.918  -3.118  22.490  0.00  0.00    +0.210 HD
ENDBRANCH   8   2
BRANCH   7  11
ATOM     11  C   UNL     1      -0.591  -0.287  24.601  0.00  0.00    +0.090 C 
BRANCH  11  13
ATOM      3  O   UNL     1       0.091   3.225  24.168  0.00  0.00    -0.359 OA
ATOM      5  N   UNL     1       0.436   1.884  24.066  0.00  0.00    -0.083 NA
ATOM     13  C   UNL     1      -0.613   1.217  24.555  0.00  0.00    +0.086 A 
ATOM     15  C   UNL     1      -1.149   3.328  24.711  0.00  0.00    +0.143 A 
ATOM     16  C   UNL     1      -1.642   2.078  24.976  0.00  0.00    +0.071 A 
BRANCH  15  14
ATOM     14  C   UNL     1      -1.676   4.687  24.891  0.00  0.00    +0.023 C 
ATOM     19  C   UNL     1      -2.719   5.177  23.817  0.00  0.00    +0.019 C 
ATOM     20  C   UNL     1      -2.417   4.854  26.264  0.00  0.00    +0.019 C 
ATOM     21  C   UNL     1      -0.540   5.768  24.858  0.00  0.00    +0.019 C 
ENDBRANCH  15  14
ENDBRANCH  11  13
ENDBRANCH   7  11
BRANCH   6  12
ATOM     12  C   UNL     1      -4.872  -0.140  25.436  0.00  0.00    +0.118 C 
BRANCH  12   4
ATOM      4  N   UNL     1      -5.627   1.056  25.095  0.00  0.00    -0.306 NA
ATOM     17  C   UNL     1      -4.773   2.033  24.416  0.00  0.00    +0.104 C 
ATOM     18  C   UNL     1      -6.223   1.653  26.294  0.00  0.00    +0.104 C 
ENDBRANCH  12   4
ENDBRANCH   6  12
TORSDOF 6
ENDMDL
MODEL 9
REMARK VINA RESULT:      -2.3      2.407      5.178
REMARK  Name = 75366936
REMARK  11 active torsions:
REMARK  status: ('A' for Active; 'I' for Inactive)
REMARK    1  A    between atoms: O_2  and  C_8
REMARK    2  A    between atoms: N_4  and  C_12
REMARK    3  A    between atoms: N_4  and  C_17
REMARK    4  A    between atoms: N_4  and  C_18
REMARK    5  A    between atoms: C_6  and  C_12
REMARK    6  A    between atoms: C_7  and  C_11
REMARK    7  A    between atoms: C_11  and  C_13
REMARK    8  A    between atoms: C_14  and  C_15
REMARK    9  A    between atoms: C_14  and  C_19
REMARK   10  A    between atoms: C_14  and  C_20
REMARK   11  A    between atoms: C_14  and  C_21
REMARK                            x       y       z     vdW  Elec       q    Type
REMARK                         _______ _______ _______ _____ _____    ______ ____
ROOT
ATOM      1  O   UNL     1      -2.422   3.035  24.580  0.00  0.00    -0.369 OA
ATOM      6  C   UNL     1      -1.221   3.748  24.905  0.00  0.00    +0.161 C 
ATOM      7  C   UNL     1      -3.463   3.123  25.555  0.00  0.00    +0.125 C 
ATOM      8  C   UNL     1      -1.509   5.227  25.191  0.00  0.00    +0.145 C 
ATOM      9  C   UNL     1      -3.865   4.579  25.786  0.00  0.00    +0.034 C 
ATOM     10  C   UNL     1      -2.652   5.414  26.185  0.00  0.00    +0.036 C 
ENDROOT
BRANCH   8   2
ATOM      2  O   UNL     1      -1.884   5.869  23.969  0.00  0.00    -0.389 OA
ATOM     22  H   UNL     1      -2.262   6.735  24.196  0.00  0.00    +0.210 HD
ENDBRANCH   8   2
BRANCH   7  11
ATOM     11  C   UNL     1      -4.644   2.310  25.040  0.00  0.00    +0.090 C 
BRANCH  11  13
ATOM      3  O   UNL     1      -3.614  -0.585  23.157  0.00  0.00    -0.359 OA
ATOM      5  N   UNL     1      -3.984   0.750  23.255  0.00  0.00    -0.083 NA
ATOM     13  C   UNL     1      -4.216   0.950  24.556  0.00  0.00    +0.086 A 
ATOM     15  C   UNL     1      -3.631  -1.147  24.393  0.00  0.00    +0.143 A 
ATOM     16  C   UNL     1      -4.008  -0.211  25.320  0.00  0.00    +0.071 A 
BRANCH  15  14
ATOM     14  C   UNL     1      -3.262  -2.566  24.474  0.00  0.00    +0.023 C 
ATOM     19  C   UNL     1      -1.843  -2.948  23.908  0.00  0.00    +0.019 C 
ATOM     20  C   UNL     1      -3.249  -3.088  25.953  0.00  0.00    +0.019 C 
ATOM     21  C   UNL     1      -4.261  -3.481  23.682  0.00  0.00    +0.019 C 
ENDBRANCH  15  14
ENDBRANCH  11  13
ENDBRANCH   7  11
BRANCH   6  12
ATOM     12  C   UNL     1      -0.461   3.058  26.036  0.00  0.00    +0.118 C 
BRANCH  12   4
ATOM      4  N   UNL     1       0.191   1.848  25.561  0.00  0.00    -0.306 NA
ATOM     17  C   UNL     1       0.587   1.988  24.158  0.00  0.00    +0.104 C 
ATOM     18  C   UNL     1      -0.688   0.686  25.725  0.00  0.00    +0.104 C 
ENDBRANCH  12   4
ENDBRANCH   6  12
TORSDOF 6
ENDMDL
MODEL 10
REMARK VINA RESULT:      -2.2      2.318      6.775
REMARK  Name = 75366936
REMARK  11 active torsions:
REMARK  status: ('A' for Active; 'I' for Inactive)
REMARK    1  A    between atoms: O_2  and  C_8
REMARK    2  A    between atoms: N_4  and  C_12
REMARK    3  A    between atoms: N_4  and  C_17
REMARK    4  A    between atoms: N_4  and  C_18
REMARK    5  A    between atoms: C_6  and  C_12
REMARK    6  A    between atoms: C_7  and  C_11
REMARK    7  A    between atoms: C_11  and  C_13
REMARK    8  A    between atoms: C_14  and  C_15
REMARK    9  A    between atoms: C_14  and  C_19
REMARK   10  A    between atoms: C_14  and  C_20
REMARK   11  A    between atoms: C_14  and  C_21
REMARK                            x       y       z     vdW  Elec       q    Type
REMARK                         _______ _______ _______ _____ _____    ______ ____
ROOT
ATOM      1  O   UNL     1       0.776   1.299  24.299  0.00  0.00    -0.369 OA
ATOM      6  C   UNL     1       1.179  -0.022  23.915  0.00  0.00    +0.161 C 
ATOM      7  C   UNL     1      -0.419   1.775  23.677  0.00  0.00    +0.125 C 
ATOM      8  C   UNL     1       0.056  -1.040  24.153  0.00  0.00    +0.145 C 
ATOM      9  C   UNL     1      -1.595   0.850  23.987  0.00  0.00    +0.034 C 
ATOM     10  C   UNL     1      -1.277  -0.582  23.568  0.00  0.00    +0.036 C 
ENDROOT
BRANCH   8   2
ATOM      2  O   UNL     1      -0.122  -1.209  25.562  0.00  0.00    -0.389 OA
ATOM     22  H   UNL     1      -0.997  -0.853  25.793  0.00  0.00    +0.210 HD
ENDBRANCH   8   2
BRANCH   7  11
ATOM     11  C   UNL     1      -0.681   3.181  24.203  0.00  0.00    +0.090 C 
BRANCH  11  13
ATOM      3  O   UNL     1      -3.468   3.820  26.396  0.00  0.00    -0.359 OA
ATOM      5  N   UNL     1      -2.123   3.906  26.059  0.00  0.00    -0.083 NA
ATOM     13  C   UNL     1      -2.020   3.282  24.883  0.00  0.00    +0.086 A 
ATOM     15  C   UNL     1      -4.132   3.151  25.420  0.00  0.00    +0.143 A 
ATOM     16  C   UNL     1      -3.256   2.785  24.432  0.00  0.00    +0.071 A 
BRANCH  15  14
ATOM     14  C   UNL     1      -5.576   2.967  25.615  0.00  0.00    +0.023 C 
ATOM     19  C   UNL     1      -6.014   2.300  26.973  0.00  0.00    +0.019 C 
ATOM     20  C   UNL     1      -6.353   4.329  25.577  0.00  0.00    +0.019 C 
ATOM     21  C   UNL     1      -6.210   2.055  24.507  0.00  0.00    +0.019 C 
ENDBRANCH  15  14
ENDBRANCH  11  13
ENDBRANCH   7  11
BRANCH   6  12
ATOM     12  C   UNL     1       1.707  -0.041  22.482  0.00  0.00    +0.118 C 
BRANCH  12   4
ATOM      4  N   UNL     1       3.158  -0.138  22.465  0.00  0.00    -0.306 NA
ATOM     17  C   UNL     1       3.628  -1.063  23.499  0.00  0.00    +0.104 C 
ATOM     18  C   UNL     1       3.769   1.180  22.650  0.00  0.00    +0.104 C 
ENDBRANCH  12   4
ENDBRANCH   6  12
TORSDOF 6
ENDMDL
