MODEL 1
REMARK VINA RESULT:       5.6      0.000      0.000
REMARK  Name = 40777983
REMARK  11 active torsions:
REMARK  status: ('A' for Active; 'I' for Inactive)
REMARK    1  A    between atoms: O_2  and  C_11
REMARK    2  A    between atoms: O_3  and  C_12
REMARK    3  A    between atoms: N_7  and  C_21
REMARK    4  A    between atoms: N_8  and  C_15
REMARK    5  A    between atoms: N_9  and  C_33
REMARK    6  A    between atoms: N_9  and  C_34
REMARK    7  A    between atoms: N_9  and  C_35
REMARK    8  A    between atoms: C_10  and  C_14
REMARK    9  A    between atoms: C_13  and  C_15
REMARK   10  A    between atoms: C_14  and  C_16
REMARK   11  A    between atoms: C_22  and  C_25
REMARK                            x       y       z     vdW  Elec       q    Type
REMARK                         _______ _______ _______ _____ _____    ______ ____
ROOT
ATOM      1  O   UNL     1      -4.578   1.594  23.698  0.00  0.00    -0.366 OA
ATOM     10  C   UNL     1      -5.193   0.656  24.612  0.00  0.00    +0.159 C 
ATOM     11  C   UNL     1      -6.103   1.477  25.520  0.00  0.00    +0.175 C 
ATOM     12  C   UNL     1      -5.407   2.822  25.533  0.00  0.00    +0.176 C 
ATOM     13  C   UNL     1      -4.929   2.931  24.095  0.00  0.00    +0.167 C 
ENDROOT
BRANCH  11   2
ATOM      2  O   UNL     1      -7.377   1.586  24.887  0.00  0.00    -0.387 OA
ATOM     36  H   UNL     1      -7.765   2.436  25.157  0.00  0.00    +0.210 HD
ENDBRANCH  11   2
BRANCH  12   3
ATOM      3  O   UNL     1      -6.258   3.889  25.892  0.00  0.00    -0.387 OA
ATOM     37  H   UNL     1      -6.991   3.516  26.410  0.00  0.00    +0.210 HD
ENDBRANCH  12   3
BRANCH  10  14
ATOM     14  C   UNL     1      -4.081  -0.055  25.369  0.00  0.00    +0.130 C 
BRANCH  14  16
ATOM      4  O   UNL     1      -4.034  -1.913  23.892  0.00  0.00    -0.276 OA
ATOM      6  N   UNL     1      -2.003  -0.866  24.315  0.00  0.00    -0.298 N 
ATOM      7  N   UNL     1       0.815  -0.479  23.780  0.00  0.00    -0.327 N 
ATOM     16  C   UNL     1      -3.381  -1.032  24.456  0.00  0.00    +0.218 C 
ATOM     17  C   UNL     1      -1.230   0.182  24.985  0.00  0.00    +0.126 C 
ATOM     18  C   UNL     1      -1.254  -1.767  23.442  0.00  0.00    +0.126 C 
ATOM     19  C   UNL     1       0.257  -0.159  25.096  0.00  0.00    +0.124 C 
ATOM     20  C   UNL     1      -0.074  -1.066  22.775  0.00  0.00    +0.124 C 
BRANCH   7  21
ATOM     21  C   UNL     1       2.163  -0.265  23.499  0.00  0.00    +0.030 A 
ATOM     23  C   UNL     1       2.577   0.952  22.955  0.00  0.00    +0.023 A 
ATOM     24  C   UNL     1       3.098  -1.265  23.763  0.00  0.00    +0.023 A 
ATOM     26  C   UNL     1       3.927   1.167  22.675  0.00  0.00    +0.002 A 
ATOM     27  C   UNL     1       4.448  -1.050  23.483  0.00  0.00    +0.002 A 
ATOM     28  C   UNL     1       4.862   0.166  22.939  0.00  0.00    +0.000 A 
ENDBRANCH   7  21
ENDBRANCH  14  16
ENDBRANCH  10  14
BRANCH  13  15
ATOM     15  C   UNL     1      -3.729   3.846  23.928  0.00  0.00    +0.138 C 
BRANCH  15   8
ATOM      5  O   UNL     1      -0.968   3.126  23.609  0.00  0.00    -0.270 OA
ATOM      8  N   UNL     1      -2.771   3.641  24.974  0.00  0.00    -0.309 N 
ATOM     22  C   UNL     1      -1.447   3.292  24.728  0.00  0.00    +0.244 C 
ATOM     38  H   UNL     1      -3.087   3.817  25.922  0.00  0.00    +0.149 HD
BRANCH  22  25
ATOM     25  C   UNL     1      -0.588   3.090  25.923  0.00  0.00    +0.037 A 
ATOM     29  C   UNL     1      -1.171   2.897  27.176  0.00  0.00    +0.015 A 
ATOM     30  C   UNL     1       0.801   3.095  25.794  0.00  0.00    +0.015 A 
ATOM     31  C   UNL     1      -0.365   2.709  28.299  0.00  0.00    +0.024 A 
ATOM     32  C   UNL     1       1.607   2.907  26.916  0.00  0.00    +0.024 A 
ATOM     33  C   UNL     1       1.024   2.713  28.168  0.00  0.00    +0.029 A 
BRANCH  33   9
ATOM      9  N   UNL     1       1.839   2.522  29.304  0.00  0.00    -0.336 N 
ATOM     34  C   UNL     1       3.274   2.714  29.218  0.00  0.00    +0.129 C 
ATOM     35  C   UNL     1       1.252   2.139  30.573  0.00  0.00    +0.129 C 
ENDBRANCH  33   9
ENDBRANCH  22  25
ENDBRANCH  15   8
ENDBRANCH  13  15
TORSDOF 9
ENDMDL
MODEL 2
REMARK VINA RESULT:       7.0      1.242      5.100
REMARK  Name = 40777983
REMARK  11 active torsions:
REMARK  status: ('A' for Active; 'I' for Inactive)
REMARK    1  A    between atoms: O_2  and  C_11
REMARK    2  A    between atoms: O_3  and  C_12
REMARK    3  A    between atoms: N_7  and  C_21
REMARK    4  A    between atoms: N_8  and  C_15
REMARK    5  A    between atoms: N_9  and  C_33
REMARK    6  A    between atoms: N_9  and  C_34
REMARK    7  A    between atoms: N_9  and  C_35
REMARK    8  A    between atoms: C_10  and  C_14
REMARK    9  A    between atoms: C_13  and  C_15
REMARK   10  A    between atoms: C_14  and  C_16
REMARK   11  A    between atoms: C_22  and  C_25
REMARK                            x       y       z     vdW  Elec       q    Type
REMARK                         _______ _______ _______ _____ _____    ______ ____
ROOT
ATOM      1  O   UNL     1      -3.996   2.190  25.395  0.00  0.00    -0.366 OA
ATOM     10  C   UNL     1      -4.443   3.521  25.044  0.00  0.00    +0.159 C 
ATOM     11  C   UNL     1      -5.961   3.445  24.919  0.00  0.00    +0.175 C 
ATOM     12  C   UNL     1      -6.172   2.003  24.504  0.00  0.00    +0.176 C 
ATOM     13  C   UNL     1      -5.117   1.290  25.333  0.00  0.00    +0.167 C 
ENDROOT
BRANCH  11   2
ATOM      2  O   UNL     1      -6.523   3.674  26.210  0.00  0.00    -0.387 OA
ATOM     36  H   UNL     1      -7.352   4.168  26.084  0.00  0.00    +0.210 HD
ENDBRANCH  11   2
BRANCH  12   3
ATOM      3  O   UNL     1      -7.472   1.526  24.776  0.00  0.00    -0.387 OA
ATOM     37  H   UNL     1      -8.020   2.294  25.012  0.00  0.00    +0.210 HD
ENDBRANCH  12   3
BRANCH  10  14
ATOM     14  C   UNL     1      -3.758   3.914  23.744  0.00  0.00    +0.130 C 
BRANCH  14  16
ATOM      4  O   UNL     1      -2.249   2.613  22.451  0.00  0.00    -0.276 OA
ATOM      6  N   UNL     1      -1.696   2.939  24.685  0.00  0.00    -0.298 N 
ATOM      7  N   UNL     1       0.156   2.730  26.899  0.00  0.00    -0.327 N 
ATOM     16  C   UNL     1      -2.502   3.097  23.557  0.00  0.00    +0.218 C 
ATOM     17  C   UNL     1      -1.999   3.515  25.997  0.00  0.00    +0.126 C 
ATOM     18  C   UNL     1      -0.460   2.167  24.584  0.00  0.00    +0.126 C 
ATOM     19  C   UNL     1      -1.288   2.789  27.140  0.00  0.00    +0.124 C 
ATOM     20  C   UNL     1       0.626   2.704  25.512  0.00  0.00    +0.124 C 
BRANCH   7  21
ATOM     21  C   UNL     1       1.059   2.664  27.958  0.00  0.00    +0.030 A 
ATOM     23  C   UNL     1       0.637   2.208  29.207  0.00  0.00    +0.023 A 
ATOM     24  C   UNL     1       2.385   3.052  27.769  0.00  0.00    +0.023 A 
ATOM     26  C   UNL     1       1.541   2.140  30.267  0.00  0.00    +0.002 A 
ATOM     27  C   UNL     1       3.289   2.985  28.829  0.00  0.00    +0.002 A 
ATOM     28  C   UNL     1       2.868   2.529  30.078  0.00  0.00    +0.000 A 
ENDBRANCH   7  21
ENDBRANCH  14  16
ENDBRANCH  10  14
BRANCH  13  15
ATOM     15  C   UNL     1      -4.676  -0.035  24.735  0.00  0.00    +0.138 C 
BRANCH  15   8
ATOM      5  O   UNL     1      -2.967  -2.322  24.436  0.00  0.00    -0.270 OA
ATOM      8  N   UNL     1      -3.276  -0.023  24.426  0.00  0.00    -0.309 N 
ATOM     22  C   UNL     1      -2.522  -1.186  24.300  0.00  0.00    +0.244 C 
ATOM     38  H   UNL     1      -2.856   0.882  24.246  0.00  0.00    +0.149 HD
BRANCH  22  25
ATOM     25  C   UNL     1      -1.077  -1.002  24.002  0.00  0.00    +0.037 A 
ATOM     29  C   UNL     1      -0.684  -0.254  22.892  0.00  0.00    +0.015 A 
ATOM     30  C   UNL     1      -0.115  -1.578  24.831  0.00  0.00    +0.015 A 
ATOM     31  C   UNL     1       0.672  -0.082  22.612  0.00  0.00    +0.024 A 
ATOM     32  C   UNL     1       1.241  -1.406  24.552  0.00  0.00    +0.024 A 
ATOM     33  C   UNL     1       1.634  -0.657  23.443  0.00  0.00    +0.029 A 
BRANCH  33   9
ATOM      9  N   UNL     1       3.005  -0.483  23.160  0.00  0.00    -0.336 N 
ATOM     34  C   UNL     1       3.447   0.606  22.311  0.00  0.00    +0.129 C 
ATOM     35  C   UNL     1       3.990  -1.386  23.722  0.00  0.00    +0.129 C 
ENDBRANCH  33   9
ENDBRANCH  22  25
ENDBRANCH  15   8
ENDBRANCH  13  15
TORSDOF 9
ENDMDL
MODEL 3
REMARK VINA RESULT:       9.4      2.800      5.662
REMARK  Name = 40777983
REMARK  11 active torsions:
REMARK  status: ('A' for Active; 'I' for Inactive)
REMARK    1  A    between atoms: O_2  and  C_11
REMARK    2  A    between atoms: O_3  and  C_12
REMARK    3  A    between atoms: N_7  and  C_21
REMARK    4  A    between atoms: N_8  and  C_15
REMARK    5  A    between atoms: N_9  and  C_33
REMARK    6  A    between atoms: N_9  and  C_34
REMARK    7  A    between atoms: N_9  and  C_35
REMARK    8  A    between atoms: C_10  and  C_14
REMARK    9  A    between atoms: C_13  and  C_15
REMARK   10  A    between atoms: C_14  and  C_16
REMARK   11  A    between atoms: C_22  and  C_25
REMARK                            x       y       z     vdW  Elec       q    Type
REMARK                         _______ _______ _______ _____ _____    ______ ____
ROOT
ATOM      1  O   UNL     1      -3.530   4.417  24.150  0.00  0.00    -0.366 OA
ATOM     10  C   UNL     1      -3.468   5.230  25.344  0.00  0.00    +0.159 C 
ATOM     11  C   UNL     1      -1.996   5.570  25.556  0.00  0.00    +0.175 C 
ATOM     12  C   UNL     1      -1.304   4.379  24.926  0.00  0.00    +0.176 C 
ATOM     13  C   UNL     1      -2.191   4.113  23.722  0.00  0.00    +0.167 C 
ENDROOT
BRANCH  11   2
ATOM      2  O   UNL     1      -1.706   6.757  24.819  0.00  0.00    -0.387 OA
ATOM     36  H   UNL     1      -1.456   7.444  25.461  0.00  0.00    +0.210 HD
ENDBRANCH  11   2
BRANCH  12   3
ATOM      3  O   UNL     1       0.032   4.641  24.554  0.00  0.00    -0.387 OA
ATOM     37  H   UNL     1       0.165   4.271  23.665  0.00  0.00    +0.210 HD
ENDBRANCH  12   3
BRANCH  10  14
ATOM     14  C   UNL     1      -4.063   4.423  26.489  0.00  0.00    +0.130 C 
BRANCH  14  16
ATOM      4  O   UNL     1      -6.279   3.887  25.823  0.00  0.00    -0.276 OA
ATOM      6  N   UNL     1      -4.701   2.189  25.660  0.00  0.00    -0.298 N 
ATOM      7  N   UNL     1      -3.895  -0.455  24.799  0.00  0.00    -0.327 N 
ATOM     16  C   UNL     1      -5.121   3.485  25.960  0.00  0.00    +0.218 C 
ATOM     17  C   UNL     1      -3.325   1.713  25.823  0.00  0.00    +0.126 C 
ATOM     18  C   UNL     1      -5.664   1.223  25.136  0.00  0.00    +0.126 C 
ATOM     19  C   UNL     1      -3.236   0.191  25.936  0.00  0.00    +0.124 C 
ATOM     20  C   UNL     1      -5.017   0.241  24.163  0.00  0.00    +0.124 C 
BRANCH   7  21
ATOM     21  C   UNL     1      -3.494  -1.713  24.354  0.00  0.00    +0.030 A 
ATOM     23  C   UNL     1      -4.407  -2.549  23.711  0.00  0.00    +0.023 A 
ATOM     24  C   UNL     1      -2.179  -2.135  24.551  0.00  0.00    +0.023 A 
ATOM     26  C   UNL     1      -4.005  -3.807  23.264  0.00  0.00    +0.002 A 
ATOM     27  C   UNL     1      -1.777  -3.394  24.104  0.00  0.00    +0.002 A 
ATOM     28  C   UNL     1      -2.690  -4.230  23.460  0.00  0.00    +0.000 A 
ENDBRANCH   7  21
ENDBRANCH  14  16
ENDBRANCH  10  14
BRANCH  13  15
ATOM     15  C   UNL     1      -2.124   2.677  23.232  0.00  0.00    +0.138 C 
BRANCH  15   8
ATOM      5  O   UNL     1      -1.290  -0.027  22.741  0.00  0.00    -0.270 OA
ATOM      8  N   UNL     1      -0.787   2.168  23.299  0.00  0.00    -0.309 N 
ATOM     22  C   UNL     1      -0.471   0.836  23.045  0.00  0.00    +0.244 C 
ATOM     38  H   UNL     1      -0.052   2.840  23.492  0.00  0.00    +0.149 HD
BRANCH  22  25
ATOM     25  C   UNL     1       0.960   0.462  23.183  0.00  0.00    +0.037 A 
ATOM     29  C   UNL     1       1.313  -0.864  23.436  0.00  0.00    +0.015 A 
ATOM     30  C   UNL     1       1.951   1.436  23.061  0.00  0.00    +0.015 A 
ATOM     31  C   UNL     1       2.656  -1.216  23.566  0.00  0.00    +0.024 A 
ATOM     32  C   UNL     1       3.295   1.085  23.192  0.00  0.00    +0.024 A 
ATOM     33  C   UNL     1       3.647  -0.241  23.443  0.00  0.00    +0.029 A 
BRANCH  33   9
ATOM      9  N   UNL     1       5.006  -0.597  23.575  0.00  0.00    -0.336 N 
ATOM     34  C   UNL     1       6.044   0.404  23.428  0.00  0.00    +0.129 C 
ATOM     35  C   UNL     1       5.381  -1.967  23.867  0.00  0.00    +0.129 C 
ENDBRANCH  33   9
ENDBRANCH  22  25
ENDBRANCH  15   8
ENDBRANCH  13  15
TORSDOF 9
ENDMDL
