MODEL 1
REMARK VINA RESULT:      -5.8      0.000      0.000
REMARK  Name = 11883286
REMARK  7 active torsions:
REMARK  status: ('A' for Active; 'I' for Inactive)
REMARK    1  A    between atoms: S_1  and  N_8
REMARK    2  A    between atoms: S_1  and  C_17
REMARK    3  A    between atoms: O_4  and  C_13
REMARK    4  A    between atoms: O_4  and  C_16
REMARK    5  A    between atoms: N_8  and  C_12
REMARK    6  A    between atoms: C_16  and  C_18
REMARK    7  A    between atoms: C_23  and  C_24
REMARK                            x       y       z     vdW  Elec       q    Type
REMARK                         _______ _______ _______ _____ _____    ______ ____
ROOT
ATOM      2  O   UNL     1      -2.114   0.439  24.748  0.00  0.00    -0.370 OA
ATOM      3  O   UNL     1      -3.293  -2.382  24.520  0.00  0.00    -0.370 OA
ATOM     10  C   UNL     1      -3.489  -1.341  25.499  0.00  0.00    +0.170 C 
ATOM     11  C   UNL     1      -2.151  -0.652  25.682  0.00  0.00    +0.179 C 
ATOM     12  C   UNL     1      -4.379  -0.258  24.933  0.00  0.00    +0.133 C 
ATOM     13  C   UNL     1      -1.171  -1.740  25.311  0.00  0.00    +0.176 C 
ATOM     14  C   UNL     1      -3.400   0.574  24.123  0.00  0.00    +0.183 C 
ATOM     15  C   UNL     1      -1.897  -2.456  24.194  0.00  0.00    +0.194 C 
ENDROOT
BRANCH  12   8
ATOM      8  N   UNL     1      -4.986   0.521  25.984  0.00  0.00    -0.182 NA
ATOM     25  H   UNL     1      -5.301   0.014  26.821  0.00  0.00    +0.148 HD
BRANCH   8   1
ATOM      1  S   UNL     1      -5.699   2.020  25.623  0.00  0.00    +0.059 S 
ATOM      5  O   UNL     1      -6.402   2.513  26.791  0.00  0.00    -0.153 OA
ATOM      6  O   UNL     1      -6.383   1.916  24.348  0.00  0.00    -0.153 OA
BRANCH   1  17
ATOM     17  C   UNL     1      -4.282   3.045  25.365  0.00  0.00    +0.105 A 
ATOM     19  C   UNL     1      -3.459   3.342  26.438  0.00  0.00    +0.029 A 
ATOM     20  C   UNL     1      -4.022   3.531  24.095  0.00  0.00    +0.029 A 
ATOM     21  C   UNL     1      -2.341   4.150  26.235  0.00  0.00    +0.005 A 
ATOM     22  C   UNL     1      -2.903   4.340  23.893  0.00  0.00    +0.005 A 
ATOM     23  C   UNL     1      -2.063   4.649  24.962  0.00  0.00    -0.050 A 
ATOM     24  C   UNL     1      -0.867   5.514  24.746  0.00  0.00    +0.044 C 
ENDBRANCH   1  17
ENDBRANCH   8   1
ENDBRANCH  12   8
BRANCH  13   4
ATOM      4  O   UNL     1       0.084  -1.250  24.899  0.00  0.00    -0.362 OA
BRANCH   4  16
ATOM     16  C   UNL     1       0.099  -0.922  23.511  0.00  0.00    +0.255 C 
BRANCH  16  18
ATOM      7  O   UNL     1       2.019   0.102  22.458  0.00  0.00    -0.274 OA
ATOM      9  N   UNL     1       0.856   1.293  24.046  0.00  0.00    -0.327 N 
ATOM     18  C   UNL     1       1.097   0.184  23.265  0.00  0.00    +0.236 C 
ATOM     26  H   UNL     1       1.448   2.114  23.986  0.00  0.00    +0.145 HD
ATOM     27  H   UNL     1       0.086   1.334  24.707  0.00  0.00    +0.145 HD
ENDBRANCH  16  18
ENDBRANCH   4  16
ENDBRANCH  13   4
TORSDOF 6
ENDMDL
MODEL 2
REMARK VINA RESULT:      -5.6      2.523      3.999
REMARK  Name = 11883286
REMARK  7 active torsions:
REMARK  status: ('A' for Active; 'I' for Inactive)
REMARK    1  A    between atoms: S_1  and  N_8
REMARK    2  A    between atoms: S_1  and  C_17
REMARK    3  A    between atoms: O_4  and  C_13
REMARK    4  A    between atoms: O_4  and  C_16
REMARK    5  A    between atoms: N_8  and  C_12
REMARK    6  A    between atoms: C_16  and  C_18
REMARK    7  A    between atoms: C_23  and  C_24
REMARK                            x       y       z     vdW  Elec       q    Type
REMARK                         _______ _______ _______ _____ _____    ______ ____
ROOT
ATOM      2  O   UNL     1       0.604  -1.265  23.947  0.00  0.00    -0.370 OA
ATOM      3  O   UNL     1       0.245   1.769  24.202  0.00  0.00    -0.370 OA
ATOM     10  C   UNL     1      -0.547   0.766  23.531  0.00  0.00    +0.170 C 
ATOM     11  C   UNL     1       0.424  -0.245  22.953  0.00  0.00    +0.179 C 
ATOM     12  C   UNL     1      -1.339  -0.031  24.542  0.00  0.00    +0.133 C 
ATOM     13  C   UNL     1       1.676   0.577  22.762  0.00  0.00    +0.176 C 
ATOM     14  C   UNL     1      -0.316  -1.044  25.028  0.00  0.00    +0.183 C 
ATOM     15  C   UNL     1       1.634   1.505  23.957  0.00  0.00    +0.194 C 
ENDROOT
BRANCH  12   8
ATOM      8  N   UNL     1      -2.469  -0.681  23.925  0.00  0.00    -0.182 NA
ATOM     25  H   UNL     1      -2.520  -0.657  22.899  0.00  0.00    +0.148 HD
BRANCH   8   1
ATOM      1  S   UNL     1      -3.903  -0.904  24.808  0.00  0.00    +0.059 S 
ATOM      5  O   UNL     1      -3.582  -1.421  26.125  0.00  0.00    -0.153 OA
ATOM      6  O   UNL     1      -4.866  -1.591  23.969  0.00  0.00    -0.153 OA
BRANCH   1  17
ATOM     17  C   UNL     1      -4.475   0.757  24.998  0.00  0.00    +0.105 A 
ATOM     19  C   UNL     1      -3.834   1.775  24.314  0.00  0.00    +0.029 A 
ATOM     20  C   UNL     1      -5.555   1.009  25.827  0.00  0.00    +0.029 A 
ATOM     21  C   UNL     1      -4.286   3.086  24.463  0.00  0.00    +0.005 A 
ATOM     22  C   UNL     1      -6.006   2.321  25.977  0.00  0.00    +0.005 A 
ATOM     23  C   UNL     1      -5.372   3.359  25.295  0.00  0.00    -0.050 A 
ATOM     24  C   UNL     1      -5.855   4.761  25.454  0.00  0.00    +0.044 C 
ENDBRANCH   1  17
ENDBRANCH   8   1
ENDBRANCH  12   8
BRANCH  13   4
ATOM      4  O   UNL     1       2.856  -0.192  22.730  0.00  0.00    -0.362 OA
BRANCH   4  16
ATOM     16  C   UNL     1       4.022   0.613  22.882  0.00  0.00    +0.255 C 
BRANCH  16  18
ATOM      7  O   UNL     1       6.324   0.090  23.403  0.00  0.00    -0.274 OA
ATOM      9  N   UNL     1       4.672  -1.359  24.086  0.00  0.00    -0.327 N 
ATOM     18  C   UNL     1       5.138  -0.219  23.469  0.00  0.00    +0.236 C 
ATOM     26  H   UNL     1       5.311  -2.013  24.525  0.00  0.00    +0.145 HD
ATOM     27  H   UNL     1       3.685  -1.591  24.126  0.00  0.00    +0.145 HD
ENDBRANCH  16  18
ENDBRANCH   4  16
ENDBRANCH  13   4
TORSDOF 6
ENDMDL
MODEL 3
REMARK VINA RESULT:      -5.4      2.361      4.461
REMARK  Name = 11883286
REMARK  7 active torsions:
REMARK  status: ('A' for Active; 'I' for Inactive)
REMARK    1  A    between atoms: S_1  and  N_8
REMARK    2  A    between atoms: S_1  and  C_17
REMARK    3  A    between atoms: O_4  and  C_13
REMARK    4  A    between atoms: O_4  and  C_16
REMARK    5  A    between atoms: N_8  and  C_12
REMARK    6  A    between atoms: C_16  and  C_18
REMARK    7  A    between atoms: C_23  and  C_24
REMARK                            x       y       z     vdW  Elec       q    Type
REMARK                         _______ _______ _______ _____ _____    ______ ____
ROOT
ATOM      2  O   UNL     1      -0.816   0.800  25.582  0.00  0.00    -0.370 OA
ATOM      3  O   UNL     1       1.128   0.254  23.275  0.00  0.00    -0.370 OA
ATOM     10  C   UNL     1      -0.004   1.143  23.381  0.00  0.00    +0.170 C 
ATOM     11  C   UNL     1      -1.048   0.426  24.214  0.00  0.00    +0.179 C 
ATOM     12  C   UNL     1       0.361   2.348  24.216  0.00  0.00    +0.133 C 
ATOM     13  C   UNL     1      -0.722  -1.027  23.968  0.00  0.00    +0.176 C 
ATOM     14  C   UNL     1       0.188   1.825  25.631  0.00  0.00    +0.183 C 
ATOM     15  C   UNL     1       0.788  -1.004  23.877  0.00  0.00    +0.194 C 
ENDROOT
BRANCH  12   8
ATOM      8  N   UNL     1      -0.528   3.454  23.952  0.00  0.00    -0.182 NA
ATOM     25  H   UNL     1      -0.361   3.994  23.094  0.00  0.00    +0.148 HD
BRANCH   8   1
ATOM      1  S   UNL     1      -1.358   4.196  25.235  0.00  0.00    +0.059 S 
ATOM      5  O   UNL     1      -1.481   5.617  24.970  0.00  0.00    -0.153 OA
ATOM      6  O   UNL     1      -0.793   3.733  26.488  0.00  0.00    -0.153 OA
BRANCH   1  17
ATOM     17  C   UNL     1      -2.964   3.473  25.096  0.00  0.00    +0.105 A 
ATOM     19  C   UNL     1      -3.265   2.703  23.985  0.00  0.00    +0.029 A 
ATOM     20  C   UNL     1      -3.893   3.690  26.100  0.00  0.00    +0.029 A 
ATOM     21  C   UNL     1      -4.533   2.132  23.875  0.00  0.00    +0.005 A 
ATOM     22  C   UNL     1      -5.161   3.119  25.989  0.00  0.00    +0.005 A 
ATOM     23  C   UNL     1      -5.480   2.340  24.877  0.00  0.00    -0.050 A 
ATOM     24  C   UNL     1      -6.836   1.730  24.759  0.00  0.00    +0.044 C 
ENDBRANCH   1  17
ENDBRANCH   8   1
ENDBRANCH  12   8
BRANCH  13   4
ATOM      4  O   UNL     1      -1.179  -1.887  24.986  0.00  0.00    -0.362 OA
BRANCH   4  16
ATOM     16  C   UNL     1      -2.381  -2.559  24.616  0.00  0.00    +0.255 C 
BRANCH  16  18
ATOM      7  O   UNL     1      -3.710  -1.090  26.002  0.00  0.00    -0.274 OA
ATOM      9  N   UNL     1      -4.470  -1.622  23.896  0.00  0.00    -0.327 N 
ATOM     18  C   UNL     1      -3.568  -1.682  24.936  0.00  0.00    +0.236 C 
ATOM     26  H   UNL     1      -5.317  -1.069  23.971  0.00  0.00    +0.145 HD
ATOM     27  H   UNL     1      -4.328  -2.122  23.024  0.00  0.00    +0.145 HD
ENDBRANCH  16  18
ENDBRANCH   4  16
ENDBRANCH  13   4
TORSDOF 6
ENDMDL
MODEL 4
REMARK VINA RESULT:      -5.1      1.804      4.543
REMARK  Name = 11883286
REMARK  7 active torsions:
REMARK  status: ('A' for Active; 'I' for Inactive)
REMARK    1  A    between atoms: S_1  and  N_8
REMARK    2  A    between atoms: S_1  and  C_17
REMARK    3  A    between atoms: O_4  and  C_13
REMARK    4  A    between atoms: O_4  and  C_16
REMARK    5  A    between atoms: N_8  and  C_12
REMARK    6  A    between atoms: C_16  and  C_18
REMARK    7  A    between atoms: C_23  and  C_24
REMARK                            x       y       z     vdW  Elec       q    Type
REMARK                         _______ _______ _______ _____ _____    ______ ____
ROOT
ATOM      2  O   UNL     1      -2.112   2.291  25.576  0.00  0.00    -0.370 OA
ATOM      3  O   UNL     1      -1.785   5.214  24.710  0.00  0.00    -0.370 OA
ATOM     10  C   UNL     1      -2.615   4.152  24.195  0.00  0.00    +0.170 C 
ATOM     11  C   UNL     1      -1.806   2.873  24.299  0.00  0.00    +0.179 C 
ATOM     12  C   UNL     1      -3.786   3.915  25.120  0.00  0.00    +0.133 C 
ATOM     13  C   UNL     1      -0.385   3.380  24.240  0.00  0.00    +0.176 C 
ATOM     14  C   UNL     1      -3.176   3.030  26.193  0.00  0.00    +0.183 C 
ATOM     15  C   UNL     1      -0.481   4.687  24.997  0.00  0.00    +0.194 C 
ENDROOT
BRANCH  12   8
ATOM      8  N   UNL     1      -4.864   3.243  24.436  0.00  0.00    -0.182 NA
ATOM     25  H   UNL     1      -5.309   3.744  23.656  0.00  0.00    +0.148 HD
BRANCH   8   1
ATOM      1  S   UNL     1      -5.745   2.029  25.232  0.00  0.00    +0.059 S 
ATOM      5  O   UNL     1      -6.990   1.795  24.525  0.00  0.00    -0.153 OA
ATOM      6  O   UNL     1      -5.756   2.315  26.654  0.00  0.00    -0.153 OA
BRANCH   1  17
ATOM     17  C   UNL     1      -4.711   0.615  24.998  0.00  0.00    +0.105 A 
ATOM     19  C   UNL     1      -4.274   0.302  23.723  0.00  0.00    +0.029 A 
ATOM     20  C   UNL     1      -4.358  -0.153  26.095  0.00  0.00    +0.029 A 
ATOM     21  C   UNL     1      -3.457  -0.814  23.538  0.00  0.00    +0.005 A 
ATOM     22  C   UNL     1      -3.541  -1.269  25.909  0.00  0.00    +0.005 A 
ATOM     23  C   UNL     1      -3.091  -1.599  24.631  0.00  0.00    -0.050 A 
ATOM     24  C   UNL     1      -2.218  -2.792  24.433  0.00  0.00    +0.044 C 
ENDBRANCH   1  17
ENDBRANCH   8   1
ENDBRANCH  12   8
BRANCH  13   4
ATOM      4  O   UNL     1       0.551   2.500  24.818  0.00  0.00    -0.362 OA
BRANCH   4  16
ATOM     16  C   UNL     1       1.048   1.555  23.873  0.00  0.00    +0.255 C 
BRANCH  16  18
ATOM      7  O   UNL     1       0.234  -0.610  23.172  0.00  0.00    -0.274 OA
ATOM      9  N   UNL     1      -0.182   0.091  25.324  0.00  0.00    -0.327 N 
ATOM     18  C   UNL     1       0.336   0.236  24.056  0.00  0.00    +0.236 C 
ATOM     26  H   UNL     1      -0.687  -0.748  25.589  0.00  0.00    +0.145 HD
ATOM     27  H   UNL     1      -0.083   0.807  26.036  0.00  0.00    +0.145 HD
ENDBRANCH  16  18
ENDBRANCH   4  16
ENDBRANCH  13   4
TORSDOF 6
ENDMDL
MODEL 5
REMARK VINA RESULT:      -4.7      1.862      3.988
REMARK  Name = 11883286
REMARK  7 active torsions:
REMARK  status: ('A' for Active; 'I' for Inactive)
REMARK    1  A    between atoms: S_1  and  N_8
REMARK    2  A    between atoms: S_1  and  C_17
REMARK    3  A    between atoms: O_4  and  C_13
REMARK    4  A    between atoms: O_4  and  C_16
REMARK    5  A    between atoms: N_8  and  C_12
REMARK    6  A    between atoms: C_16  and  C_18
REMARK    7  A    between atoms: C_23  and  C_24
REMARK                            x       y       z     vdW  Elec       q    Type
REMARK                         _______ _______ _______ _____ _____    ______ ____
ROOT
ATOM      2  O   UNL     1      -1.321   2.867  25.232  0.00  0.00    -0.370 OA
ATOM      3  O   UNL     1      -2.760   2.344  22.576  0.00  0.00    -0.370 OA
ATOM     10  C   UNL     1      -3.129   2.044  23.939  0.00  0.00    +0.170 C 
ATOM     11  C   UNL     1      -1.854   1.661  24.664  0.00  0.00    +0.179 C 
ATOM     12  C   UNL     1      -3.582   3.302  24.642  0.00  0.00    +0.133 C 
ATOM     13  C   UNL     1      -0.986   1.137  23.545  0.00  0.00    +0.176 C 
ATOM     14  C   UNL     1      -2.263   3.935  25.051  0.00  0.00    +0.183 C 
ATOM     15  C   UNL     1      -1.369   2.042  22.394  0.00  0.00    +0.194 C 
ENDROOT
BRANCH  12   8
ATOM      8  N   UNL     1      -4.395   2.993  25.793  0.00  0.00    -0.182 NA
ATOM     25  H   UNL     1      -3.973   3.144  26.718  0.00  0.00    +0.148 HD
BRANCH   8   1
ATOM      1  S   UNL     1      -5.676   1.888  25.651  0.00  0.00    +0.059 S 
ATOM      5  O   UNL     1      -6.466   2.213  24.479  0.00  0.00    -0.153 OA
ATOM      6  O   UNL     1      -6.315   1.745  26.946  0.00  0.00    -0.153 OA
BRANCH   1  17
ATOM     17  C   UNL     1      -4.820   0.376  25.330  0.00  0.00    +0.105 A 
ATOM     19  C   UNL     1      -4.001  -0.158  26.309  0.00  0.00    +0.029 A 
ATOM     20  C   UNL     1      -4.984  -0.246  24.103  0.00  0.00    +0.029 A 
ATOM     21  C   UNL     1      -3.325  -1.352  26.056  0.00  0.00    +0.005 A 
ATOM     22  C   UNL     1      -4.306  -1.440  23.850  0.00  0.00    +0.005 A 
ATOM     23  C   UNL     1      -3.478  -1.992  24.826  0.00  0.00    -0.050 A 
ATOM     24  C   UNL     1      -2.754  -3.268  24.555  0.00  0.00    +0.044 C 
ENDBRANCH   1  17
ENDBRANCH   8   1
ENDBRANCH  12   8
BRANCH  13   4
ATOM      4  O   UNL     1       0.393   1.194  23.828  0.00  0.00    -0.362 OA
BRANCH   4  16
ATOM     16  C   UNL     1       1.047  -0.041  23.544  0.00  0.00    +0.255 C 
BRANCH  16  18
ATOM      7  O   UNL     1       1.942  -0.279  21.311  0.00  0.00    -0.274 OA
ATOM      9  N   UNL     1       3.144   0.913  22.869  0.00  0.00    -0.327 N 
ATOM     18  C   UNL     1       2.065   0.167  22.448  0.00  0.00    +0.236 C 
ATOM     26  H   UNL     1       3.907   1.132  22.237  0.00  0.00    +0.145 HD
ATOM     27  H   UNL     1       3.221   1.270  23.817  0.00  0.00    +0.145 HD
ENDBRANCH  16  18
ENDBRANCH   4  16
ENDBRANCH  13   4
TORSDOF 6
ENDMDL
MODEL 6
REMARK VINA RESULT:      -4.5     16.400     19.275
REMARK  Name = 11883286
REMARK  7 active torsions:
REMARK  status: ('A' for Active; 'I' for Inactive)
REMARK    1  A    between atoms: S_1  and  N_8
REMARK    2  A    between atoms: S_1  and  C_17
REMARK    3  A    between atoms: O_4  and  C_13
REMARK    4  A    between atoms: O_4  and  C_16
REMARK    5  A    between atoms: N_8  and  C_12
REMARK    6  A    between atoms: C_16  and  C_18
REMARK    7  A    between atoms: C_23  and  C_24
REMARK                            x       y       z     vdW  Elec       q    Type
REMARK                         _______ _______ _______ _____ _____    ______ ____
ROOT
ATOM      2  O   UNL     1      11.706  -6.176  32.555  0.00  0.00    -0.370 OA
ATOM      3  O   UNL     1      12.561  -9.075  32.044  0.00  0.00    -0.370 OA
ATOM     10  C   UNL     1      12.640  -7.895  31.217  0.00  0.00    +0.170 C 
ATOM     11  C   UNL     1      11.389  -7.084  31.488  0.00  0.00    +0.179 C 
ATOM     12  C   UNL     1      13.762  -7.002  31.694  0.00  0.00    +0.133 C 
ATOM     13  C   UNL     1      10.403  -8.140  31.927  0.00  0.00    +0.176 C 
ATOM     14  C   UNL     1      13.110  -6.253  32.844  0.00  0.00    +0.183 C 
ATOM     15  C   UNL     1      11.285  -9.097  32.700  0.00  0.00    +0.194 C 
ENDROOT
BRANCH  12   8
ATOM      8  N   UNL     1      14.188  -6.098  30.654  0.00  0.00    -0.182 NA
ATOM     25  H   UNL     1      13.499  -5.859  29.930  0.00  0.00    +0.148 HD
BRANCH   8   1
ATOM      1  S   UNL     1      15.840  -5.949  30.287  0.00  0.00    +0.059 S 
ATOM      5  O   UNL     1      16.028  -6.067  28.854  0.00  0.00    -0.153 OA
ATOM      6  O   UNL     1      16.597  -6.789  31.195  0.00  0.00    -0.153 OA
BRANCH   1  17
ATOM     17  C   UNL     1      16.164  -4.273  30.744  0.00  0.00    +0.105 A 
ATOM     19  C   UNL     1      16.747  -3.422  29.821  0.00  0.00    +0.029 A 
ATOM     20  C   UNL     1      15.829  -3.842  32.017  0.00  0.00    +0.029 A 
ATOM     21  C   UNL     1      17.003  -2.099  30.180  0.00  0.00    +0.005 A 
ATOM     22  C   UNL     1      16.086  -2.518  32.376  0.00  0.00    +0.005 A 
ATOM     23  C   UNL     1      16.672  -1.648  31.458  0.00  0.00    -0.050 A 
ATOM     24  C   UNL     1      16.947  -0.233  31.843  0.00  0.00    +0.044 C 
ENDBRANCH   1  17
ENDBRANCH   8   1
ENDBRANCH  12   8
BRANCH  13   4
ATOM      4  O   UNL     1       9.350  -7.635  32.716  0.00  0.00    -0.362 OA
BRANCH   4  16
ATOM     16  C   UNL     1       8.200  -8.477  32.671  0.00  0.00    +0.255 C 
BRANCH  16  18
ATOM      7  O   UNL     1       6.583  -6.690  32.858  0.00  0.00    -0.274 OA
ATOM      9  N   UNL     1       6.426  -8.150  31.087  0.00  0.00    -0.327 N 
ATOM     18  C   UNL     1       6.999  -7.668  32.243  0.00  0.00    +0.236 C 
ATOM     26  H   UNL     1       5.610  -7.704  30.682  0.00  0.00    +0.145 HD
ATOM     27  H   UNL     1       6.791  -8.962  30.598  0.00  0.00    +0.145 HD
ENDBRANCH  16  18
ENDBRANCH   4  16
ENDBRANCH  13   4
TORSDOF 6
ENDMDL
MODEL 7
REMARK VINA RESULT:      -4.4     16.193     19.363
REMARK  Name = 11883286
REMARK  7 active torsions:
REMARK  status: ('A' for Active; 'I' for Inactive)
REMARK    1  A    between atoms: S_1  and  N_8
REMARK    2  A    between atoms: S_1  and  C_17
REMARK    3  A    between atoms: O_4  and  C_13
REMARK    4  A    between atoms: O_4  and  C_16
REMARK    5  A    between atoms: N_8  and  C_12
REMARK    6  A    between atoms: C_16  and  C_18
REMARK    7  A    between atoms: C_23  and  C_24
REMARK                            x       y       z     vdW  Elec       q    Type
REMARK                         _______ _______ _______ _____ _____    ______ ____
ROOT
ATOM      2  O   UNL     1      11.362  -6.219  32.476  0.00  0.00    -0.370 OA
ATOM      3  O   UNL     1      12.585  -9.010  32.136  0.00  0.00    -0.370 OA
ATOM     10  C   UNL     1      12.593  -7.852  31.275  0.00  0.00    +0.170 C 
ATOM     11  C   UNL     1      11.238  -7.187  31.422  0.00  0.00    +0.179 C 
ATOM     12  C   UNL     1      13.562  -6.819  31.804  0.00  0.00    +0.133 C 
ATOM     13  C   UNL     1      10.350  -8.340  31.823  0.00  0.00    +0.176 C 
ATOM     14  C   UNL     1      12.739  -6.122  32.873  0.00  0.00    +0.183 C 
ATOM     15  C   UNL     1      11.272  -9.165  32.694  0.00  0.00    +0.194 C 
ENDROOT
BRANCH  12   8
ATOM      8  N   UNL     1      13.962  -5.900  30.767  0.00  0.00    -0.182 NA
ATOM     25  H   UNL     1      13.373  -5.857  29.926  0.00  0.00    +0.148 HD
BRANCH   8   1
ATOM      1  S   UNL     1      15.584  -5.409  30.651  0.00  0.00    +0.059 S 
ATOM      5  O   UNL     1      16.393  -6.205  31.554  0.00  0.00    -0.153 OA
ATOM      6  O   UNL     1      15.639  -3.961  30.706  0.00  0.00    -0.153 OA
BRANCH   1  17
ATOM     17  C   UNL     1      15.990  -5.878  28.997  0.00  0.00    +0.105 A 
ATOM     19  C   UNL     1      17.084  -5.298  28.379  0.00  0.00    +0.029 A 
ATOM     20  C   UNL     1      15.206  -6.819  28.350  0.00  0.00    +0.029 A 
ATOM     21  C   UNL     1      17.405  -5.669  27.074  0.00  0.00    +0.005 A 
ATOM     22  C   UNL     1      15.528  -7.188  27.043  0.00  0.00    +0.005 A 
ATOM     23  C   UNL     1      16.626  -6.614  26.406  0.00  0.00    -0.050 A 
ATOM     24  C   UNL     1      16.970  -7.009  25.009  0.00  0.00    +0.044 C 
ENDBRANCH   1  17
ENDBRANCH   8   1
ENDBRANCH  12   8
BRANCH  13   4
ATOM      4  O   UNL     1       9.186  -7.943  32.510  0.00  0.00    -0.362 OA
BRANCH   4  16
ATOM     16  C   UNL     1       8.138  -8.901  32.383  0.00  0.00    +0.255 C 
BRANCH  16  18
ATOM      7  O   UNL     1       6.771  -8.150  30.536  0.00  0.00    -0.274 OA
ATOM      9  N   UNL     1       6.036  -7.781  32.685  0.00  0.00    -0.327 N 
ATOM     18  C   UNL     1       6.932  -8.249  31.749  0.00  0.00    +0.236 C 
ATOM     26  H   UNL     1       5.178  -7.320  32.402  0.00  0.00    +0.145 HD
ATOM     27  H   UNL     1       6.194  -7.876  33.683  0.00  0.00    +0.145 HD
ENDBRANCH  16  18
ENDBRANCH   4  16
ENDBRANCH  13   4
TORSDOF 6
ENDMDL
MODEL 8
REMARK VINA RESULT:      -4.4      2.244      4.905
REMARK  Name = 11883286
REMARK  7 active torsions:
REMARK  status: ('A' for Active; 'I' for Inactive)
REMARK    1  A    between atoms: S_1  and  N_8
REMARK    2  A    between atoms: S_1  and  C_17
REMARK    3  A    between atoms: O_4  and  C_13
REMARK    4  A    between atoms: O_4  and  C_16
REMARK    5  A    between atoms: N_8  and  C_12
REMARK    6  A    between atoms: C_16  and  C_18
REMARK    7  A    between atoms: C_23  and  C_24
REMARK                            x       y       z     vdW  Elec       q    Type
REMARK                         _______ _______ _______ _____ _____    ______ ____
ROOT
ATOM      2  O   UNL     1      -2.534  -0.228  26.106  0.00  0.00    -0.370 OA
ATOM      3  O   UNL     1      -3.034  -2.285  23.890  0.00  0.00    -0.370 OA
ATOM     10  C   UNL     1      -2.019  -1.272  24.041  0.00  0.00    +0.170 C 
ATOM     11  C   UNL     1      -2.687  -0.074  24.686  0.00  0.00    +0.179 C 
ATOM     12  C   UNL     1      -0.997  -1.711  25.065  0.00  0.00    +0.133 C 
ATOM     13  C   UNL     1      -4.126  -0.232  24.258  0.00  0.00    +0.176 C 
ATOM     14  C   UNL     1      -1.675  -1.346  26.374  0.00  0.00    +0.183 C 
ATOM     15  C   UNL     1      -4.301  -1.735  24.279  0.00  0.00    +0.194 C 
ENDROOT
BRANCH  12   8
ATOM      8  N   UNL     1       0.246  -0.998  24.901  0.00  0.00    -0.182 NA
ATOM     25  H   UNL     1       0.785  -0.795  25.752  0.00  0.00    +0.148 HD
BRANCH   8   1
ATOM      1  S   UNL     1       0.489  -0.026  23.530  0.00  0.00    +0.059 S 
ATOM      5  O   UNL     1      -0.334  -0.515  22.440  0.00  0.00    -0.153 OA
ATOM      6  O   UNL     1       1.914   0.166  23.339  0.00  0.00    -0.153 OA
BRANCH   1  17
ATOM     17  C   UNL     1      -0.173   1.524  24.061  0.00  0.00    +0.105 A 
ATOM     19  C   UNL     1       0.228   2.049  25.277  0.00  0.00    +0.029 A 
ATOM     20  C   UNL     1      -1.081   2.185  23.250  0.00  0.00    +0.029 A 
ATOM     21  C   UNL     1      -0.293   3.273  25.696  0.00  0.00    +0.005 A 
ATOM     22  C   UNL     1      -1.603   3.409  23.670  0.00  0.00    +0.005 A 
ATOM     23  C   UNL     1      -1.209   3.952  24.892  0.00  0.00    -0.050 A 
ATOM     24  C   UNL     1      -1.768   5.260  25.341  0.00  0.00    +0.044 C 
ENDBRANCH   1  17
ENDBRANCH   8   1
ENDBRANCH  12   8
BRANCH  13   4
ATOM      4  O   UNL     1      -5.042   0.420  25.106  0.00  0.00    -0.362 OA
BRANCH   4  16
ATOM     16  C   UNL     1      -5.410   1.704  24.607  0.00  0.00    +0.255 C 
BRANCH  16  18
ATOM      7  O   UNL     1      -4.694   3.714  25.744  0.00  0.00    -0.274 OA
ATOM      9  N   UNL     1      -6.263   2.366  26.751  0.00  0.00    -0.327 N 
ATOM     18  C   UNL     1      -5.398   2.707  25.736  0.00  0.00    +0.236 C 
ATOM     26  H   UNL     1      -6.359   2.950  27.575  0.00  0.00    +0.145 HD
ATOM     27  H   UNL     1      -6.834   1.526  26.719  0.00  0.00    +0.145 HD
ENDBRANCH  16  18
ENDBRANCH   4  16
ENDBRANCH  13   4
TORSDOF 6
ENDMDL
MODEL 9
REMARK VINA RESULT:      -3.6      2.951      6.861
REMARK  Name = 11883286
REMARK  7 active torsions:
REMARK  status: ('A' for Active; 'I' for Inactive)
REMARK    1  A    between atoms: S_1  and  N_8
REMARK    2  A    between atoms: S_1  and  C_17
REMARK    3  A    between atoms: O_4  and  C_13
REMARK    4  A    between atoms: O_4  and  C_16
REMARK    5  A    between atoms: N_8  and  C_12
REMARK    6  A    between atoms: C_16  and  C_18
REMARK    7  A    between atoms: C_23  and  C_24
REMARK                            x       y       z     vdW  Elec       q    Type
REMARK                         _______ _______ _______ _____ _____    ______ ____
ROOT
ATOM      2  O   UNL     1      -2.165   2.629  24.434  0.00  0.00    -0.370 OA
ATOM      3  O   UNL     1      -2.616  -0.232  25.438  0.00  0.00    -0.370 OA
ATOM     10  C   UNL     1      -1.769   0.292  24.394  0.00  0.00    +0.170 C 
ATOM     11  C   UNL     1      -2.532   1.427  23.739  0.00  0.00    +0.179 C 
ATOM     12  C   UNL     1      -0.560   0.969  24.997  0.00  0.00    +0.133 C 
ATOM     13  C   UNL     1      -3.970   1.047  23.998  0.00  0.00    +0.176 C 
ATOM     14  C   UNL     1      -1.105   2.340  25.358  0.00  0.00    +0.183 C 
ATOM     15  C   UNL     1      -3.891   0.422  25.374  0.00  0.00    +0.194 C 
ENDROOT
BRANCH  12   8
ATOM      8  N   UNL     1       0.515   1.066  24.041  0.00  0.00    -0.182 NA
ATOM     25  H   UNL     1       0.727   2.000  23.667  0.00  0.00    +0.148 HD
BRANCH   8   1
ATOM      1  S   UNL     1       0.965  -0.296  23.132  0.00  0.00    +0.059 S 
ATOM      5  O   UNL     1       0.594  -0.094  21.745  0.00  0.00    -0.153 OA
ATOM      6  O   UNL     1       0.537  -1.490  23.836  0.00  0.00    -0.153 OA
BRANCH   1  17
ATOM     17  C   UNL     1       2.728  -0.239  23.239  0.00  0.00    +0.105 A 
ATOM     19  C   UNL     1       3.411  -1.337  23.734  0.00  0.00    +0.029 A 
ATOM     20  C   UNL     1       3.394   0.902  22.824  0.00  0.00    +0.029 A 
ATOM     21  C   UNL     1       4.803  -1.292  23.818  0.00  0.00    +0.005 A 
ATOM     22  C   UNL     1       4.786   0.946  22.909  0.00  0.00    +0.005 A 
ATOM     23  C   UNL     1       5.490  -0.150  23.405  0.00  0.00    -0.050 A 
ATOM     24  C   UNL     1       6.978  -0.103  23.496  0.00  0.00    +0.044 C 
ENDBRANCH   1  17
ENDBRANCH   8   1
ENDBRANCH  12   8
BRANCH  13   4
ATOM      4  O   UNL     1      -4.857   2.141  23.962  0.00  0.00    -0.362 OA
BRANCH   4  16
ATOM     16  C   UNL     1      -5.539   2.315  25.202  0.00  0.00    +0.255 C 
BRANCH  16  18
ATOM      7  O   UNL     1      -6.237   4.566  25.741  0.00  0.00    -0.274 OA
ATOM      9  N   UNL     1      -4.040   3.971  26.081  0.00  0.00    -0.327 N 
ATOM     18  C   UNL     1      -5.340   3.729  25.693  0.00  0.00    +0.236 C 
ATOM     26  H   UNL     1      -3.761   4.881  26.434  0.00  0.00    +0.145 HD
ATOM     27  H   UNL     1      -3.317   3.261  26.031  0.00  0.00    +0.145 HD
ENDBRANCH  16  18
ENDBRANCH   4  16
ENDBRANCH  13   4
TORSDOF 6
ENDMDL
MODEL 10
REMARK VINA RESULT:      -3.5      2.156      4.263
REMARK  Name = 11883286
REMARK  7 active torsions:
REMARK  status: ('A' for Active; 'I' for Inactive)
REMARK    1  A    between atoms: S_1  and  N_8
REMARK    2  A    between atoms: S_1  and  C_17
REMARK    3  A    between atoms: O_4  and  C_13
REMARK    4  A    between atoms: O_4  and  C_16
REMARK    5  A    between atoms: N_8  and  C_12
REMARK    6  A    between atoms: C_16  and  C_18
REMARK    7  A    between atoms: C_23  and  C_24
REMARK                            x       y       z     vdW  Elec       q    Type
REMARK                         _______ _______ _______ _____ _____    ______ ____
ROOT
ATOM      2  O   UNL     1      -0.793   1.723  26.113  0.00  0.00    -0.370 OA
ATOM      3  O   UNL     1      -0.234   3.736  23.870  0.00  0.00    -0.370 OA
ATOM     10  C   UNL     1      -1.471   3.241  24.424  0.00  0.00    +0.170 C 
ATOM     11  C   UNL     1      -1.251   1.778  24.753  0.00  0.00    +0.179 C 
ATOM     12  C   UNL     1      -1.729   3.880  25.769  0.00  0.00    +0.133 C 
ATOM     13  C   UNL     1      -0.165   1.385  23.780  0.00  0.00    +0.176 C 
ATOM     14  C   UNL     1      -0.877   3.031  26.697  0.00  0.00    +0.183 C 
ATOM     15  C   UNL     1       0.679   2.639  23.720  0.00  0.00    +0.194 C 
ENDROOT
BRANCH  12   8
ATOM      8  N   UNL     1      -3.125   3.807  26.123  0.00  0.00    -0.182 NA
ATOM     25  H   UNL     1      -3.350   3.526  27.086  0.00  0.00    +0.148 HD
BRANCH   8   1
ATOM      1  S   UNL     1      -4.294   3.575  24.913  0.00  0.00    +0.059 S 
ATOM      5  O   UNL     1      -3.863   4.234  23.694  0.00  0.00    -0.153 OA
ATOM      6  O   UNL     1      -5.604   3.854  25.469  0.00  0.00    -0.153 OA
BRANCH   1  17
ATOM     17  C   UNL     1      -4.206   1.830  24.650  0.00  0.00    +0.105 A 
ATOM     19  C   UNL     1      -4.564   0.973  25.677  0.00  0.00    +0.029 A 
ATOM     20  C   UNL     1      -3.781   1.352  23.422  0.00  0.00    +0.029 A 
ATOM     21  C   UNL     1      -4.495  -0.404  25.470  0.00  0.00    +0.005 A 
ATOM     22  C   UNL     1      -3.711  -0.027  23.216  0.00  0.00    +0.005 A 
ATOM     23  C   UNL     1      -4.068  -0.904  24.239  0.00  0.00    -0.050 A 
ATOM     24  C   UNL     1      -3.994  -2.377  24.018  0.00  0.00    +0.044 C 
ENDBRANCH   1  17
ENDBRANCH   8   1
ENDBRANCH  12   8
BRANCH  13   4
ATOM      4  O   UNL     1       0.581   0.263  24.193  0.00  0.00    -0.362 OA
BRANCH   4  16
ATOM     16  C   UNL     1      -0.148  -0.952  24.030  0.00  0.00    +0.255 C 
BRANCH  16  18
ATOM      7  O   UNL     1       0.400  -2.682  25.626  0.00  0.00    -0.274 OA
ATOM      9  N   UNL     1      -1.114  -1.057  26.225  0.00  0.00    -0.327 N 
ATOM     18  C   UNL     1      -0.238  -1.669  25.356  0.00  0.00    +0.236 C 
ATOM     26  H   UNL     1      -1.274  -1.431  27.154  0.00  0.00    +0.145 HD
ATOM     27  H   UNL     1      -1.630  -0.219  25.976  0.00  0.00    +0.145 HD
ENDBRANCH  16  18
ENDBRANCH   4  16
ENDBRANCH  13   4
TORSDOF 6
ENDMDL
