MODEL 1
REMARK VINA RESULT:      -3.2      0.000      0.000
REMARK  Name = 71693197
REMARK  15 active torsions:
REMARK  status: ('A' for Active; 'I' for Inactive)
REMARK    1  A    between atoms: O_2  and  C_28
REMARK    2  A    between atoms: O_2  and  C_32
REMARK    3  A    between atoms: O_3  and  C_31
REMARK    4  A    between atoms: N_5  and  C_15
REMARK    5  A    between atoms: C_8  and  C_12
REMARK    6  A    between atoms: C_9  and  C_15
REMARK    7  A    between atoms: C_11  and  C_16
REMARK    8  A    between atoms: C_12  and  C_17
REMARK    9  A    between atoms: C_12  and  C_18
REMARK   10  A    between atoms: C_13  and  C_19
REMARK   11  A    between atoms: C_16  and  C_20
REMARK   12  A    between atoms: C_21  and  C_24
REMARK   13  A    between atoms: C_24  and  C_26
REMARK   14  A    between atoms: C_26  and  C_30
REMARK   15  A    between atoms: C_30  and  C_31
REMARK                            x       y       z     vdW  Elec       q    Type
REMARK                         _______ _______ _______ _____ _____    ______ ____
ROOT
ATOM      8  C   UNL     1      -2.680   2.545  23.683  0.00  0.00    +0.000 C 
ATOM      9  C   UNL     1      -1.500   3.043  24.556  0.00  0.00    +0.032 C 
ATOM     10  C   UNL     1      -3.822   3.572  23.691  0.00  0.00    +0.012 C 
ATOM     11  C   UNL     1      -4.349   3.849  25.112  0.00  0.00    +0.022 C 
ATOM     13  C   UNL     1      -3.220   4.086  26.094  0.00  0.00    -0.073 C 
ATOM     14  C   UNL     1      -1.952   3.732  25.823  0.00  0.00    -0.022 C 
ATOM     19  C   UNL     1      -3.576   4.783  27.378  0.00  0.00    +0.039 C 
ENDROOT
BRANCH   8  12
ATOM     12  C   UNL     1      -2.242   2.265  22.243  0.00  0.00    -0.013 C 
ATOM     17  C   UNL     1      -2.183   0.762  21.987  0.00  0.00    +0.007 C 
ATOM     18  C   UNL     1      -3.189   2.943  21.258  0.00  0.00    +0.007 C 
ENDBRANCH   8  12
BRANCH   9  15
ATOM     15  C   UNL     1      -0.550   1.893  24.911  0.00  0.00    +0.112 C 
BRANCH  15   5
ATOM      1  O   UNL     1       0.832  -0.067  23.334  0.00  0.00    -0.276 OA
ATOM      5  N   UNL     1       0.711   2.058  24.262  0.00  0.00    -0.315 N 
ATOM     21  C   UNL     1       1.313   1.048  23.511  0.00  0.00    +0.213 C 
ATOM     33  H   UNL     1       1.156   2.971  24.300  0.00  0.00    +0.149 HD
BRANCH  21  24
ATOM     24  C   UNL     1       2.661   1.474  22.954  0.00  0.00    +0.096 C 
BRANCH  24  26
ATOM     26  C   UNL     1       3.480   0.320  22.377  0.00  0.00    +0.020 C 
BRANCH  26  30
ATOM     30  C   UNL     1       4.911   0.294  22.920  0.00  0.00    +0.121 C 
BRANCH  30  31
ATOM      4  O   UNL     1       5.927  -0.671  24.910  0.00  0.00    -0.251 OA
ATOM     31  C   UNL     1       5.069  -0.710  24.039  0.00  0.00    +0.305 C 
BRANCH  31   3
ATOM      3  O   UNL     1       4.126  -1.684  23.969  0.00  0.00    -0.481 OA
ATOM     35  H   UNL     1       4.511  -2.550  23.715  0.00  0.00    +0.295 HD
ENDBRANCH  31   3
ENDBRANCH  30  31
ENDBRANCH  26  30
ENDBRANCH  24  26
ENDBRANCH  21  24
ENDBRANCH  15   5
ENDBRANCH   9  15
BRANCH  11  16
ATOM     16  C   UNL     1      -5.265   2.717  25.591  0.00  0.00    +0.082 C 
BRANCH  16  20
ATOM      6  N   UNL     1      -3.492   0.965  25.805  0.00  0.00    -0.342 N 
ATOM      7  N   UNL     1      -5.206   0.454  24.487  0.00  0.00    -0.232 NA
ATOM     20  C   UNL     1      -4.683   1.369  25.272  0.00  0.00    +0.109 A 
ATOM     22  C   UNL     1      -3.228  -0.295  25.333  0.00  0.00    +0.070 A 
ATOM     23  C   UNL     1      -4.313  -0.592  24.513  0.00  0.00    +0.089 A 
ATOM     25  C   UNL     1      -2.166  -1.175  25.547  0.00  0.00    +0.073 A 
ATOM     27  C   UNL     1      -4.357  -1.834  23.858  0.00  0.00    +0.033 A 
ATOM     28  C   UNL     1      -2.227  -2.407  24.887  0.00  0.00    +0.122 A 
ATOM     29  C   UNL     1      -3.303  -2.733  24.058  0.00  0.00    +0.048 A 
ATOM     34  H   UNL     1      -2.905   1.499  26.433  0.00  0.00    +0.167 HD
BRANCH  28   2
ATOM      2  O   UNL     1      -1.216  -3.306  25.059  0.00  0.00    -0.495 OA
ATOM     32  C   UNL     1       0.062  -2.783  25.413  0.00  0.00    +0.277 C 
ENDBRANCH  28   2
ENDBRANCH  16  20
ENDBRANCH  11  16
TORSDOF 11
ENDMDL
MODEL 2
REMARK VINA RESULT:      -1.8      1.827      4.985
REMARK  Name = 71693197
REMARK  15 active torsions:
REMARK  status: ('A' for Active; 'I' for Inactive)
REMARK    1  A    between atoms: O_2  and  C_28
REMARK    2  A    between atoms: O_2  and  C_32
REMARK    3  A    between atoms: O_3  and  C_31
REMARK    4  A    between atoms: N_5  and  C_15
REMARK    5  A    between atoms: C_8  and  C_12
REMARK    6  A    between atoms: C_9  and  C_15
REMARK    7  A    between atoms: C_11  and  C_16
REMARK    8  A    between atoms: C_12  and  C_17
REMARK    9  A    between atoms: C_12  and  C_18
REMARK   10  A    between atoms: C_13  and  C_19
REMARK   11  A    between atoms: C_16  and  C_20
REMARK   12  A    between atoms: C_21  and  C_24
REMARK   13  A    between atoms: C_24  and  C_26
REMARK   14  A    between atoms: C_26  and  C_30
REMARK   15  A    between atoms: C_30  and  C_31
REMARK                            x       y       z     vdW  Elec       q    Type
REMARK                         _______ _______ _______ _____ _____    ______ ____
ROOT
ATOM      8  C   UNL     1      -1.765  -0.879  25.060  0.00  0.00    +0.000 C 
ATOM      9  C   UNL     1      -1.242  -2.193  24.428  0.00  0.00    +0.032 C 
ATOM     10  C   UNL     1      -3.080  -1.132  25.813  0.00  0.00    +0.012 C 
ATOM     11  C   UNL     1      -4.178  -1.702  24.895  0.00  0.00    +0.022 C 
ATOM     13  C   UNL     1      -3.660  -2.839  24.037  0.00  0.00    -0.073 C 
ATOM     14  C   UNL     1      -2.345  -3.051  23.851  0.00  0.00    -0.022 C 
ATOM     19  C   UNL     1      -4.689  -3.755  23.434  0.00  0.00    +0.039 C 
ENDROOT
BRANCH   8  12
ATOM     12  C   UNL     1      -0.736  -0.256  26.008  0.00  0.00    -0.013 C 
ATOM     17  C   UNL     1      -0.800   1.267  25.936  0.00  0.00    +0.007 C 
ATOM     18  C   UNL     1      -0.966  -0.739  27.436  0.00  0.00    +0.007 C 
ENDBRANCH   8  12
BRANCH   9  15
ATOM     15  C   UNL     1      -0.197  -1.908  23.343  0.00  0.00    +0.112 C 
BRANCH  15   5
ATOM      1  O   UNL     1       1.421  -0.354  21.553  0.00  0.00    -0.276 OA
ATOM      5  N   UNL     1       0.583  -0.760  23.681  0.00  0.00    -0.315 N 
ATOM     21  C   UNL     1       1.343  -0.061  22.743  0.00  0.00    +0.213 C 
ATOM     33  H   UNL     1       0.530  -0.404  24.631  0.00  0.00    +0.149 HD
BRANCH  21  24
ATOM     24  C   UNL     1       2.098   1.101  23.368  0.00  0.00    +0.096 C 
BRANCH  24  26
ATOM     26  C   UNL     1       3.461   1.362  22.731  0.00  0.00    +0.020 C 
BRANCH  26  30
ATOM     30  C   UNL     1       4.316   0.095  22.643  0.00  0.00    +0.121 C 
BRANCH  30  31
ATOM      4  O   UNL     1       5.627   0.663  24.614  0.00  0.00    -0.251 OA
ATOM     31  C   UNL     1       5.053  -0.176  23.934  0.00  0.00    +0.305 C 
BRANCH  31   3
ATOM      3  O   UNL     1       5.003  -1.492  24.267  0.00  0.00    -0.481 OA
ATOM     35  H   UNL     1       5.470  -2.054  23.612  0.00  0.00    +0.295 HD
ENDBRANCH  31   3
ENDBRANCH  30  31
ENDBRANCH  26  30
ENDBRANCH  24  26
ENDBRANCH  21  24
ENDBRANCH  15   5
ENDBRANCH   9  15
BRANCH  11  16
ATOM     16  C   UNL     1      -4.800  -0.601  24.029  0.00  0.00    +0.082 C 
BRANCH  16  20
ATOM      6  N   UNL     1      -3.294   1.393  23.921  0.00  0.00    -0.342 N 
ATOM      7  N   UNL     1      -4.927   1.492  25.424  0.00  0.00    -0.232 NA
ATOM     20  C   UNL     1      -4.368   0.764  24.484  0.00  0.00    +0.109 A 
ATOM     22  C   UNL     1      -3.149   2.609  24.539  0.00  0.00    +0.070 A 
ATOM     23  C   UNL     1      -4.181   2.647  25.473  0.00  0.00    +0.089 A 
ATOM     25  C   UNL     1      -2.234   3.647  24.367  0.00  0.00    +0.073 A 
ATOM     27  C   UNL     1      -4.322   3.779  26.292  0.00  0.00    +0.033 A 
ATOM     28  C   UNL     1      -2.389   4.767  25.191  0.00  0.00    +0.122 A 
ATOM     29  C   UNL     1      -3.414   4.834  26.137  0.00  0.00    +0.048 A 
ATOM     34  H   UNL     1      -2.705   1.029  23.183  0.00  0.00    +0.167 HD
BRANCH  28   2
ATOM      2  O   UNL     1      -1.522   5.812  25.066  0.00  0.00    -0.495 OA
ATOM     32  C   UNL     1      -0.251   5.533  24.482  0.00  0.00    +0.277 C 
ENDBRANCH  28   2
ENDBRANCH  16  20
ENDBRANCH  11  16
TORSDOF 11
ENDMDL
MODEL 3
REMARK VINA RESULT:      -1.4      2.187      6.132
REMARK  Name = 71693197
REMARK  15 active torsions:
REMARK  status: ('A' for Active; 'I' for Inactive)
REMARK    1  A    between atoms: O_2  and  C_28
REMARK    2  A    between atoms: O_2  and  C_32
REMARK    3  A    between atoms: O_3  and  C_31
REMARK    4  A    between atoms: N_5  and  C_15
REMARK    5  A    between atoms: C_8  and  C_12
REMARK    6  A    between atoms: C_9  and  C_15
REMARK    7  A    between atoms: C_11  and  C_16
REMARK    8  A    between atoms: C_12  and  C_17
REMARK    9  A    between atoms: C_12  and  C_18
REMARK   10  A    between atoms: C_13  and  C_19
REMARK   11  A    between atoms: C_16  and  C_20
REMARK   12  A    between atoms: C_21  and  C_24
REMARK   13  A    between atoms: C_24  and  C_26
REMARK   14  A    between atoms: C_26  and  C_30
REMARK   15  A    between atoms: C_30  and  C_31
REMARK                            x       y       z     vdW  Elec       q    Type
REMARK                         _______ _______ _______ _____ _____    ______ ____
ROOT
ATOM      8  C   UNL     1      -3.169   1.134  23.831  0.00  0.00    +0.000 C 
ATOM      9  C   UNL     1      -4.608   0.638  24.121  0.00  0.00    +0.032 C 
ATOM     10  C   UNL     1      -2.405   0.100  22.991  0.00  0.00    +0.012 C 
ATOM     11  C   UNL     1      -2.317  -1.270  23.690  0.00  0.00    +0.022 C 
ATOM     13  C   UNL     1      -3.659  -1.706  24.243  0.00  0.00    -0.073 C 
ATOM     14  C   UNL     1      -4.674  -0.843  24.416  0.00  0.00    -0.022 C 
ATOM     19  C   UNL     1      -3.821  -3.169  24.551  0.00  0.00    +0.039 C 
ENDROOT
BRANCH   8  12
ATOM     12  C   UNL     1      -3.168   2.488  23.115  0.00  0.00    -0.013 C 
ATOM     17  C   UNL     1      -2.389   2.397  21.807  0.00  0.00    +0.007 C 
ATOM     18  C   UNL     1      -4.597   2.957  22.861  0.00  0.00    +0.007 C 
ENDBRANCH   8  12
BRANCH   9  15
ATOM     15  C   UNL     1      -5.239   1.419  25.280  0.00  0.00    +0.112 C 
BRANCH  15   5
ATOM      1  O   UNL     1      -5.797   4.186  25.802  0.00  0.00    -0.276 OA
ATOM      5  N   UNL     1      -4.326   2.389  25.795  0.00  0.00    -0.315 N 
ATOM     21  C   UNL     1      -4.683   3.718  26.020  0.00  0.00    +0.213 C 
ATOM     33  H   UNL     1      -3.397   2.079  26.065  0.00  0.00    +0.149 HD
BRANCH  21  24
ATOM     24  C   UNL     1      -3.519   4.544  26.542  0.00  0.00    +0.096 C 
BRANCH  24  26
ATOM     26  C   UNL     1      -2.236   4.384  25.728  0.00  0.00    +0.020 C 
BRANCH  26  30
ATOM     30  C   UNL     1      -1.350   3.253  26.255  0.00  0.00    +0.121 C 
BRANCH  30  31
ATOM      4  O   UNL     1       0.019   3.487  24.256  0.00  0.00    -0.251 OA
ATOM     31  C   UNL     1      -0.133   3.039  25.384  0.00  0.00    +0.305 C 
BRANCH  31   3
ATOM      3  O   UNL     1       0.799   2.276  26.012  0.00  0.00    -0.481 OA
ATOM     35  H   UNL     1       0.729   1.330  25.760  0.00  0.00    +0.295 HD
ENDBRANCH  31   3
ENDBRANCH  30  31
ENDBRANCH  26  30
ENDBRANCH  24  26
ENDBRANCH  21  24
ENDBRANCH  15   5
ENDBRANCH   9  15
BRANCH  11  16
ATOM     16  C   UNL     1      -1.247  -1.262  24.787  0.00  0.00    +0.082 C 
BRANCH  16  20
ATOM      6  N   UNL     1       1.204  -1.508  24.351  0.00  0.00    -0.342 N 
ATOM      7  N   UNL     1       0.291   0.411  23.701  0.00  0.00    -0.232 NA
ATOM     20  C   UNL     1       0.068  -0.753  24.268  0.00  0.00    +0.109 A 
ATOM     22  C   UNL     1       2.229  -0.782  23.801  0.00  0.00    +0.070 A 
ATOM     23  C   UNL     1       1.634   0.411  23.402  0.00  0.00    +0.089 A 
ATOM     25  C   UNL     1       3.585  -1.059  23.621  0.00  0.00    +0.073 A 
ATOM     27  C   UNL     1       2.422   1.399  22.789  0.00  0.00    +0.033 A 
ATOM     28  C   UNL     1       4.355  -0.065  23.009  0.00  0.00    +0.122 A 
ATOM     29  C   UNL     1       3.785   1.143  22.599  0.00  0.00    +0.048 A 
ATOM     34  H   UNL     1       1.280  -2.435  24.749  0.00  0.00    +0.167 HD
BRANCH  28   2
ATOM      2  O   UNL     1       5.686  -0.280  22.809  0.00  0.00    -0.495 OA
ATOM     32  C   UNL     1       6.492  -0.477  23.969  0.00  0.00    +0.277 C 
ENDBRANCH  28   2
ENDBRANCH  16  20
ENDBRANCH  11  16
TORSDOF 11
ENDMDL
MODEL 4
REMARK VINA RESULT:      -1.3      2.420      7.022
REMARK  Name = 71693197
REMARK  15 active torsions:
REMARK  status: ('A' for Active; 'I' for Inactive)
REMARK    1  A    between atoms: O_2  and  C_28
REMARK    2  A    between atoms: O_2  and  C_32
REMARK    3  A    between atoms: O_3  and  C_31
REMARK    4  A    between atoms: N_5  and  C_15
REMARK    5  A    between atoms: C_8  and  C_12
REMARK    6  A    between atoms: C_9  and  C_15
REMARK    7  A    between atoms: C_11  and  C_16
REMARK    8  A    between atoms: C_12  and  C_17
REMARK    9  A    between atoms: C_12  and  C_18
REMARK   10  A    between atoms: C_13  and  C_19
REMARK   11  A    between atoms: C_16  and  C_20
REMARK   12  A    between atoms: C_21  and  C_24
REMARK   13  A    between atoms: C_24  and  C_26
REMARK   14  A    between atoms: C_26  and  C_30
REMARK   15  A    between atoms: C_30  and  C_31
REMARK                            x       y       z     vdW  Elec       q    Type
REMARK                         _______ _______ _______ _____ _____    ______ ____
ROOT
ATOM      8  C   UNL     1      -3.355  -1.528  24.289  0.00  0.00    +0.000 C 
ATOM      9  C   UNL     1      -3.884  -0.462  25.280  0.00  0.00    +0.032 C 
ATOM     10  C   UNL     1      -1.946  -1.986  24.695  0.00  0.00    +0.012 C 
ATOM     11  C   UNL     1      -0.942  -0.818  24.738  0.00  0.00    +0.022 C 
ATOM     13  C   UNL     1      -1.503   0.380  25.477  0.00  0.00    -0.073 C 
ATOM     14  C   UNL     1      -2.818   0.515  25.721  0.00  0.00    -0.022 C 
ATOM     19  C   UNL     1      -0.512   1.397  25.968  0.00  0.00    +0.039 C 
ENDROOT
BRANCH   8  12
ATOM     12  C   UNL     1      -4.289  -2.738  24.203  0.00  0.00    -0.013 C 
ATOM     17  C   UNL     1      -4.785  -2.928  22.773  0.00  0.00    +0.007 C 
ATOM     18  C   UNL     1      -3.581  -3.994  24.700  0.00  0.00    +0.007 C 
ENDBRANCH   8  12
BRANCH   9  15
ATOM     15  C   UNL     1      -5.068   0.308  24.685  0.00  0.00    +0.112 C 
BRANCH  15   5
ATOM      1  O   UNL     1      -6.235   2.220  26.480  0.00  0.00    -0.276 OA
ATOM      5  N   UNL     1      -4.821   1.715  24.708  0.00  0.00    -0.315 N 
ATOM     21  C   UNL     1      -5.434   2.575  25.619  0.00  0.00    +0.213 C 
ATOM     33  H   UNL     1      -4.124   2.091  24.072  0.00  0.00    +0.149 HD
BRANCH  21  24
ATOM     24  C   UNL     1      -5.020   4.022  25.409  0.00  0.00    +0.096 C 
BRANCH  24  26
ATOM     26  C   UNL     1      -3.689   4.181  24.675  0.00  0.00    +0.020 C 
BRANCH  26  30
ATOM     30  C   UNL     1      -2.500   4.247  25.636  0.00  0.00    +0.121 C 
BRANCH  30  31
ATOM      4  O   UNL     1      -0.365   4.129  24.471  0.00  0.00    -0.251 OA
ATOM     31  C   UNL     1      -1.263   4.798  24.963  0.00  0.00    +0.305 C 
BRANCH  31   3
ATOM      3  O   UNL     1      -1.262   6.156  24.964  0.00  0.00    -0.481 OA
ATOM     35  H   UNL     1      -0.487   6.523  24.486  0.00  0.00    +0.295 HD
ENDBRANCH  31   3
ENDBRANCH  30  31
ENDBRANCH  26  30
ENDBRANCH  24  26
ENDBRANCH  21  24
ENDBRANCH  15   5
ENDBRANCH   9  15
BRANCH  11  16
ATOM     16  C   UNL     1      -0.488  -0.429  23.327  0.00  0.00    +0.082 C 
BRANCH  16  20
ATOM      6  N   UNL     1       1.867  -1.157  23.752  0.00  0.00    -0.342 N 
ATOM      7  N   UNL     1       1.627   0.823  22.772  0.00  0.00    -0.232 NA
ATOM     20  C   UNL     1       0.999  -0.221  23.267  0.00  0.00    +0.109 A 
ATOM     22  C   UNL     1       3.141  -0.687  23.559  0.00  0.00    +0.070 A 
ATOM     23  C   UNL     1       2.964   0.550  22.945  0.00  0.00    +0.089 A 
ATOM     25  C   UNL     1       4.395  -1.222  23.857  0.00  0.00    +0.073 A 
ATOM     27  C   UNL     1       4.093   1.313  22.603  0.00  0.00    +0.033 A 
ATOM     28  C   UNL     1       5.508  -0.449  23.510  0.00  0.00    +0.122 A 
ATOM     29  C   UNL     1       5.361   0.796  22.894  0.00  0.00    +0.048 A 
ATOM     34  H   UNL     1       1.619  -2.039  24.182  0.00  0.00    +0.167 HD
BRANCH  28   2
ATOM      2  O   UNL     1       6.758  -0.921  23.779  0.00  0.00    -0.495 OA
ATOM     32  C   UNL     1       7.804  -0.522  22.895  0.00  0.00    +0.277 C 
ENDBRANCH  28   2
ENDBRANCH  16  20
ENDBRANCH  11  16
TORSDOF 11
ENDMDL
MODEL 5
REMARK VINA RESULT:      -0.8      1.954      4.808
REMARK  Name = 71693197
REMARK  15 active torsions:
REMARK  status: ('A' for Active; 'I' for Inactive)
REMARK    1  A    between atoms: O_2  and  C_28
REMARK    2  A    between atoms: O_2  and  C_32
REMARK    3  A    between atoms: O_3  and  C_31
REMARK    4  A    between atoms: N_5  and  C_15
REMARK    5  A    between atoms: C_8  and  C_12
REMARK    6  A    between atoms: C_9  and  C_15
REMARK    7  A    between atoms: C_11  and  C_16
REMARK    8  A    between atoms: C_12  and  C_17
REMARK    9  A    between atoms: C_12  and  C_18
REMARK   10  A    between atoms: C_13  and  C_19
REMARK   11  A    between atoms: C_16  and  C_20
REMARK   12  A    between atoms: C_21  and  C_24
REMARK   13  A    between atoms: C_24  and  C_26
REMARK   14  A    between atoms: C_26  and  C_30
REMARK   15  A    between atoms: C_30  and  C_31
REMARK                            x       y       z     vdW  Elec       q    Type
REMARK                         _______ _______ _______ _____ _____    ______ ____
ROOT
ATOM      8  C   UNL     1      -1.525   0.586  25.419  0.00  0.00    +0.000 C 
ATOM      9  C   UNL     1      -0.322   0.005  24.635  0.00  0.00    +0.032 C 
ATOM     10  C   UNL     1      -2.187  -0.506  26.273  0.00  0.00    +0.012 C 
ATOM     11  C   UNL     1      -2.685  -1.690  25.423  0.00  0.00    +0.022 C 
ATOM     13  C   UNL     1      -1.637  -2.150  24.430  0.00  0.00    -0.073 C 
ATOM     14  C   UNL     1      -0.582  -1.385  24.100  0.00  0.00    -0.022 C 
ATOM     19  C   UNL     1      -1.806  -3.530  23.858  0.00  0.00    +0.039 C 
ENDROOT
BRANCH   8  12
ATOM     12  C   UNL     1      -1.109   1.760  26.310  0.00  0.00    -0.013 C 
ATOM     17  C   UNL     1       0.406   1.785  26.484  0.00  0.00    +0.007 C 
ATOM     18  C   UNL     1      -1.607   3.077  25.722  0.00  0.00    +0.007 C 
ENDBRANCH   8  12
BRANCH   9  15
ATOM     15  C   UNL     1       0.084   0.928  23.481  0.00  0.00    +0.112 C 
BRANCH  15   5
ATOM      1  O   UNL     1       1.245  -0.535  21.301  0.00  0.00    -0.276 OA
ATOM      5  N   UNL     1       1.477   0.795  23.191  0.00  0.00    -0.315 N 
ATOM     21  C   UNL     1       1.956   0.062  22.105  0.00  0.00    +0.213 C 
ATOM     33  H   UNL     1       2.139   1.308  23.766  0.00  0.00    +0.149 HD
BRANCH  21  24
ATOM     24  C   UNL     1       3.474   0.058  22.042  0.00  0.00    +0.096 C 
BRANCH  24  26
ATOM     26  C   UNL     1       4.122   1.254  22.736  0.00  0.00    +0.020 C 
BRANCH  26  30
ATOM     30  C   UNL     1       5.009   0.835  23.911  0.00  0.00    +0.121 C 
BRANCH  30  31
ATOM      4  O   UNL     1       6.703  -0.643  22.976  0.00  0.00    -0.251 OA
ATOM     31  C   UNL     1       5.696  -0.486  23.654  0.00  0.00    +0.305 C 
BRANCH  31   3
ATOM      3  O   UNL     1       5.056  -1.508  24.278  0.00  0.00    -0.481 OA
ATOM     35  H   UNL     1       4.133  -1.612  23.960  0.00  0.00    +0.295 HD
ENDBRANCH  31   3
ENDBRANCH  30  31
ENDBRANCH  26  30
ENDBRANCH  24  26
ENDBRANCH  21  24
ENDBRANCH  15   5
ENDBRANCH   9  15
BRANCH  11  16
ATOM     16  C   UNL     1      -3.999  -1.346  24.713  0.00  0.00    +0.082 C 
BRANCH  16  20
ATOM      6  N   UNL     1      -3.685   0.943  23.756  0.00  0.00    -0.342 N 
ATOM      7  N   UNL     1      -4.985   0.815  25.552  0.00  0.00    -0.232 NA
ATOM     20  C   UNL     1      -4.246   0.136  24.704  0.00  0.00    +0.109 A 
ATOM     22  C   UNL     1      -4.089   2.230  24.007  0.00  0.00    +0.070 A 
ATOM     23  C   UNL     1      -4.900   2.123  25.134  0.00  0.00    +0.089 A 
ATOM     25  C   UNL     1      -3.824   3.440  23.366  0.00  0.00    +0.073 A 
ATOM     27  C   UNL     1      -5.489   3.282  25.666  0.00  0.00    +0.033 A 
ATOM     28  C   UNL     1      -4.418   4.584  23.910  0.00  0.00    +0.122 A 
ATOM     29  C   UNL     1      -5.236   4.508  25.039  0.00  0.00    +0.048 A 
ATOM     34  H   UNL     1      -3.076   0.649  23.002  0.00  0.00    +0.167 HD
BRANCH  28   2
ATOM      2  O   UNL     1      -4.194   5.794  23.324  0.00  0.00    -0.495 OA
ATOM     32  C   UNL     1      -2.944   6.424  23.599  0.00  0.00    +0.277 C 
ENDBRANCH  28   2
ENDBRANCH  16  20
ENDBRANCH  11  16
TORSDOF 11
ENDMDL
MODEL 6
REMARK VINA RESULT:      -0.6      1.346      2.017
REMARK  Name = 71693197
REMARK  15 active torsions:
REMARK  status: ('A' for Active; 'I' for Inactive)
REMARK    1  A    between atoms: O_2  and  C_28
REMARK    2  A    between atoms: O_2  and  C_32
REMARK    3  A    between atoms: O_3  and  C_31
REMARK    4  A    between atoms: N_5  and  C_15
REMARK    5  A    between atoms: C_8  and  C_12
REMARK    6  A    between atoms: C_9  and  C_15
REMARK    7  A    between atoms: C_11  and  C_16
REMARK    8  A    between atoms: C_12  and  C_17
REMARK    9  A    between atoms: C_12  and  C_18
REMARK   10  A    between atoms: C_13  and  C_19
REMARK   11  A    between atoms: C_16  and  C_20
REMARK   12  A    between atoms: C_21  and  C_24
REMARK   13  A    between atoms: C_24  and  C_26
REMARK   14  A    between atoms: C_26  and  C_30
REMARK   15  A    between atoms: C_30  and  C_31
REMARK                            x       y       z     vdW  Elec       q    Type
REMARK                         _______ _______ _______ _____ _____    ______ ____
ROOT
ATOM      8  C   UNL     1      -1.589   4.060  24.650  0.00  0.00    +0.000 C 
ATOM      9  C   UNL     1      -1.659   3.537  26.107  0.00  0.00    +0.032 C 
ATOM     10  C   UNL     1      -2.875   4.819  24.291  0.00  0.00    +0.012 C 
ATOM     11  C   UNL     1      -4.132   3.939  24.433  0.00  0.00    +0.022 C 
ATOM     13  C   UNL     1      -4.139   3.176  25.743  0.00  0.00    -0.073 C 
ATOM     14  C   UNL     1      -3.028   3.018  26.483  0.00  0.00    -0.022 C 
ATOM     19  C   UNL     1      -5.465   2.638  26.205  0.00  0.00    +0.039 C 
ENDROOT
BRANCH   8  12
ATOM     12  C   UNL     1      -0.374   4.965  24.430  0.00  0.00    -0.013 C 
ATOM     17  C   UNL     1       0.085   4.895  22.977  0.00  0.00    +0.007 C 
ATOM     18  C   UNL     1      -0.701   6.402  24.824  0.00  0.00    +0.007 C 
ENDBRANCH   8  12
BRANCH   9  15
ATOM     15  C   UNL     1      -0.614   2.443  26.352  0.00  0.00    +0.112 C 
BRANCH  15   5
ATOM      1  O   UNL     1       0.133   0.267  24.635  0.00  0.00    -0.276 OA
ATOM      5  N   UNL     1       0.392   2.465  25.338  0.00  0.00    -0.315 N 
ATOM     21  C   UNL     1       0.690   1.357  24.545  0.00  0.00    +0.213 C 
ATOM     33  H   UNL     1       0.864   3.345  25.148  0.00  0.00    +0.149 HD
BRANCH  21  24
ATOM     24  C   UNL     1       1.818   1.641  23.565  0.00  0.00    +0.096 C 
BRANCH  24  26
ATOM     26  C   UNL     1       2.311   0.401  22.820  0.00  0.00    +0.020 C 
BRANCH  26  30
ATOM     30  C   UNL     1       3.793   0.495  22.453  0.00  0.00    +0.121 C 
BRANCH  30  31
ATOM      4  O   UNL     1       5.482   0.731  24.191  0.00  0.00    -0.251 OA
ATOM     31  C   UNL     1       4.684   0.031  23.583  0.00  0.00    +0.305 C 
BRANCH  31   3
ATOM      3  O   UNL     1       4.491  -1.285  23.857  0.00  0.00    -0.481 OA
ATOM     35  H   UNL     1       5.236  -1.839  23.538  0.00  0.00    +0.295 HD
ENDBRANCH  31   3
ENDBRANCH  30  31
ENDBRANCH  26  30
ENDBRANCH  24  26
ENDBRANCH  21  24
ENDBRANCH  15   5
ENDBRANCH   9  15
BRANCH  11  16
ATOM     16  C   UNL     1      -4.275   2.984  23.242  0.00  0.00    +0.082 C 
BRANCH  16  20
ATOM      6  N   UNL     1      -2.639   1.146  23.691  0.00  0.00    -0.342 N 
ATOM      7  N   UNL     1      -4.783   0.616  23.935  0.00  0.00    -0.232 NA
ATOM     20  C   UNL     1      -3.935   1.572  23.627  0.00  0.00    +0.109 A 
ATOM     22  C   UNL     1      -2.650  -0.174  24.065  0.00  0.00    +0.070 A 
ATOM     23  C   UNL     1      -4.000  -0.481  24.211  0.00  0.00    +0.089 A 
ATOM     25  C   UNL     1      -1.626  -1.097  24.282  0.00  0.00    +0.073 A 
ATOM     27  C   UNL     1      -4.369  -1.781  24.594  0.00  0.00    +0.033 A 
ATOM     28  C   UNL     1      -2.013  -2.387  24.663  0.00  0.00    +0.122 A 
ATOM     29  C   UNL     1      -3.359  -2.724  24.817  0.00  0.00    +0.048 A 
ATOM     34  H   UNL     1      -1.815   1.700  23.496  0.00  0.00    +0.167 HD
BRANCH  28   2
ATOM      2  O   UNL     1      -1.055  -3.330  24.888  0.00  0.00    -0.495 OA
ATOM     32  C   UNL     1       0.149  -2.894  25.516  0.00  0.00    +0.277 C 
ENDBRANCH  28   2
ENDBRANCH  16  20
ENDBRANCH  11  16
TORSDOF 11
ENDMDL
MODEL 7
REMARK VINA RESULT:      -0.1      2.087      4.409
REMARK  Name = 71693197
REMARK  15 active torsions:
REMARK  status: ('A' for Active; 'I' for Inactive)
REMARK    1  A    between atoms: O_2  and  C_28
REMARK    2  A    between atoms: O_2  and  C_32
REMARK    3  A    between atoms: O_3  and  C_31
REMARK    4  A    between atoms: N_5  and  C_15
REMARK    5  A    between atoms: C_8  and  C_12
REMARK    6  A    between atoms: C_9  and  C_15
REMARK    7  A    between atoms: C_11  and  C_16
REMARK    8  A    between atoms: C_12  and  C_17
REMARK    9  A    between atoms: C_12  and  C_18
REMARK   10  A    between atoms: C_13  and  C_19
REMARK   11  A    between atoms: C_16  and  C_20
REMARK   12  A    between atoms: C_21  and  C_24
REMARK   13  A    between atoms: C_24  and  C_26
REMARK   14  A    between atoms: C_26  and  C_30
REMARK   15  A    between atoms: C_30  and  C_31
REMARK                            x       y       z     vdW  Elec       q    Type
REMARK                         _______ _______ _______ _____ _____    ______ ____
ROOT
ATOM      8  C   UNL     1      -3.388  -0.363  24.887  0.00  0.00    +0.000 C 
ATOM      9  C   UNL     1      -2.207  -0.550  23.901  0.00  0.00    +0.032 C 
ATOM     10  C   UNL     1      -4.635   0.136  24.140  0.00  0.00    +0.012 C 
ATOM     11  C   UNL     1      -4.386   1.474  23.418  0.00  0.00    +0.022 C 
ATOM     13  C   UNL     1      -3.089   1.457  22.634  0.00  0.00    -0.073 C 
ATOM     14  C   UNL     1      -2.134   0.538  22.854  0.00  0.00    -0.022 C 
ATOM     19  C   UNL     1      -2.936   2.496  21.557  0.00  0.00    +0.039 C 
ENDROOT
BRANCH   8  12
ATOM     12  C   UNL     1      -3.715  -1.659  25.634  0.00  0.00    -0.013 C 
ATOM     17  C   UNL     1      -3.439  -2.869  24.747  0.00  0.00    +0.007 C 
ATOM     18  C   UNL     1      -2.913  -1.744  26.928  0.00  0.00    +0.007 C 
ENDBRANCH   8  12
BRANCH   9  15
ATOM     15  C   UNL     1      -0.871  -0.631  24.649  0.00  0.00    +0.112 C 
BRANCH  15   5
ATOM      1  O   UNL     1       0.934   1.499  23.981  0.00  0.00    -0.276 OA
ATOM      5  N   UNL     1       0.221  -0.696  23.730  0.00  0.00    -0.315 N 
ATOM     21  C   UNL     1       1.052   0.392  23.465  0.00  0.00    +0.213 C 
ATOM     33  H   UNL     1       0.435  -1.592  23.301  0.00  0.00    +0.149 HD
BRANCH  21  24
ATOM     24  C   UNL     1       2.115   0.062  22.430  0.00  0.00    +0.096 C 
BRANCH  24  26
ATOM     26  C   UNL     1       3.368   0.931  22.536  0.00  0.00    +0.020 C 
BRANCH  26  30
ATOM     30  C   UNL     1       4.653   0.100  22.535  0.00  0.00    +0.121 C 
BRANCH  30  31
ATOM      4  O   UNL     1       5.599   0.685  24.701  0.00  0.00    -0.251 OA
ATOM     31  C   UNL     1       5.156  -0.161  23.937  0.00  0.00    +0.305 C 
BRANCH  31   3
ATOM      3  O   UNL     1       5.054  -1.476  24.262  0.00  0.00    -0.481 OA
ATOM     35  H   UNL     1       4.120  -1.760  24.356  0.00  0.00    +0.295 HD
ENDBRANCH  31   3
ENDBRANCH  30  31
ENDBRANCH  26  30
ENDBRANCH  24  26
ENDBRANCH  21  24
ENDBRANCH  15   5
ENDBRANCH   9  15
BRANCH  11  16
ATOM     16  C   UNL     1      -4.415   2.647  24.404  0.00  0.00    +0.082 C 
BRANCH  16  20
ATOM      6  N   UNL     1      -2.495   2.141  25.925  0.00  0.00    -0.342 N 
ATOM      7  N   UNL     1      -2.250   3.917  24.612  0.00  0.00    -0.232 NA
ATOM     20  C   UNL     1      -3.048   2.932  24.958  0.00  0.00    +0.109 A 
ATOM     22  C   UNL     1      -1.256   2.649  26.224  0.00  0.00    +0.070 A 
ATOM     23  C   UNL     1      -1.126   3.757  25.391  0.00  0.00    +0.089 A 
ATOM     25  C   UNL     1      -0.268   2.246  27.122  0.00  0.00    +0.073 A 
ATOM     27  C   UNL     1       0.051   4.521  25.445  0.00  0.00    +0.033 A 
ATOM     28  C   UNL     1       0.898   3.018  27.163  0.00  0.00    +0.122 A 
ATOM     29  C   UNL     1       1.057   4.136  26.340  0.00  0.00    +0.048 A 
ATOM     34  H   UNL     1      -2.921   1.327  26.349  0.00  0.00    +0.167 HD
BRANCH  28   2
ATOM      2  O   UNL     1       1.898   2.672  28.023  0.00  0.00    -0.495 OA
ATOM     32  C   UNL     1       1.531   2.437  29.381  0.00  0.00    +0.277 C 
ENDBRANCH  28   2
ENDBRANCH  16  20
ENDBRANCH  11  16
TORSDOF 11
ENDMDL
