MODEL 1
REMARK VINA RESULT:       2.0      0.000      0.000
REMARK  Name = 40776867
REMARK  8 active torsions:
REMARK  status: ('A' for Active; 'I' for Inactive)
REMARK    1  A    between atoms: N_3  and  C_13
REMARK    2  A    between atoms: N_4  and  C_14
REMARK    3  A    between atoms: N_5  and  C_29
REMARK    4  A    between atoms: N_5  and  C_30
REMARK    5  A    between atoms: N_5  and  C_31
REMARK    6  A    between atoms: C_7  and  C_13
REMARK    7  A    between atoms: C_8  and  C_14
REMARK    8  A    between atoms: C_20  and  C_24
REMARK                            x       y       z     vdW  Elec       q    Type
REMARK                         _______ _______ _______ _____ _____    ______ ____
ROOT
ATOM      2  N   UNL     1      -2.929  -2.300  24.387  0.00  0.00    -0.298 NA
ATOM      6  C   UNL     1      -3.227  -0.233  25.937  0.00  0.00    -0.002 C 
ATOM      7  C   UNL     1      -4.284  -0.233  24.809  0.00  0.00    +0.023 C 
ATOM      8  C   UNL     1      -1.637  -1.576  24.523  0.00  0.00    +0.074 C 
ATOM      9  C   UNL     1      -1.818  -0.262  25.316  0.00  0.00    +0.024 C 
ATOM     10  C   UNL     1      -3.970  -1.397  23.840  0.00  0.00    +0.090 C 
ATOM     11  C   UNL     1      -3.408  -1.547  26.720  0.00  0.00    +0.019 C 
ATOM     12  C   UNL     1      -3.355  -2.733  25.740  0.00  0.00    +0.085 C 
ENDROOT
BRANCH   7  13
ATOM     13  C   UNL     1      -4.379   1.102  24.073  0.00  0.00    +0.110 C 
BRANCH  13   3
ATOM      3  N   UNL     1      -3.952   2.169  24.941  0.00  0.00    -0.329 N 
ATOM     15  C   UNL     1      -4.896   3.038  25.640  0.00  0.00    +0.110 C 
ATOM     16  C   UNL     1      -2.785   2.897  24.763  0.00  0.00    +0.033 A 
ATOM     17  C   UNL     1      -4.060   4.145  26.315  0.00  0.00    +0.056 C 
ATOM     18  C   UNL     1      -2.791   4.070  25.529  0.00  0.00    -0.025 A 
ATOM     19  C   UNL     1      -1.686   2.599  23.973  0.00  0.00    +0.023 A 
ATOM     21  C   UNL     1      -1.725   4.953  25.532  0.00  0.00    +0.005 A 
ATOM     22  C   UNL     1      -0.603   3.484  23.957  0.00  0.00    +0.002 A 
ATOM     23  C   UNL     1      -0.623   4.653  24.732  0.00  0.00    +0.000 A 
ENDBRANCH  13   3
ENDBRANCH   7  13
BRANCH   8  14
ATOM     14  C   UNL     1      -0.957  -1.335  23.173  0.00  0.00    +0.123 C 
BRANCH  14   4
ATOM      1  O   UNL     1       0.931  -0.528  21.165  0.00  0.00    -0.270 OA
ATOM      4  N   UNL     1       0.420  -0.978  23.383  0.00  0.00    -0.310 N 
ATOM     20  C   UNL     1       1.263  -0.598  22.346  0.00  0.00    +0.244 C 
ATOM     32  H   UNL     1       0.777  -1.073  24.328  0.00  0.00    +0.149 HD
BRANCH  20  24
ATOM     24  C   UNL     1       2.666  -0.285  22.724  0.00  0.00    +0.037 A 
ATOM     25  C   UNL     1       3.426  -1.224  23.420  0.00  0.00    +0.015 A 
ATOM     26  C   UNL     1       3.221   0.948  22.383  0.00  0.00    +0.015 A 
ATOM     27  C   UNL     1       4.743  -0.930  23.775  0.00  0.00    +0.024 A 
ATOM     28  C   UNL     1       4.537   1.243  22.740  0.00  0.00    +0.024 A 
ATOM     29  C   UNL     1       5.298   0.303  23.435  0.00  0.00    +0.029 A 
BRANCH  29   5
ATOM      5  N   UNL     1       6.629   0.602  23.794  0.00  0.00    -0.336 N 
ATOM     30  C   UNL     1       6.930   1.782  24.578  0.00  0.00    +0.129 C 
ATOM     31  C   UNL     1       7.712  -0.272  23.387  0.00  0.00    +0.129 C 
ENDBRANCH  29   5
ENDBRANCH  20  24
ENDBRANCH  14   4
ENDBRANCH   8  14
TORSDOF 6
ENDMDL
MODEL 2
REMARK VINA RESULT:       3.0      1.086      1.820
REMARK  Name = 40776867
REMARK  8 active torsions:
REMARK  status: ('A' for Active; 'I' for Inactive)
REMARK    1  A    between atoms: N_3  and  C_13
REMARK    2  A    between atoms: N_4  and  C_14
REMARK    3  A    between atoms: N_5  and  C_29
REMARK    4  A    between atoms: N_5  and  C_30
REMARK    5  A    between atoms: N_5  and  C_31
REMARK    6  A    between atoms: C_7  and  C_13
REMARK    7  A    between atoms: C_8  and  C_14
REMARK    8  A    between atoms: C_20  and  C_24
REMARK                            x       y       z     vdW  Elec       q    Type
REMARK                         _______ _______ _______ _____ _____    ______ ____
ROOT
ATOM      2  N   UNL     1      -2.147  -1.270  23.859  0.00  0.00    -0.298 NA
ATOM      6  C   UNL     1      -3.618  -1.157  26.001  0.00  0.00    -0.002 C 
ATOM      7  C   UNL     1      -4.404  -0.662  24.766  0.00  0.00    +0.023 C 
ATOM      8  C   UNL     1      -1.430  -0.528  24.930  0.00  0.00    +0.074 C 
ATOM      9  C   UNL     1      -2.338  -0.316  26.162  0.00  0.00    +0.024 C 
ATOM     10  C   UNL     1      -3.442  -0.613  23.557  0.00  0.00    +0.090 C 
ATOM     11  C   UNL     1      -3.179  -2.603  25.702  0.00  0.00    +0.019 C 
ATOM     12  C   UNL     1      -2.427  -2.637  24.359  0.00  0.00    +0.085 C 
ENDROOT
BRANCH   7  13
ATOM     13  C   UNL     1      -5.094   0.682  24.990  0.00  0.00    +0.110 C 
BRANCH  13   3
ATOM      3  N   UNL     1      -4.402   1.713  24.257  0.00  0.00    -0.329 N 
ATOM     15  C   UNL     1      -3.792   1.473  22.952  0.00  0.00    +0.110 C 
ATOM     16  C   UNL     1      -3.698   2.750  24.851  0.00  0.00    +0.033 A 
ATOM     17  C   UNL     1      -3.011   2.753  22.589  0.00  0.00    +0.056 C 
ATOM     18  C   UNL     1      -2.857   3.391  23.932  0.00  0.00    -0.025 A 
ATOM     19  C   UNL     1      -3.747   3.195  26.163  0.00  0.00    +0.023 A 
ATOM     21  C   UNL     1      -2.066   4.470  24.286  0.00  0.00    +0.005 A 
ATOM     22  C   UNL     1      -2.947   4.279  26.540  0.00  0.00    +0.002 A 
ATOM     23  C   UNL     1      -2.113   4.913  25.608  0.00  0.00    +0.000 A 
ENDBRANCH  13   3
ENDBRANCH   7  13
BRANCH   8  14
ATOM     14  C   UNL     1      -0.835   0.791  24.430  0.00  0.00    +0.123 C 
BRANCH  14   4
ATOM      1  O   UNL     1       0.545  -0.355  22.188  0.00  0.00    -0.270 OA
ATOM      4  N   UNL     1       0.587   0.653  24.277  0.00  0.00    -0.310 N 
ATOM     20  C   UNL     1       1.169   0.083  23.151  0.00  0.00    +0.244 C 
ATOM     32  H   UNL     1       1.160   0.938  25.064  0.00  0.00    +0.149 HD
BRANCH  20  24
ATOM     24  C   UNL     1       2.652  -0.012  23.158  0.00  0.00    +0.037 A 
ATOM     25  C   UNL     1       3.274  -1.182  23.591  0.00  0.00    +0.015 A 
ATOM     26  C   UNL     1       3.421   1.071  22.731  0.00  0.00    +0.015 A 
ATOM     27  C   UNL     1       4.667  -1.270  23.597  0.00  0.00    +0.024 A 
ATOM     28  C   UNL     1       4.813   0.983  22.739  0.00  0.00    +0.024 A 
ATOM     29  C   UNL     1       5.436  -0.187  23.172  0.00  0.00    +0.029 A 
BRANCH  29   5
ATOM      5  N   UNL     1       6.844  -0.275  23.178  0.00  0.00    -0.336 N 
ATOM     30  C   UNL     1       7.514  -1.345  22.466  0.00  0.00    +0.129 C 
ATOM     31  C   UNL     1       7.638   0.706  23.889  0.00  0.00    +0.129 C 
ENDBRANCH  29   5
ENDBRANCH  20  24
ENDBRANCH  14   4
ENDBRANCH   8  14
TORSDOF 6
ENDMDL
MODEL 3
REMARK VINA RESULT:       3.2      2.334      5.407
REMARK  Name = 40776867
REMARK  8 active torsions:
REMARK  status: ('A' for Active; 'I' for Inactive)
REMARK    1  A    between atoms: N_3  and  C_13
REMARK    2  A    between atoms: N_4  and  C_14
REMARK    3  A    between atoms: N_5  and  C_29
REMARK    4  A    between atoms: N_5  and  C_30
REMARK    5  A    between atoms: N_5  and  C_31
REMARK    6  A    between atoms: C_7  and  C_13
REMARK    7  A    between atoms: C_8  and  C_14
REMARK    8  A    between atoms: C_20  and  C_24
REMARK                            x       y       z     vdW  Elec       q    Type
REMARK                         _______ _______ _______ _____ _____    ______ ____
ROOT
ATOM      2  N   UNL     1      -5.405   2.345  26.788  0.00  0.00    -0.298 NA
ATOM      6  C   UNL     1      -5.808   2.296  24.219  0.00  0.00    -0.002 C 
ATOM      7  C   UNL     1      -5.014   1.051  24.677  0.00  0.00    +0.023 C 
ATOM      8  C   UNL     1      -4.958   3.626  26.179  0.00  0.00    +0.074 C 
ATOM      9  C   UNL     1      -5.046   3.567  24.638  0.00  0.00    +0.024 C 
ATOM     10  C   UNL     1      -4.681   1.204  26.178  0.00  0.00    +0.090 C 
ATOM     11  C   UNL     1      -7.140   2.287  24.992  0.00  0.00    +0.019 C 
ATOM     12  C   UNL     1      -6.851   2.182  26.500  0.00  0.00    +0.085 C 
ENDROOT
BRANCH   7  13
ATOM     13  C   UNL     1      -3.759   0.796  23.845  0.00  0.00    +0.110 C 
BRANCH  13   3
ATOM      3  N   UNL     1      -3.468  -0.615  23.822  0.00  0.00    -0.329 N 
ATOM     15  C   UNL     1      -4.516  -1.632  23.777  0.00  0.00    +0.110 C 
ATOM     16  C   UNL     1      -2.367  -1.192  24.436  0.00  0.00    +0.033 A 
ATOM     17  C   UNL     1      -3.813  -2.996  23.942  0.00  0.00    +0.056 C 
ATOM     18  C   UNL     1      -2.512  -2.581  24.549  0.00  0.00    -0.025 A 
ATOM     19  C   UNL     1      -1.213  -0.582  24.906  0.00  0.00    +0.023 A 
ATOM     21  C   UNL     1      -1.532  -3.381  25.113  0.00  0.00    +0.005 A 
ATOM     22  C   UNL     1      -0.218  -1.374  25.487  0.00  0.00    +0.002 A 
ATOM     23  C   UNL     1      -0.376  -2.764  25.589  0.00  0.00    +0.000 A 
ENDBRANCH  13   3
ENDBRANCH   7  13
BRANCH   8  14
ATOM     14  C   UNL     1      -3.563   4.043  26.652  0.00  0.00    +0.123 C 
BRANCH  14   4
ATOM      1  O   UNL     1      -1.480   5.065  24.960  0.00  0.00    -0.270 OA
ATOM      4  N   UNL     1      -2.568   3.274  25.957  0.00  0.00    -0.310 N 
ATOM     20  C   UNL     1      -1.593   3.857  25.157  0.00  0.00    +0.244 C 
ATOM     32  H   UNL     1      -2.641   2.264  26.026  0.00  0.00    +0.149 HD
BRANCH  20  24
ATOM     24  C   UNL     1      -0.653   2.923  24.484  0.00  0.00    +0.037 A 
ATOM     25  C   UNL     1      -1.024   2.296  23.296  0.00  0.00    +0.015 A 
ATOM     26  C   UNL     1       0.600   2.672  25.044  0.00  0.00    +0.015 A 
ATOM     27  C   UNL     1      -0.141   1.418  22.665  0.00  0.00    +0.024 A 
ATOM     28  C   UNL     1       1.482   1.794  24.415  0.00  0.00    +0.024 A 
ATOM     29  C   UNL     1       1.111   1.167  23.225  0.00  0.00    +0.029 A 
BRANCH  29   5
ATOM      5  N   UNL     1       2.005   0.280  22.588  0.00  0.00    -0.336 N 
ATOM     30  C   UNL     1       1.505  -0.759  21.711  0.00  0.00    +0.129 C 
ATOM     31  C   UNL     1       3.433   0.402  22.798  0.00  0.00    +0.129 C 
ENDBRANCH  29   5
ENDBRANCH  20  24
ENDBRANCH  14   4
ENDBRANCH   8  14
TORSDOF 6
ENDMDL
MODEL 4
REMARK VINA RESULT:       3.6      1.364      4.112
REMARK  Name = 40776867
REMARK  8 active torsions:
REMARK  status: ('A' for Active; 'I' for Inactive)
REMARK    1  A    between atoms: N_3  and  C_13
REMARK    2  A    between atoms: N_4  and  C_14
REMARK    3  A    between atoms: N_5  and  C_29
REMARK    4  A    between atoms: N_5  and  C_30
REMARK    5  A    between atoms: N_5  and  C_31
REMARK    6  A    between atoms: C_7  and  C_13
REMARK    7  A    between atoms: C_8  and  C_14
REMARK    8  A    between atoms: C_20  and  C_24
REMARK                            x       y       z     vdW  Elec       q    Type
REMARK                         _______ _______ _______ _____ _____    ______ ____
ROOT
ATOM      2  N   UNL     1      -1.539   3.046  24.470  0.00  0.00    -0.298 NA
ATOM      6  C   UNL     1      -4.103   3.483  24.510  0.00  0.00    -0.002 C 
ATOM      7  C   UNL     1      -3.663   2.675  25.751  0.00  0.00    +0.023 C 
ATOM      8  C   UNL     1      -2.149   2.616  23.183  0.00  0.00    +0.074 C 
ATOM      9  C   UNL     1      -3.689   2.725  23.235  0.00  0.00    +0.024 C 
ATOM     10  C   UNL     1      -2.165   2.321  25.603  0.00  0.00    +0.090 C 
ATOM     11  C   UNL     1      -3.312   4.805  24.532  0.00  0.00    +0.019 C 
ATOM     12  C   UNL     1      -1.808   4.494  24.642  0.00  0.00    +0.085 C 
ENDROOT
BRANCH   7  13
ATOM     13  C   UNL     1      -4.513   1.430  25.993  0.00  0.00    +0.110 C 
BRANCH  13   3
ATOM      3  N   UNL     1      -4.118   0.385  25.081  0.00  0.00    -0.329 N 
ATOM     15  C   UNL     1      -5.084  -0.360  24.278  0.00  0.00    +0.110 C 
ATOM     16  C   UNL     1      -3.023  -0.443  25.274  0.00  0.00    +0.033 A 
ATOM     17  C   UNL     1      -4.297  -1.488  23.578  0.00  0.00    +0.056 C 
ATOM     18  C   UNL     1      -3.074  -1.563  24.435  0.00  0.00    -0.025 A 
ATOM     19  C   UNL     1      -1.953  -0.282  26.141  0.00  0.00    +0.023 A 
ATOM     21  C   UNL     1      -2.080  -2.527  24.432  0.00  0.00    +0.005 A 
ATOM     22  C   UNL     1      -0.944  -1.251  26.157  0.00  0.00    +0.002 A 
ATOM     23  C   UNL     1      -1.007  -2.366  25.308  0.00  0.00    +0.000 A 
ENDBRANCH  13   3
ENDBRANCH   7  13
BRANCH   8  14
ATOM     14  C   UNL     1      -1.693   1.218  22.758  0.00  0.00    +0.123 C 
BRANCH  14   4
ATOM      1  O   UNL     1      -0.117  -1.175  22.559  0.00  0.00    -0.270 OA
ATOM      4  N   UNL     1      -0.264   1.118  22.883  0.00  0.00    -0.310 N 
ATOM     20  C   UNL     1       0.416  -0.088  22.770  0.00  0.00    +0.244 C 
ATOM     32  H   UNL     1       0.234   1.970  23.119  0.00  0.00    +0.149 HD
BRANCH  20  24
ATOM     24  C   UNL     1       1.890  -0.028  22.950  0.00  0.00    +0.037 A 
ATOM     25  C   UNL     1       2.577   1.155  22.682  0.00  0.00    +0.015 A 
ATOM     26  C   UNL     1       2.586  -1.155  23.387  0.00  0.00    +0.015 A 
ATOM     27  C   UNL     1       3.961   1.212  22.851  0.00  0.00    +0.024 A 
ATOM     28  C   UNL     1       3.969  -1.100  23.554  0.00  0.00    +0.024 A 
ATOM     29  C   UNL     1       4.657   0.084  23.286  0.00  0.00    +0.029 A 
BRANCH  29   5
ATOM      5  N   UNL     1       6.056   0.140  23.458  0.00  0.00    -0.336 N 
ATOM     30  C   UNL     1       6.915  -0.818  22.790  0.00  0.00    +0.129 C 
ATOM     31  C   UNL     1       6.653   1.159  24.297  0.00  0.00    +0.129 C 
ENDBRANCH  29   5
ENDBRANCH  20  24
ENDBRANCH  14   4
ENDBRANCH   8  14
TORSDOF 6
ENDMDL
MODEL 5
REMARK VINA RESULT:       3.7      1.860      4.936
REMARK  Name = 40776867
REMARK  8 active torsions:
REMARK  status: ('A' for Active; 'I' for Inactive)
REMARK    1  A    between atoms: N_3  and  C_13
REMARK    2  A    between atoms: N_4  and  C_14
REMARK    3  A    between atoms: N_5  and  C_29
REMARK    4  A    between atoms: N_5  and  C_30
REMARK    5  A    between atoms: N_5  and  C_31
REMARK    6  A    between atoms: C_7  and  C_13
REMARK    7  A    between atoms: C_8  and  C_14
REMARK    8  A    between atoms: C_20  and  C_24
REMARK                            x       y       z     vdW  Elec       q    Type
REMARK                         _______ _______ _______ _____ _____    ______ ____
ROOT
ATOM      2  N   UNL     1      -2.797   3.726  24.748  0.00  0.00    -0.298 NA
ATOM      6  C   UNL     1      -5.089   3.034  25.765  0.00  0.00    -0.002 C 
ATOM      7  C   UNL     1      -4.010   1.967  26.060  0.00  0.00    +0.023 C 
ATOM      8  C   UNL     1      -3.857   3.790  23.705  0.00  0.00    +0.074 C 
ATOM      9  C   UNL     1      -5.197   3.241  24.242  0.00  0.00    +0.024 C 
ATOM     10  C   UNL     1      -2.714   2.358  25.313  0.00  0.00    +0.090 C 
ATOM     11  C   UNL     1      -4.588   4.358  26.371  0.00  0.00    +0.019 C 
ATOM     12  C   UNL     1      -3.174   4.656  25.839  0.00  0.00    +0.085 C 
ENDROOT
BRANCH   7  13
ATOM     13  C   UNL     1      -4.454   0.548  25.711  0.00  0.00    +0.110 C 
BRANCH  13   3
ATOM      3  N   UNL     1      -3.317  -0.337  25.731  0.00  0.00    -0.329 N 
ATOM     15  C   UNL     1      -1.963   0.132  26.016  0.00  0.00    +0.110 C 
ATOM     16  C   UNL     1      -3.197  -1.467  24.936  0.00  0.00    +0.033 A 
ATOM     17  C   UNL     1      -1.021  -1.065  25.770  0.00  0.00    +0.056 C 
ATOM     18  C   UNL     1      -1.876  -1.935  24.907  0.00  0.00    -0.025 A 
ATOM     19  C   UNL     1      -4.180  -2.141  24.229  0.00  0.00    +0.023 A 
ATOM     21  C   UNL     1      -1.511  -3.064  24.193  0.00  0.00    +0.005 A 
ATOM     22  C   UNL     1      -3.827  -3.279  23.495  0.00  0.00    +0.002 A 
ATOM     23  C   UNL     1      -2.501  -3.738  23.479  0.00  0.00    +0.000 A 
ENDBRANCH  13   3
ENDBRANCH   7  13
BRANCH   8  14
ATOM     14  C   UNL     1      -3.440   3.098  22.405  0.00  0.00    +0.123 C 
BRANCH  14   4
ATOM      1  O   UNL     1      -2.669   0.339  22.609  0.00  0.00    -0.270 OA
ATOM      4  N   UNL     1      -2.103   2.587  22.537  0.00  0.00    -0.310 N 
ATOM     20  C   UNL     1      -1.823   1.230  22.629  0.00  0.00    +0.244 C 
ATOM     32  H   UNL     1      -1.360   3.273  22.622  0.00  0.00    +0.149 HD
BRANCH  20  24
ATOM     24  C   UNL     1      -0.391   0.865  22.788  0.00  0.00    +0.037 A 
ATOM     25  C   UNL     1       0.412   1.569  23.685  0.00  0.00    +0.015 A 
ATOM     26  C   UNL     1       0.150  -0.180  22.039  0.00  0.00    +0.015 A 
ATOM     27  C   UNL     1       1.756   1.227  23.834  0.00  0.00    +0.024 A 
ATOM     28  C   UNL     1       1.494  -0.521  22.187  0.00  0.00    +0.024 A 
ATOM     29  C   UNL     1       2.297   0.183  23.085  0.00  0.00    +0.029 A 
BRANCH  29   5
ATOM      5  N   UNL     1       3.656  -0.164  23.235  0.00  0.00    -0.336 N 
ATOM     30  C   UNL     1       4.697   0.773  22.861  0.00  0.00    +0.129 C 
ATOM     31  C   UNL     1       4.029  -1.458  23.770  0.00  0.00    +0.129 C 
ENDBRANCH  29   5
ENDBRANCH  20  24
ENDBRANCH  14   4
ENDBRANCH   8  14
TORSDOF 6
ENDMDL
MODEL 6
REMARK VINA RESULT:       4.6      3.246      4.830
REMARK  Name = 40776867
REMARK  8 active torsions:
REMARK  status: ('A' for Active; 'I' for Inactive)
REMARK    1  A    between atoms: N_3  and  C_13
REMARK    2  A    between atoms: N_4  and  C_14
REMARK    3  A    between atoms: N_5  and  C_29
REMARK    4  A    between atoms: N_5  and  C_30
REMARK    5  A    between atoms: N_5  and  C_31
REMARK    6  A    between atoms: C_7  and  C_13
REMARK    7  A    between atoms: C_8  and  C_14
REMARK    8  A    between atoms: C_20  and  C_24
REMARK                            x       y       z     vdW  Elec       q    Type
REMARK                         _______ _______ _______ _____ _____    ______ ____
ROOT
ATOM      2  N   UNL     1      -1.742  -2.863  23.620  0.00  0.00    -0.298 NA
ATOM      6  C   UNL     1      -3.896  -2.740  25.073  0.00  0.00    -0.002 C 
ATOM      7  C   UNL     1      -3.709  -1.443  24.255  0.00  0.00    +0.023 C 
ATOM      8  C   UNL     1      -1.420  -3.188  25.036  0.00  0.00    +0.074 C 
ATOM      9  C   UNL     1      -2.650  -2.977  25.947  0.00  0.00    +0.024 C 
ATOM     10  C   UNL     1      -2.346  -1.512  23.527  0.00  0.00    +0.090 C 
ATOM     11  C   UNL     1      -3.971  -3.900  24.062  0.00  0.00    +0.019 C 
ATOM     12  C   UNL     1      -2.739  -3.850  23.141  0.00  0.00    +0.085 C 
ENDROOT
BRANCH   7  13
ATOM     13  C   UNL     1      -3.832  -0.175  25.098  0.00  0.00    +0.110 C 
BRANCH  13   3
ATOM      3  N   UNL     1      -3.975   0.971  24.237  0.00  0.00    -0.329 N 
ATOM     15  C   UNL     1      -3.040   1.258  23.151  0.00  0.00    +0.110 C 
ATOM     16  C   UNL     1      -4.517   2.183  24.638  0.00  0.00    +0.033 A 
ATOM     17  C   UNL     1      -3.429   2.641  22.589  0.00  0.00    +0.056 C 
ATOM     18  C   UNL     1      -4.223   3.203  23.724  0.00  0.00    -0.025 A 
ATOM     19  C   UNL     1      -5.276   2.466  25.763  0.00  0.00    +0.023 A 
ATOM     21  C   UNL     1      -4.672   4.501  23.899  0.00  0.00    +0.005 A 
ATOM     22  C   UNL     1      -5.731   3.774  25.960  0.00  0.00    +0.002 A 
ATOM     23  C   UNL     1      -5.432   4.785  25.034  0.00  0.00    +0.000 A 
ENDBRANCH  13   3
ENDBRANCH   7  13
BRANCH   8  14
ATOM     14  C   UNL     1      -0.197  -2.423  25.548  0.00  0.00    +0.123 C 
BRANCH  14   4
ATOM      1  O   UNL     1       0.894  -0.463  23.755  0.00  0.00    -0.270 OA
ATOM      4  N   UNL     1      -0.474  -1.012  25.546  0.00  0.00    -0.310 N 
ATOM     20  C   UNL     1       0.102  -0.135  24.635  0.00  0.00    +0.244 C 
ATOM     32  H   UNL     1      -1.073  -0.665  26.287  0.00  0.00    +0.149 HD
BRANCH  20  24
ATOM     24  C   UNL     1      -0.266   1.297  24.783  0.00  0.00    +0.037 A 
ATOM     25  C   UNL     1       0.093   2.214  23.796  0.00  0.00    +0.015 A 
ATOM     26  C   UNL     1      -0.971   1.723  25.908  0.00  0.00    +0.015 A 
ATOM     27  C   UNL     1      -0.252   3.559  23.935  0.00  0.00    +0.024 A 
ATOM     28  C   UNL     1      -1.315   3.067  26.048  0.00  0.00    +0.024 A 
ATOM     29  C   UNL     1      -0.956   3.985  25.062  0.00  0.00    +0.029 A 
BRANCH  29   5
ATOM      5  N   UNL     1      -1.307   5.344  25.203  0.00  0.00    -0.336 N 
ATOM     30  C   UNL     1      -2.481   5.723  25.963  0.00  0.00    +0.129 C 
ATOM     31  C   UNL     1      -0.493   6.379  24.596  0.00  0.00    +0.129 C 
ENDBRANCH  29   5
ENDBRANCH  20  24
ENDBRANCH  14   4
ENDBRANCH   8  14
TORSDOF 6
ENDMDL
