MODEL 1
REMARK VINA RESULT:      -1.7      0.000      0.000
REMARK  Name = 26742618
REMARK  10 active torsions:
REMARK  status: ('A' for Active; 'I' for Inactive)
REMARK    1  A    between atoms: O_4  and  C_28
REMARK    2  A    between atoms: O_4  and  C_29
REMARK    3  A    between atoms: N_6  and  C_20
REMARK    4  A    between atoms: N_6  and  C_21
REMARK    5  A    between atoms: C_9  and  C_14
REMARK    6  A    between atoms: C_10  and  C_15
REMARK    7  A    between atoms: C_14  and  C_17
REMARK    8  A    between atoms: C_15  and  C_16
REMARK    9  A    between atoms: C_19  and  C_22
REMARK   10  A    between atoms: C_20  and  C_23
REMARK                            x       y       z     vdW  Elec       q    Type
REMARK                         _______ _______ _______ _____ _____    ______ ____
ROOT
ATOM      5  N   UNL     1      -7.862  -9.911  10.170  0.00  0.00    -0.316 NA
ATOM      9  C   UNL     1      -6.570  -9.588  12.803  0.00  0.00    +0.004 C 
ATOM     10  C   UNL     1      -5.783  -9.966  11.526  0.00  0.00    +0.012 C 
ATOM     11  C   UNL     1      -7.856  -8.847  12.399  0.00  0.00    +0.019 C 
ATOM     12  C   UNL     1      -6.672 -10.694  10.504  0.00  0.00    +0.085 C 
ATOM     13  C   UNL     1      -8.666  -9.612  11.353  0.00  0.00    +0.081 C 
ATOM     30  H   UNL     1      -8.430 -10.428   9.499  0.00  0.00    +0.122 HD
ENDROOT
BRANCH   9  14
ATOM     14  C   UNL     1      -6.891 -10.780  13.713  0.00  0.00    +0.100 C 
BRANCH  14  17
ATOM      1  O   UNL     1      -5.004 -10.683  15.187  0.00  0.00    -0.276 OA
ATOM      6  N   UNL     1      -7.101 -10.532  16.166  0.00  0.00    -0.296 N 
ATOM     17  C   UNL     1      -6.233 -10.662  15.078  0.00  0.00    +0.216 C 
ATOM     21  C   UNL     1      -6.621 -10.409  17.538  0.00  0.00    +0.132 C 
BRANCH   6  20
ATOM     20  C   UNL     1      -8.554 -10.511  16.011  0.00  0.00    +0.202 C 
BRANCH  20  23
ATOM      3  O   UNL     1      -9.439  -8.856  17.542  0.00  0.00    -0.274 OA
ATOM      8  N   UNL     1      -9.185  -8.298  15.326  0.00  0.00    -0.328 N 
ATOM     23  C   UNL     1      -9.088  -9.153  16.403  0.00  0.00    +0.228 C 
ATOM     31  H   UNL     1      -8.902  -8.570  14.390  0.00  0.00    +0.145 HD
ATOM     32  H   UNL     1      -9.542  -7.355  15.440  0.00  0.00    +0.145 HD
ENDBRANCH  20  23
ENDBRANCH   6  20
ENDBRANCH  14  17
ENDBRANCH   9  14
BRANCH  10  15
ATOM     15  C   UNL     1      -4.522 -10.781  11.818  0.00  0.00    +0.064 C 
BRANCH  15  16
ATOM      2  O   UNL     1      -1.896  -8.956  10.164  0.00  0.00    -0.354 OA
ATOM      7  N   UNL     1      -3.127  -9.599  10.175  0.00  0.00    -0.083 NA
ATOM     16  C   UNL     1      -3.282 -10.029  11.430  0.00  0.00    +0.085 A 
ATOM     18  C   UNL     1      -2.191  -9.689  12.249  0.00  0.00    +0.076 A 
ATOM     19  C   UNL     1      -1.348  -9.016  11.405  0.00  0.00    +0.167 A 
BRANCH  19  22
ATOM     22  C   UNL     1      -0.066  -8.389  11.549  0.00  0.00    +0.020 A 
ATOM     24  C   UNL     1       1.014  -8.825  10.782  0.00  0.00    +0.015 A 
ATOM     25  C   UNL     1       0.100  -7.342  12.456  0.00  0.00    +0.015 A 
ATOM     26  C   UNL     1       2.260  -8.214  10.921  0.00  0.00    +0.046 A 
ATOM     27  C   UNL     1       1.345  -6.732  12.596  0.00  0.00    +0.046 A 
ATOM     28  C   UNL     1       2.426  -7.168  11.828  0.00  0.00    +0.120 A 
BRANCH  28   4
ATOM      4  O   UNL     1       3.642  -6.571  11.965  0.00  0.00    -0.495 OA
ATOM     29  C   UNL     1       4.745  -7.414  12.295  0.00  0.00    +0.277 C 
ENDBRANCH  28   4
ENDBRANCH  19  22
ENDBRANCH  15  16
ENDBRANCH  10  15
TORSDOF 8
ENDMDL
MODEL 2
REMARK VINA RESULT:      -0.5     14.299     15.884
REMARK  Name = 26742618
REMARK  10 active torsions:
REMARK  status: ('A' for Active; 'I' for Inactive)
REMARK    1  A    between atoms: O_4  and  C_28
REMARK    2  A    between atoms: O_4  and  C_29
REMARK    3  A    between atoms: N_6  and  C_20
REMARK    4  A    between atoms: N_6  and  C_21
REMARK    5  A    between atoms: C_9  and  C_14
REMARK    6  A    between atoms: C_10  and  C_15
REMARK    7  A    between atoms: C_14  and  C_17
REMARK    8  A    between atoms: C_15  and  C_16
REMARK    9  A    between atoms: C_19  and  C_22
REMARK   10  A    between atoms: C_20  and  C_23
REMARK                            x       y       z     vdW  Elec       q    Type
REMARK                         _______ _______ _______ _____ _____    ______ ____
ROOT
ATOM      5  N   UNL     1      -2.265  -2.457  24.480  0.00  0.00    -0.316 NA
ATOM      9  C   UNL     1      -4.167  -0.237  24.081  0.00  0.00    +0.004 C 
ATOM     10  C   UNL     1      -2.723  -0.211  23.526  0.00  0.00    +0.012 C 
ATOM     11  C   UNL     1      -4.606  -1.699  24.268  0.00  0.00    +0.019 C 
ATOM     12  C   UNL     1      -1.775  -1.083  24.366  0.00  0.00    +0.085 C 
ATOM     13  C   UNL     1      -3.597  -2.511  25.078  0.00  0.00    +0.081 C 
ATOM     30  H   UNL     1      -1.617  -3.001  25.049  0.00  0.00    +0.122 HD
ENDROOT
BRANCH   9  14
ATOM     14  C   UNL     1      -4.351   0.559  25.379  0.00  0.00    +0.100 C 
BRANCH  14  17
ATOM      1  O   UNL     1      -6.538   1.389  24.859  0.00  0.00    -0.276 OA
ATOM      6  N   UNL     1      -4.976   2.944  25.584  0.00  0.00    -0.296 N 
ATOM     17  C   UNL     1      -5.396   1.653  25.246  0.00  0.00    +0.216 C 
ATOM     21  C   UNL     1      -5.863   4.099  25.509  0.00  0.00    +0.132 C 
BRANCH   6  20
ATOM     20  C   UNL     1      -3.618   3.232  26.040  0.00  0.00    +0.202 C 
BRANCH  20  23
ATOM      3  O   UNL     1      -3.338   4.312  23.891  0.00  0.00    -0.274 OA
ATOM      8  N   UNL     1      -1.713   4.587  25.494  0.00  0.00    -0.328 N 
ATOM     23  C   UNL     1      -2.914   4.100  25.024  0.00  0.00    +0.228 C 
ATOM     31  H   UNL     1      -1.375   4.387  26.430  0.00  0.00    +0.145 HD
ATOM     32  H   UNL     1      -1.125   5.174  24.912  0.00  0.00    +0.145 HD
ENDBRANCH  20  23
ENDBRANCH   6  20
ENDBRANCH  14  17
ENDBRANCH   9  14
BRANCH  10  15
ATOM     15  C   UNL     1      -2.162   1.205  23.380  0.00  0.00    +0.064 C 
BRANCH  15  16
ATOM      2  O   UNL     1       1.267   1.914  24.217  0.00  0.00    -0.354 OA
ATOM      7  N   UNL     1      -0.093   2.197  24.259  0.00  0.00    -0.083 NA
ATOM     16  C   UNL     1      -0.671   1.223  23.551  0.00  0.00    +0.085 A 
ATOM     18  C   UNL     1       0.264   0.306  23.042  0.00  0.00    +0.076 A 
ATOM     19  C   UNL     1       1.467   0.785  23.489  0.00  0.00    +0.167 A 
BRANCH  19  22
ATOM     22  C   UNL     1       2.832   0.365  23.357  0.00  0.00    +0.020 A 
ATOM     24  C   UNL     1       3.200  -0.932  23.713  0.00  0.00    +0.015 A 
ATOM     25  C   UNL     1       3.792   1.254  22.871  0.00  0.00    +0.015 A 
ATOM     26  C   UNL     1       4.528  -1.341  23.585  0.00  0.00    +0.046 A 
ATOM     27  C   UNL     1       5.118   0.846  22.743  0.00  0.00    +0.046 A 
ATOM     28  C   UNL     1       5.486  -0.452  23.100  0.00  0.00    +0.120 A 
BRANCH  28   4
ATOM      4  O   UNL     1       6.783  -0.851  22.974  0.00  0.00    -0.495 OA
ATOM     29  C   UNL     1       7.786   0.051  23.436  0.00  0.00    +0.277 C 
ENDBRANCH  28   4
ENDBRANCH  19  22
ENDBRANCH  15  16
ENDBRANCH  10  15
TORSDOF 8
ENDMDL
MODEL 3
REMARK VINA RESULT:      -0.0     13.835     15.858
REMARK  Name = 26742618
REMARK  10 active torsions:
REMARK  status: ('A' for Active; 'I' for Inactive)
REMARK    1  A    between atoms: O_4  and  C_28
REMARK    2  A    between atoms: O_4  and  C_29
REMARK    3  A    between atoms: N_6  and  C_20
REMARK    4  A    between atoms: N_6  and  C_21
REMARK    5  A    between atoms: C_9  and  C_14
REMARK    6  A    between atoms: C_10  and  C_15
REMARK    7  A    between atoms: C_14  and  C_17
REMARK    8  A    between atoms: C_15  and  C_16
REMARK    9  A    between atoms: C_19  and  C_22
REMARK   10  A    between atoms: C_20  and  C_23
REMARK                            x       y       z     vdW  Elec       q    Type
REMARK                         _______ _______ _______ _____ _____    ______ ____
ROOT
ATOM      5  N   UNL     1      -6.209   2.693  25.725  0.00  0.00    -0.316 NA
ATOM      9  C   UNL     1      -3.755   1.162  25.139  0.00  0.00    +0.004 C 
ATOM     10  C   UNL     1      -3.825   2.704  25.029  0.00  0.00    +0.012 C 
ATOM     11  C   UNL     1      -4.833   0.681  26.124  0.00  0.00    +0.019 C 
ATOM     12  C   UNL     1      -5.254   3.188  24.732  0.00  0.00    +0.085 C 
ATOM     13  C   UNL     1      -6.218   1.234  25.789  0.00  0.00    +0.081 C 
ATOM     30  H   UNL     1      -7.143   3.026  25.491  0.00  0.00    +0.122 HD
ENDROOT
BRANCH   9  14
ATOM     14  C   UNL     1      -3.879   0.434  23.796  0.00  0.00    +0.100 C 
BRANCH  14  17
ATOM      1  O   UNL     1      -5.033  -1.662  23.923  0.00  0.00    -0.276 OA
ATOM      6  N   UNL     1      -2.725  -1.727  24.146  0.00  0.00    -0.296 N 
ATOM     17  C   UNL     1      -3.948  -1.075  23.958  0.00  0.00    +0.216 C 
ATOM     21  C   UNL     1      -2.628  -3.172  24.316  0.00  0.00    +0.132 C 
BRANCH   6  20
ATOM     20  C   UNL     1      -1.453  -1.009  24.184  0.00  0.00    +0.202 C 
BRANCH  20  23
ATOM      3  O   UNL     1       0.023  -2.289  25.615  0.00  0.00    -0.274 OA
ATOM      8  N   UNL     1      -1.043  -0.446  26.482  0.00  0.00    -0.328 N 
ATOM     23  C   UNL     1      -0.727  -1.328  25.470  0.00  0.00    +0.228 C 
ATOM     31  H   UNL     1      -1.678   0.333  26.344  0.00  0.00    +0.145 HD
ATOM     32  H   UNL     1      -0.640  -0.548  27.408  0.00  0.00    +0.145 HD
ENDBRANCH  20  23
ENDBRANCH   6  20
ENDBRANCH  14  17
ENDBRANCH   9  14
BRANCH  10  15
ATOM     15  C   UNL     1      -2.842   3.278  24.007  0.00  0.00    +0.064 C 
BRANCH  15  16
ATOM      2  O   UNL     1       0.307   2.006  25.203  0.00  0.00    -0.354 OA
ATOM      7  N   UNL     1      -0.945   2.574  25.403  0.00  0.00    -0.083 NA
ATOM     16  C   UNL     1      -1.470   2.691  24.180  0.00  0.00    +0.085 A 
ATOM     18  C   UNL     1      -0.605   2.219  23.179  0.00  0.00    +0.076 A 
ATOM     19  C   UNL     1       0.499   1.799  23.875  0.00  0.00    +0.167 A 
BRANCH  19  22
ATOM     22  C   UNL     1       1.756   1.212  23.512  0.00  0.00    +0.020 A 
ATOM     24  C   UNL     1       2.829   2.029  23.153  0.00  0.00    +0.015 A 
ATOM     25  C   UNL     1       1.907  -0.175  23.519  0.00  0.00    +0.015 A 
ATOM     26  C   UNL     1       4.052   1.458  22.801  0.00  0.00    +0.046 A 
ATOM     27  C   UNL     1       3.129  -0.745  23.167  0.00  0.00    +0.046 A 
ATOM     28  C   UNL     1       4.202   0.072  22.808  0.00  0.00    +0.120 A 
BRANCH  28   4
ATOM      4  O   UNL     1       5.396  -0.486  22.465  0.00  0.00    -0.495 OA
ATOM     29  C   UNL     1       6.452  -0.396  23.420  0.00  0.00    +0.277 C 
ENDBRANCH  28   4
ENDBRANCH  19  22
ENDBRANCH  15  16
ENDBRANCH  10  15
TORSDOF 8
ENDMDL
MODEL 4
REMARK VINA RESULT:       1.1     14.585     16.596
REMARK  Name = 26742618
REMARK  10 active torsions:
REMARK  status: ('A' for Active; 'I' for Inactive)
REMARK    1  A    between atoms: O_4  and  C_28
REMARK    2  A    between atoms: O_4  and  C_29
REMARK    3  A    between atoms: N_6  and  C_20
REMARK    4  A    between atoms: N_6  and  C_21
REMARK    5  A    between atoms: C_9  and  C_14
REMARK    6  A    between atoms: C_10  and  C_15
REMARK    7  A    between atoms: C_14  and  C_17
REMARK    8  A    between atoms: C_15  and  C_16
REMARK    9  A    between atoms: C_19  and  C_22
REMARK   10  A    between atoms: C_20  and  C_23
REMARK                            x       y       z     vdW  Elec       q    Type
REMARK                         _______ _______ _______ _____ _____    ______ ____
ROOT
ATOM      5  N   UNL     1      -6.203   2.231  26.485  0.00  0.00    -0.316 NA
ATOM      9  C   UNL     1      -4.410   2.025  24.151  0.00  0.00    +0.004 C 
ATOM     10  C   UNL     1      -5.268   0.839  24.654  0.00  0.00    +0.012 C 
ATOM     11  C   UNL     1      -5.066   3.343  24.595  0.00  0.00    +0.019 C 
ATOM     12  C   UNL     1      -5.569   0.954  26.157  0.00  0.00    +0.085 C 
ATOM     13  C   UNL     1      -5.372   3.367  26.092  0.00  0.00    +0.081 C 
ATOM     30  H   UNL     1      -6.378   2.274  27.488  0.00  0.00    +0.122 HD
ENDROOT
BRANCH   9  14
ATOM     14  C   UNL     1      -2.944   1.968  24.597  0.00  0.00    +0.100 C 
BRANCH  14  17
ATOM      1  O   UNL     1      -2.153   3.427  22.868  0.00  0.00    -0.276 OA
ATOM      6  N   UNL     1      -1.377   3.837  25.015  0.00  0.00    -0.296 N 
ATOM     17  C   UNL     1      -2.131   3.137  24.067  0.00  0.00    +0.216 C 
ATOM     21  C   UNL     1      -0.545   4.981  24.662  0.00  0.00    +0.132 C 
BRANCH   6  20
ATOM     20  C   UNL     1      -1.366   3.474  26.431  0.00  0.00    +0.202 C 
BRANCH  20  23
ATOM      3  O   UNL     1       0.974   2.946  26.762  0.00  0.00    -0.274 OA
ATOM      8  N   UNL     1      -0.574   1.249  26.864  0.00  0.00    -0.328 N 
ATOM     23  C   UNL     1      -0.193   2.565  26.714  0.00  0.00    +0.228 C 
ATOM     31  H   UNL     1      -1.543   0.955  26.806  0.00  0.00    +0.145 HD
ATOM     32  H   UNL     1       0.113   0.524  27.044  0.00  0.00    +0.145 HD
ENDBRANCH  20  23
ENDBRANCH   6  20
ENDBRANCH  14  17
ENDBRANCH   9  14
BRANCH  10  15
ATOM     15  C   UNL     1      -4.654  -0.524  24.332  0.00  0.00    +0.064 C 
BRANCH  15  16
ATOM      2  O   UNL     1      -1.171  -0.742  25.220  0.00  0.00    -0.354 OA
ATOM      7  N   UNL     1      -2.522  -0.928  25.487  0.00  0.00    -0.083 NA
ATOM     16  C   UNL     1      -3.154  -0.479  24.399  0.00  0.00    +0.085 A 
ATOM     18  C   UNL     1      -2.264  -0.001  23.423  0.00  0.00    +0.076 A 
ATOM     19  C   UNL     1      -1.030  -0.189  23.988  0.00  0.00    +0.167 A 
BRANCH  19  22
ATOM     22  C   UNL     1       0.319   0.063  23.571  0.00  0.00    +0.020 A 
ATOM     24  C   UNL     1       0.897   1.313  23.796  0.00  0.00    +0.015 A 
ATOM     25  C   UNL     1       1.053  -0.942  22.941  0.00  0.00    +0.015 A 
ATOM     26  C   UNL     1       2.209   1.557  23.391  0.00  0.00    +0.046 A 
ATOM     27  C   UNL     1       2.365  -0.697  22.537  0.00  0.00    +0.046 A 
ATOM     28  C   UNL     1       2.943   0.552  22.762  0.00  0.00    +0.120 A 
BRANCH  28   4
ATOM      4  O   UNL     1       4.224   0.790  22.366  0.00  0.00    -0.495 OA
ATOM     29  C   UNL     1       5.264   0.218  23.158  0.00  0.00    +0.277 C 
ENDBRANCH  28   4
ENDBRANCH  19  22
ENDBRANCH  15  16
ENDBRANCH  10  15
TORSDOF 8
ENDMDL
MODEL 5
REMARK VINA RESULT:       1.6     13.960     15.696
REMARK  Name = 26742618
REMARK  10 active torsions:
REMARK  status: ('A' for Active; 'I' for Inactive)
REMARK    1  A    between atoms: O_4  and  C_28
REMARK    2  A    between atoms: O_4  and  C_29
REMARK    3  A    between atoms: N_6  and  C_20
REMARK    4  A    between atoms: N_6  and  C_21
REMARK    5  A    between atoms: C_9  and  C_14
REMARK    6  A    between atoms: C_10  and  C_15
REMARK    7  A    between atoms: C_14  and  C_17
REMARK    8  A    between atoms: C_15  and  C_16
REMARK    9  A    between atoms: C_19  and  C_22
REMARK   10  A    between atoms: C_20  and  C_23
REMARK                            x       y       z     vdW  Elec       q    Type
REMARK                         _______ _______ _______ _____ _____    ______ ____
ROOT
ATOM      5  N   UNL     1      -5.089   3.613  24.339  0.00  0.00    -0.316 NA
ATOM      9  C   UNL     1      -2.654   2.202  25.226  0.00  0.00    +0.004 C 
ATOM     10  C   UNL     1      -2.863   2.672  23.766  0.00  0.00    +0.012 C 
ATOM     11  C   UNL     1      -3.511   3.071  26.161  0.00  0.00    +0.019 C 
ATOM     12  C   UNL     1      -4.355   2.757  23.406  0.00  0.00    +0.085 C 
ATOM     13  C   UNL     1      -4.972   3.140  25.716  0.00  0.00    +0.081 C 
ATOM     30  H   UNL     1      -6.073   3.638  24.074  0.00  0.00    +0.122 HD
ENDROOT
BRANCH   9  14
ATOM     14  C   UNL     1      -2.942   0.713  25.449  0.00  0.00    +0.100 C 
BRANCH  14  17
ATOM      1  O   UNL     1      -0.928   0.302  26.682  0.00  0.00    -0.276 OA
ATOM      6  N   UNL     1      -1.468  -1.229  25.026  0.00  0.00    -0.296 N 
ATOM     17  C   UNL     1      -1.688  -0.076  25.786  0.00  0.00    +0.216 C 
ATOM     21  C   UNL     1      -0.309  -2.091  25.230  0.00  0.00    +0.132 C 
BRANCH   6  20
ATOM     20  C   UNL     1      -2.382  -1.657  23.969  0.00  0.00    +0.202 C 
BRANCH  20  23
ATOM      3  O   UNL     1      -3.481  -2.999  25.658  0.00  0.00    -0.274 OA
ATOM      8  N   UNL     1      -4.633  -2.462  23.742  0.00  0.00    -0.328 N 
ATOM     23  C   UNL     1      -3.533  -2.428  24.572  0.00  0.00    +0.228 C 
ATOM     31  H   UNL     1      -4.648  -1.994  22.842  0.00  0.00    +0.145 HD
ATOM     32  H   UNL     1      -5.475  -2.958  24.013  0.00  0.00    +0.145 HD
ENDBRANCH  20  23
ENDBRANCH   6  20
ENDBRANCH  14  17
ENDBRANCH   9  14
BRANCH  10  15
ATOM     15  C   UNL     1      -2.112   1.815  22.747  0.00  0.00    +0.064 C 
BRANCH  15  16
ATOM      2  O   UNL     1       1.228   2.130  24.055  0.00  0.00    -0.354 OA
ATOM      7  N   UNL     1      -0.085   2.564  23.918  0.00  0.00    -0.083 NA
ATOM     16  C   UNL     1      -0.665   1.664  23.119  0.00  0.00    +0.085 A 
ATOM     18  C   UNL     1       0.223   0.649  22.724  0.00  0.00    +0.076 A 
ATOM     19  C   UNL     1       1.399   0.989  23.339  0.00  0.00    +0.167 A 
BRANCH  19  22
ATOM     22  C   UNL     1       2.714   0.418  23.386  0.00  0.00    +0.020 A 
ATOM     24  C   UNL     1       3.832   1.222  23.161  0.00  0.00    +0.015 A 
ATOM     25  C   UNL     1       2.876  -0.941  23.657  0.00  0.00    +0.015 A 
ATOM     26  C   UNL     1       5.111   0.667  23.207  0.00  0.00    +0.046 A 
ATOM     27  C   UNL     1       4.154  -1.495  23.702  0.00  0.00    +0.046 A 
ATOM     28  C   UNL     1       5.272  -0.691  23.477  0.00  0.00    +0.120 A 
BRANCH  28   4
ATOM      4  O   UNL     1       6.520  -1.233  23.523  0.00  0.00    -0.495 OA
ATOM     29  C   UNL     1       7.563  -0.515  22.867  0.00  0.00    +0.277 C 
ENDBRANCH  28   4
ENDBRANCH  19  22
ENDBRANCH  15  16
ENDBRANCH  10  15
TORSDOF 8
ENDMDL
MODEL 6
REMARK VINA RESULT:       1.8     14.723     16.347
REMARK  Name = 26742618
REMARK  10 active torsions:
REMARK  status: ('A' for Active; 'I' for Inactive)
REMARK    1  A    between atoms: O_4  and  C_28
REMARK    2  A    between atoms: O_4  and  C_29
REMARK    3  A    between atoms: N_6  and  C_20
REMARK    4  A    between atoms: N_6  and  C_21
REMARK    5  A    between atoms: C_9  and  C_14
REMARK    6  A    between atoms: C_10  and  C_15
REMARK    7  A    between atoms: C_14  and  C_17
REMARK    8  A    between atoms: C_15  and  C_16
REMARK    9  A    between atoms: C_19  and  C_22
REMARK   10  A    between atoms: C_20  and  C_23
REMARK                            x       y       z     vdW  Elec       q    Type
REMARK                         _______ _______ _______ _____ _____    ______ ____
ROOT
ATOM      5  N   UNL     1      -0.325   5.076  24.533  0.00  0.00    -0.316 NA
ATOM      9  C   UNL     1      -2.628   3.479  25.456  0.00  0.00    +0.004 C 
ATOM     10  C   UNL     1      -1.361   2.840  24.836  0.00  0.00    +0.012 C 
ATOM     11  C   UNL     1      -2.259   4.847  26.052  0.00  0.00    +0.019 C 
ATOM     12  C   UNL     1      -0.648   3.808  23.878  0.00  0.00    +0.085 C 
ATOM     13  C   UNL     1      -1.519   5.738  25.055  0.00  0.00    +0.081 C 
ATOM     30  H   UNL     1       0.137   5.693  23.866  0.00  0.00    +0.122 HD
ENDROOT
BRANCH   9  14
ATOM     14  C   UNL     1      -3.803   3.607  24.479  0.00  0.00    +0.100 C 
BRANCH  14  17
ATOM      1  O   UNL     1      -5.812   3.860  25.761  0.00  0.00    -0.276 OA
ATOM      6  N   UNL     1      -5.444   1.783  24.795  0.00  0.00    -0.296 N 
ATOM     17  C   UNL     1      -5.110   3.112  25.075  0.00  0.00    +0.216 C 
ATOM     21  C   UNL     1      -6.666   1.163  25.296  0.00  0.00    +0.132 C 
BRANCH   6  20
ATOM     20  C   UNL     1      -4.595   0.916  23.981  0.00  0.00    +0.202 C 
BRANCH  20  23
ATOM      3  O   UNL     1      -3.976  -0.390  25.923  0.00  0.00    -0.274 OA
ATOM      8  N   UNL     1      -4.359  -1.472  23.931  0.00  0.00    -0.328 N 
ATOM     23  C   UNL     1      -4.292  -0.356  24.737  0.00  0.00    +0.228 C 
ATOM     31  H   UNL     1      -4.608  -1.419  22.949  0.00  0.00    +0.145 HD
ATOM     32  H   UNL     1      -4.164  -2.396  24.303  0.00  0.00    +0.145 HD
ENDBRANCH  20  23
ENDBRANCH   6  20
ENDBRANCH  14  17
ENDBRANCH   9  14
BRANCH  10  15
ATOM     15  C   UNL     1      -1.641   1.506  24.143  0.00  0.00    +0.064 C 
BRANCH  15  16
ATOM      2  O   UNL     1       0.908  -0.963  23.532  0.00  0.00    -0.354 OA
ATOM      7  N   UNL     1      -0.414  -0.585  23.734  0.00  0.00    -0.083 NA
ATOM     16  C   UNL     1      -0.372   0.741  23.898  0.00  0.00    +0.085 A 
ATOM     18  C   UNL     1       0.935   1.249  23.812  0.00  0.00    +0.076 A 
ATOM     19  C   UNL     1       1.702   0.137  23.581  0.00  0.00    +0.167 A 
BRANCH  19  22
ATOM     22  C   UNL     1       3.103  -0.099  23.387  0.00  0.00    +0.020 A 
ATOM     24  C   UNL     1       3.890   0.857  22.745  0.00  0.00    +0.015 A 
ATOM     25  C   UNL     1       3.680  -1.285  23.842  0.00  0.00    +0.015 A 
ATOM     26  C   UNL     1       5.253   0.628  22.557  0.00  0.00    +0.046 A 
ATOM     27  C   UNL     1       5.042  -1.515  23.654  0.00  0.00    +0.046 A 
ATOM     28  C   UNL     1       5.828  -0.558  23.011  0.00  0.00    +0.120 A 
BRANCH  28   4
ATOM      4  O   UNL     1       7.159  -0.783  22.828  0.00  0.00    -0.495 OA
ATOM     29  C   UNL     1       8.063   0.124  23.458  0.00  0.00    +0.277 C 
ENDBRANCH  28   4
ENDBRANCH  19  22
ENDBRANCH  15  16
ENDBRANCH  10  15
TORSDOF 8
ENDMDL
MODEL 7
REMARK VINA RESULT:       1.9     14.318     15.942
REMARK  Name = 26742618
REMARK  10 active torsions:
REMARK  status: ('A' for Active; 'I' for Inactive)
REMARK    1  A    between atoms: O_4  and  C_28
REMARK    2  A    between atoms: O_4  and  C_29
REMARK    3  A    between atoms: N_6  and  C_20
REMARK    4  A    between atoms: N_6  and  C_21
REMARK    5  A    between atoms: C_9  and  C_14
REMARK    6  A    between atoms: C_10  and  C_15
REMARK    7  A    between atoms: C_14  and  C_17
REMARK    8  A    between atoms: C_15  and  C_16
REMARK    9  A    between atoms: C_19  and  C_22
REMARK   10  A    between atoms: C_20  and  C_23
REMARK                            x       y       z     vdW  Elec       q    Type
REMARK                         _______ _______ _______ _____ _____    ______ ____
ROOT
ATOM      5  N   UNL     1      -2.471  -2.395  24.805  0.00  0.00    -0.316 NA
ATOM      9  C   UNL     1      -3.767   0.218  24.360  0.00  0.00    +0.004 C 
ATOM     10  C   UNL     1      -2.627  -0.314  23.459  0.00  0.00    +0.012 C 
ATOM     11  C   UNL     1      -4.478  -0.972  25.025  0.00  0.00    +0.019 C 
ATOM     12  C   UNL     1      -1.712  -1.290  24.217  0.00  0.00    +0.085 C 
ATOM     13  C   UNL     1      -3.502  -1.918  25.724  0.00  0.00    +0.081 C 
ATOM     30  H   UNL     1      -1.835  -3.014  25.306  0.00  0.00    +0.122 HD
ENDROOT
BRANCH   9  14
ATOM     14  C   UNL     1      -3.308   1.236  25.410  0.00  0.00    +0.100 C 
BRANCH  14  17
ATOM      1  O   UNL     1      -4.566   2.912  24.247  0.00  0.00    -0.276 OA
ATOM      6  N   UNL     1      -2.801   3.654  25.557  0.00  0.00    -0.296 N 
ATOM     17  C   UNL     1      -3.628   2.667  25.011  0.00  0.00    +0.216 C 
ATOM     21  C   UNL     1      -2.981   5.072  25.268  0.00  0.00    +0.132 C 
BRANCH   6  20
ATOM     20  C   UNL     1      -1.695   3.338  26.458  0.00  0.00    +0.202 C 
BRANCH  20  23
ATOM      3  O   UNL     1      -0.271   3.491  24.506  0.00  0.00    -0.274 OA
ATOM      8  N   UNL     1       0.482   2.333  26.344  0.00  0.00    -0.328 N 
ATOM     23  C   UNL     1      -0.438   3.095  25.656  0.00  0.00    +0.228 C 
ATOM     31  H   UNL     1       0.317   2.005  27.289  0.00  0.00    +0.145 HD
ATOM     32  H   UNL     1       1.369   2.079  25.920  0.00  0.00    +0.145 HD
ENDBRANCH  20  23
ENDBRANCH   6  20
ENDBRANCH  14  17
ENDBRANCH   9  14
BRANCH  10  15
ATOM     15  C   UNL     1      -1.803   0.800  22.812  0.00  0.00    +0.064 C 
BRANCH  15  16
ATOM      2  O   UNL     1       1.348  -0.550  21.712  0.00  0.00    -0.354 OA
ATOM      7  N   UNL     1      -0.020  -0.353  21.574  0.00  0.00    -0.083 NA
ATOM     16  C   UNL     1      -0.371   0.387  22.630  0.00  0.00    +0.085 A 
ATOM     18  C   UNL     1       0.722   0.684  23.461  0.00  0.00    +0.076 A 
ATOM     19  C   UNL     1       1.779   0.072  22.840  0.00  0.00    +0.167 A 
BRANCH  19  22
ATOM     22  C   UNL     1       3.181  -0.044  23.117  0.00  0.00    +0.020 A 
ATOM     24  C   UNL     1       4.028   1.043  22.899  0.00  0.00    +0.015 A 
ATOM     25  C   UNL     1       3.699  -1.244  23.605  0.00  0.00    +0.015 A 
ATOM     26  C   UNL     1       5.392   0.930  23.168  0.00  0.00    +0.046 A 
ATOM     27  C   UNL     1       5.062  -1.357  23.874  0.00  0.00    +0.046 A 
ATOM     28  C   UNL     1       5.908  -0.270  23.655  0.00  0.00    +0.120 A 
BRANCH  28   4
ATOM      4  O   UNL     1       7.240  -0.380  23.919  0.00  0.00    -0.495 OA
ATOM     29  C   UNL     1       8.092  -0.716  22.825  0.00  0.00    +0.277 C 
ENDBRANCH  28   4
ENDBRANCH  19  22
ENDBRANCH  15  16
ENDBRANCH  10  15
TORSDOF 8
ENDMDL
MODEL 8
REMARK VINA RESULT:       2.2     14.162     15.512
REMARK  Name = 26742618
REMARK  10 active torsions:
REMARK  status: ('A' for Active; 'I' for Inactive)
REMARK    1  A    between atoms: O_4  and  C_28
REMARK    2  A    between atoms: O_4  and  C_29
REMARK    3  A    between atoms: N_6  and  C_20
REMARK    4  A    between atoms: N_6  and  C_21
REMARK    5  A    between atoms: C_9  and  C_14
REMARK    6  A    between atoms: C_10  and  C_15
REMARK    7  A    between atoms: C_14  and  C_17
REMARK    8  A    between atoms: C_15  and  C_16
REMARK    9  A    between atoms: C_19  and  C_22
REMARK   10  A    between atoms: C_20  and  C_23
REMARK                            x       y       z     vdW  Elec       q    Type
REMARK                         _______ _______ _______ _____ _____    ______ ____
ROOT
ATOM      5  N   UNL     1      -3.996   4.230  24.283  0.00  0.00    -0.316 NA
ATOM      9  C   UNL     1      -3.291   1.481  25.090  0.00  0.00    +0.004 C 
ATOM     10  C   UNL     1      -2.789   2.121  23.773  0.00  0.00    +0.012 C 
ATOM     11  C   UNL     1      -3.618   2.596  26.096  0.00  0.00    +0.019 C 
ATOM     12  C   UNL     1      -3.753   3.206  23.266  0.00  0.00    +0.085 C 
ATOM     13  C   UNL     1      -4.547   3.657  25.509  0.00  0.00    +0.081 C 
ATOM     30  H   UNL     1      -4.644   4.925  23.915  0.00  0.00    +0.122 HD
ENDROOT
BRANCH   9  14
ATOM     14  C   UNL     1      -4.488   0.540  24.910  0.00  0.00    +0.100 C 
BRANCH  14  17
ATOM      1  O   UNL     1      -4.582  -1.346  23.434  0.00  0.00    -0.276 OA
ATOM      6  N   UNL     1      -3.098  -1.485  25.211  0.00  0.00    -0.296 N 
ATOM     17  C   UNL     1      -4.072  -0.844  24.439  0.00  0.00    +0.216 C 
ATOM     21  C   UNL     1      -2.596  -2.816  24.887  0.00  0.00    +0.132 C 
BRANCH   6  20
ATOM     20  C   UNL     1      -2.509  -0.870  26.398  0.00  0.00    +0.202 C 
BRANCH  20  23
ATOM      3  O   UNL     1      -0.652   0.668  26.177  0.00  0.00    -0.274 OA
ATOM      8  N   UNL     1      -0.310  -1.560  25.724  0.00  0.00    -0.328 N 
ATOM     23  C   UNL     1      -1.077  -0.483  26.114  0.00  0.00    +0.228 C 
ATOM     31  H   UNL     1      -0.687  -2.501  25.665  0.00  0.00    +0.145 HD
ATOM     32  H   UNL     1       0.670  -1.444  25.487  0.00  0.00    +0.145 HD
ENDBRANCH  20  23
ENDBRANCH   6  20
ENDBRANCH  14  17
ENDBRANCH   9  14
BRANCH  10  15
ATOM     15  C   UNL     1      -2.512   1.093  22.674  0.00  0.00    +0.064 C 
BRANCH  15  16
ATOM      2  O   UNL     1       0.388  -1.019  22.975  0.00  0.00    -0.354 OA
ATOM      7  N   UNL     1      -0.981  -0.822  22.846  0.00  0.00    -0.083 NA
ATOM     16  C   UNL     1      -1.138   0.504  22.810  0.00  0.00    +0.085 A 
ATOM     18  C   UNL     1       0.085   1.190  22.912  0.00  0.00    +0.076 A 
ATOM     19  C   UNL     1       1.012   0.186  23.014  0.00  0.00    +0.167 A 
BRANCH  19  22
ATOM     22  C   UNL     1       2.440   0.142  23.146  0.00  0.00    +0.020 A 
ATOM     24  C   UNL     1       3.207   1.254  22.796  0.00  0.00    +0.015 A 
ATOM     25  C   UNL     1       3.061  -1.012  23.624  0.00  0.00    +0.015 A 
ATOM     26  C   UNL     1       4.595   1.211  22.924  0.00  0.00    +0.046 A 
ATOM     27  C   UNL     1       4.448  -1.054  23.752  0.00  0.00    +0.046 A 
ATOM     28  C   UNL     1       5.216   0.057  23.402  0.00  0.00    +0.120 A 
BRANCH  28   4
ATOM      4  O   UNL     1       6.571   0.015  23.527  0.00  0.00    -0.495 OA
ATOM     29  C   UNL     1       7.268  -0.932  22.720  0.00  0.00    +0.277 C 
ENDBRANCH  28   4
ENDBRANCH  19  22
ENDBRANCH  15  16
ENDBRANCH  10  15
TORSDOF 8
ENDMDL
