MODEL 1
REMARK VINA RESULT:      -1.4      0.000      0.000
REMARK  Name = 11887578
REMARK  14 active torsions:
REMARK  status: ('A' for Active; 'I' for Inactive)
REMARK    1  A    between atoms: S_1  and  N_9
REMARK    2  A    between atoms: S_1  and  C_20
REMARK    3  A    between atoms: O_6  and  C_23
REMARK    4  A    between atoms: O_6  and  C_32
REMARK    5  A    between atoms: O_8  and  C_31
REMARK    6  A    between atoms: O_8  and  C_33
REMARK    7  A    between atoms: N_11  and  C_19
REMARK    8  A    between atoms: N_12  and  C_22
REMARK    9  A    between atoms: C_13  and  C_17
REMARK   10  A    between atoms: C_19  and  C_21
REMARK   11  A    between atoms: C_19  and  C_23
REMARK   12  A    between atoms: C_21  and  C_24
REMARK   13  A    between atoms: C_22  and  C_25
REMARK   14  A    between atoms: C_22  and  C_26
REMARK                            x       y       z     vdW  Elec       q    Type
REMARK                         _______ _______ _______ _____ _____    ______ ____
ROOT
ATOM      4  O   UNL     1      -1.052   0.908  25.808  0.00  0.00    -0.274 OA
ATOM     11  N   UNL     1       0.100   2.410  24.455  0.00  0.00    -0.301 N 
ATOM     17  C   UNL     1      -0.513   1.205  24.745  0.00  0.00    +0.236 C 
ATOM     34  H   UNL     1       0.516   2.549  23.538  0.00  0.00    +0.150 HD
ENDROOT
BRANCH  17  13
ATOM      5  O   UNL     1       2.021   0.761  22.445  0.00  0.00    -0.253 OA
ATOM      9  N   UNL     1      -1.909  -1.528  24.535  0.00  0.00    -0.178 NA
ATOM     10  N   UNL     1       0.695  -0.602  23.785  0.00  0.00    -0.272 N 
ATOM     12  N   UNL     1       3.035  -0.934  23.613  0.00  0.00    -0.297 N 
ATOM     13  C   UNL     1      -0.480   0.255  23.582  0.00  0.00    +0.179 C 
ATOM     14  C   UNL     1      -1.790  -0.515  23.447  0.00  0.00    +0.141 C 
ATOM     15  C   UNL     1      -0.773  -2.486  24.496  0.00  0.00    +0.128 C 
ATOM     16  C   UNL     1       0.533  -1.733  24.715  0.00  0.00    +0.127 C 
ATOM     18  C   UNL     1       1.925  -0.194  23.223  0.00  0.00    +0.303 C 
ATOM     35  H   UNL     1       2.973  -1.580  24.389  0.00  0.00    +0.150 HD
BRANCH   9   1
ATOM      1  S   UNL     1      -3.460  -2.231  24.720  0.00  0.00    +0.029 S 
ATOM      2  O   UNL     1      -3.696  -2.472  26.127  0.00  0.00    -0.158 OA
ATOM      3  O   UNL     1      -3.619  -3.275  23.732  0.00  0.00    -0.158 OA
ATOM     20  C   UNL     1      -4.458  -0.850  24.226  0.00  0.00    +0.215 C 
ENDBRANCH   9   1
BRANCH  12  22
ATOM     22  C   UNL     1       4.367  -0.633  23.136  0.00  0.00    +0.068 C 
ATOM     25  C   UNL     1       4.510   0.857  22.853  0.00  0.00    +0.027 C 
ATOM     26  C   UNL     1       5.408  -1.107  24.141  0.00  0.00    +0.027 C 
ENDBRANCH  12  22
ENDBRANCH  17  13
BRANCH  11  19
ATOM     19  C   UNL     1       0.183   3.502  25.398  0.00  0.00    +0.186 C 
BRANCH  19  23
ATOM      7  O   UNL     1      -0.818   2.943  27.524  0.00  0.00    -0.249 OA
ATOM     23  C   UNL     1       0.198   3.021  26.843  0.00  0.00    +0.328 C 
BRANCH  23   6
ATOM      6  O   UNL     1       1.456   2.718  27.271  0.00  0.00    -0.467 OA
ATOM     32  C   UNL     1       1.632   2.659  28.690  0.00  0.00    +0.280 C 
ENDBRANCH  23   6
ENDBRANCH  19  23
BRANCH  19  21
ATOM     21  C   UNL     1      -0.919   4.541  25.148  0.00  0.00    +0.069 C 
BRANCH  21  24
ATOM     24  C   UNL     1      -2.320   3.975  25.091  0.00  0.00    -0.045 A 
ATOM     27  C   UNL     1      -2.763   3.323  23.940  0.00  0.00    +0.007 A 
ATOM     28  C   UNL     1      -3.169   4.104  26.190  0.00  0.00    +0.007 A 
ATOM     29  C   UNL     1      -4.055   2.801  23.888  0.00  0.00    +0.046 A 
ATOM     30  C   UNL     1      -4.461   3.582  26.137  0.00  0.00    +0.046 A 
ATOM     31  C   UNL     1      -4.904   2.930  24.986  0.00  0.00    +0.120 A 
BRANCH  31   8
ATOM      8  O   UNL     1      -6.165   2.420  24.935  0.00  0.00    -0.495 OA
ATOM     33  C   UNL     1      -6.593   1.634  26.047  0.00  0.00    +0.277 C 
ENDBRANCH  31   8
ENDBRANCH  21  24
ENDBRANCH  19  21
ENDBRANCH  11  19
TORSDOF 9
ENDMDL
MODEL 2
REMARK VINA RESULT:      -0.6      1.405      1.780
REMARK  Name = 11887578
REMARK  14 active torsions:
REMARK  status: ('A' for Active; 'I' for Inactive)
REMARK    1  A    between atoms: S_1  and  N_9
REMARK    2  A    between atoms: S_1  and  C_20
REMARK    3  A    between atoms: O_6  and  C_23
REMARK    4  A    between atoms: O_6  and  C_32
REMARK    5  A    between atoms: O_8  and  C_31
REMARK    6  A    between atoms: O_8  and  C_33
REMARK    7  A    between atoms: N_11  and  C_19
REMARK    8  A    between atoms: N_12  and  C_22
REMARK    9  A    between atoms: C_13  and  C_17
REMARK   10  A    between atoms: C_19  and  C_21
REMARK   11  A    between atoms: C_19  and  C_23
REMARK   12  A    between atoms: C_21  and  C_24
REMARK   13  A    between atoms: C_22  and  C_25
REMARK   14  A    between atoms: C_22  and  C_26
REMARK                            x       y       z     vdW  Elec       q    Type
REMARK                         _______ _______ _______ _____ _____    ______ ____
ROOT
ATOM      4  O   UNL     1      -1.941   1.405  21.639  0.00  0.00    -0.274 OA
ATOM     11  N   UNL     1      -0.878   1.697  23.688  0.00  0.00    -0.301 N 
ATOM     17  C   UNL     1      -1.284   0.972  22.582  0.00  0.00    +0.236 C 
ATOM     34  H   UNL     1      -0.334   1.236  24.413  0.00  0.00    +0.150 HD
ENDROOT
BRANCH  17  13
ATOM      5  O   UNL     1       1.716  -0.294  21.439  0.00  0.00    -0.253 OA
ATOM      9  N   UNL     1      -2.001  -1.163  24.678  0.00  0.00    -0.178 NA
ATOM     10  N   UNL     1       0.451  -0.439  23.385  0.00  0.00    -0.272 N 
ATOM     12  N   UNL     1       2.790  -0.070  23.454  0.00  0.00    -0.297 N 
ATOM     13  C   UNL     1      -0.807  -0.451  22.628  0.00  0.00    +0.179 C 
ATOM     14  C   UNL     1      -1.869  -1.381  23.209  0.00  0.00    +0.141 C 
ATOM     15  C   UNL     1      -0.707  -1.404  25.370  0.00  0.00    +0.128 C 
ATOM     16  C   UNL     1       0.336  -0.421  24.855  0.00  0.00    +0.127 C 
ATOM     18  C   UNL     1       1.658  -0.273  22.672  0.00  0.00    +0.303 C 
ATOM     35  H   UNL     1       2.702   0.137  24.440  0.00  0.00    +0.150 HD
BRANCH   9   1
ATOM      1  S   UNL     1      -3.374  -1.880  25.408  0.00  0.00    +0.029 S 
ATOM      2  O   UNL     1      -3.870  -0.992  26.437  0.00  0.00    -0.158 OA
ATOM      3  O   UNL     1      -3.084  -3.270  25.678  0.00  0.00    -0.158 OA
ATOM     20  C   UNL     1      -4.495  -1.809  24.035  0.00  0.00    +0.215 C 
ENDBRANCH   9   1
BRANCH  12  22
ATOM     22  C   UNL     1       4.100   0.130  22.874  0.00  0.00    +0.068 C 
ATOM     25  C   UNL     1       4.282   1.582  22.449  0.00  0.00    +0.027 C 
ATOM     26  C   UNL     1       5.184  -0.298  23.854  0.00  0.00    +0.027 C 
ENDBRANCH  12  22
ENDBRANCH  17  13
BRANCH  11  19
ATOM     19  C   UNL     1      -1.187   3.096  23.874  0.00  0.00    +0.186 C 
BRANCH  19  23
ATOM      7  O   UNL     1      -1.129   4.703  25.678  0.00  0.00    -0.249 OA
ATOM     23  C   UNL     1      -1.063   3.529  25.329  0.00  0.00    +0.328 C 
BRANCH  23   6
ATOM      6  O   UNL     1      -0.856   2.472  26.165  0.00  0.00    -0.467 OA
ATOM     32  C   UNL     1       0.363   2.503  26.914  0.00  0.00    +0.280 C 
ENDBRANCH  23   6
ENDBRANCH  19  23
BRANCH  19  21
ATOM     21  C   UNL     1      -2.560   3.448  23.284  0.00  0.00    +0.069 C 
BRANCH  21  24
ATOM     24  C   UNL     1      -3.736   3.109  24.172  0.00  0.00    -0.045 A 
ATOM     27  C   UNL     1      -4.213   1.800  24.230  0.00  0.00    +0.007 A 
ATOM     28  C   UNL     1      -4.344   4.107  24.934  0.00  0.00    +0.007 A 
ATOM     29  C   UNL     1      -5.296   1.488  25.050  0.00  0.00    +0.046 A 
ATOM     30  C   UNL     1      -5.428   3.795  25.754  0.00  0.00    +0.046 A 
ATOM     31  C   UNL     1      -5.904   2.485  25.811  0.00  0.00    +0.120 A 
BRANCH  31   8
ATOM      8  O   UNL     1      -6.962   2.180  26.612  0.00  0.00    -0.495 OA
ATOM     33  C   UNL     1      -6.774   1.140  27.570  0.00  0.00    +0.277 C 
ENDBRANCH  31   8
ENDBRANCH  21  24
ENDBRANCH  19  21
ENDBRANCH  11  19
TORSDOF 9
ENDMDL
MODEL 3
REMARK VINA RESULT:       2.1      2.247      5.030
REMARK  Name = 11887578
REMARK  14 active torsions:
REMARK  status: ('A' for Active; 'I' for Inactive)
REMARK    1  A    between atoms: S_1  and  N_9
REMARK    2  A    between atoms: S_1  and  C_20
REMARK    3  A    between atoms: O_6  and  C_23
REMARK    4  A    between atoms: O_6  and  C_32
REMARK    5  A    between atoms: O_8  and  C_31
REMARK    6  A    between atoms: O_8  and  C_33
REMARK    7  A    between atoms: N_11  and  C_19
REMARK    8  A    between atoms: N_12  and  C_22
REMARK    9  A    between atoms: C_13  and  C_17
REMARK   10  A    between atoms: C_19  and  C_21
REMARK   11  A    between atoms: C_19  and  C_23
REMARK   12  A    between atoms: C_21  and  C_24
REMARK   13  A    between atoms: C_22  and  C_25
REMARK   14  A    between atoms: C_22  and  C_26
REMARK                            x       y       z     vdW  Elec       q    Type
REMARK                         _______ _______ _______ _____ _____    ______ ____
ROOT
ATOM      4  O   UNL     1       0.741   2.701  25.594  0.00  0.00    -0.274 OA
ATOM     11  N   UNL     1      -0.975   2.020  24.179  0.00  0.00    -0.301 N 
ATOM     17  C   UNL     1       0.159   1.834  24.947  0.00  0.00    +0.236 C 
ATOM     34  H   UNL     1      -1.375   1.228  23.682  0.00  0.00    +0.150 HD
ENDROOT
BRANCH  17  13
ATOM      5  O   UNL     1      -1.551  -0.958  26.037  0.00  0.00    -0.253 OA
ATOM      9  N   UNL     1       2.106   0.524  22.957  0.00  0.00    -0.178 NA
ATOM     10  N   UNL     1      -0.356  -0.341  24.140  0.00  0.00    -0.272 N 
ATOM     12  N   UNL     1      -2.450  -1.438  23.981  0.00  0.00    -0.297 N 
ATOM     13  C   UNL     1       0.625   0.406  24.938  0.00  0.00    +0.179 C 
ATOM     14  C   UNL     1       2.058   0.285  24.427  0.00  0.00    +0.141 C 
ATOM     15  C   UNL     1       1.245  -0.447  22.232  0.00  0.00    +0.128 C 
ATOM     16  C   UNL     1      -0.202  -0.273  22.676  0.00  0.00    +0.127 C 
ATOM     18  C   UNL     1      -1.458  -0.919  24.806  0.00  0.00    +0.303 C 
ATOM     35  H   UNL     1      -2.454  -1.229  22.991  0.00  0.00    +0.150 HD
BRANCH   9   1
ATOM      1  S   UNL     1       3.670   0.758  22.299  0.00  0.00    +0.029 S 
ATOM      2  O   UNL     1       4.134   2.078  22.664  0.00  0.00    -0.158 OA
ATOM      3  O   UNL     1       3.670   0.304  20.926  0.00  0.00    -0.158 OA
ATOM     20  C   UNL     1       4.565  -0.427  23.270  0.00  0.00    +0.215 C 
ENDBRANCH   9   1
BRANCH  12  22
ATOM     22  C   UNL     1      -3.648  -2.052  24.510  0.00  0.00    +0.068 C 
ATOM     25  C   UNL     1      -4.744  -2.084  23.452  0.00  0.00    +0.027 C 
ATOM     26  C   UNL     1      -3.341  -3.450  25.030  0.00  0.00    +0.027 C 
ENDBRANCH  12  22
ENDBRANCH  17  13
BRANCH  11  19
ATOM     19  C   UNL     1      -1.636   3.298  24.039  0.00  0.00    +0.186 C 
BRANCH  19  23
ATOM      7  O   UNL     1      -2.086   3.484  26.406  0.00  0.00    -0.249 OA
ATOM     23  C   UNL     1      -1.750   4.039  25.365  0.00  0.00    +0.328 C 
BRANCH  23   6
ATOM      6  O   UNL     1      -1.459   5.365  25.240  0.00  0.00    -0.467 OA
ATOM     32  C   UNL     1      -0.381   5.683  24.354  0.00  0.00    +0.280 C 
ENDBRANCH  23   6
ENDBRANCH  19  23
BRANCH  19  21
ATOM     21  C   UNL     1      -2.996   3.150  23.342  0.00  0.00    +0.069 C 
BRANCH  21  24
ATOM     24  C   UNL     1      -4.136   2.763  24.257  0.00  0.00    -0.045 A 
ATOM     27  C   UNL     1      -4.915   3.751  24.859  0.00  0.00    +0.007 A 
ATOM     28  C   UNL     1      -4.410   1.416  24.496  0.00  0.00    +0.007 A 
ATOM     29  C   UNL     1      -5.967   3.393  25.701  0.00  0.00    +0.046 A 
ATOM     30  C   UNL     1      -5.462   1.059  25.339  0.00  0.00    +0.046 A 
ATOM     31  C   UNL     1      -6.240   2.047  25.942  0.00  0.00    +0.120 A 
BRANCH  31   8
ATOM      8  O   UNL     1      -7.267   1.698  26.763  0.00  0.00    -0.495 OA
ATOM     33  C   UNL     1      -6.933   0.995  27.960  0.00  0.00    +0.277 C 
ENDBRANCH  31   8
ENDBRANCH  21  24
ENDBRANCH  19  21
ENDBRANCH  11  19
TORSDOF 9
ENDMDL
