MODEL 1
REMARK VINA RESULT:       7.6      0.000      0.000
REMARK  Name = 51136824
REMARK  5 active torsions:
REMARK  status: ('A' for Active; 'I' for Inactive)
REMARK    1  A    between atoms: N_3  and  C_14
REMARK    2  A    between atoms: C_10  and  C_15
REMARK    3  A    between atoms: C_14  and  C_16
REMARK    4  A    between atoms: C_22  and  C_23
REMARK    5  A    between atoms: C_27  and  C_31
REMARK                            x       y       z     vdW  Elec       q    Type
REMARK                         _______ _______ _______ _____ _____    ______ ____
ROOT
ATOM      1  O   UNL     1      -5.999   0.962  24.994  0.00  0.00    -0.336 OA
ATOM      6  N   UNL     1      -3.822   1.347  25.359  0.00  0.00    -0.190 NA
ATOM      7  N   UNL     1      -5.315  -0.151  24.488  0.00  0.00    -0.056 NA
ATOM     15  C   UNL     1      -5.045   1.795  25.487  0.00  0.00    +0.245 A 
ATOM     22  C   UNL     1      -4.039   0.149  24.741  0.00  0.00    +0.202 A 
ENDROOT
BRANCH  22  23
ATOM      2  O   UNL     1       5.046   1.266  23.812  0.00  0.00    -0.276 OA
ATOM      4  N   UNL     1       0.537  -0.526  23.361  0.00  0.00    -0.312 N 
ATOM      5  N   UNL     1       3.102   0.507  22.794  0.00  0.00    -0.299 N 
ATOM      8  N   UNL     1      -0.842  -2.419  23.698  0.00  0.00    -0.240 NA
ATOM     17  C   UNL     1       1.404  -1.234  22.410  0.00  0.00    +0.125 C 
ATOM     18  C   UNL     1       1.223   0.302  24.366  0.00  0.00    +0.125 C 
ATOM     19  C   UNL     1       2.398  -0.265  21.769  0.00  0.00    +0.126 C 
ATOM     20  C   UNL     1       2.216   1.245  23.690  0.00  0.00    +0.126 C 
ATOM     21  C   UNL     1      -0.702  -1.074  23.708  0.00  0.00    +0.122 A 
ATOM     23  C   UNL     1      -2.955  -0.722  24.386  0.00  0.00    +0.027 A 
ATOM     25  C   UNL     1      -1.716  -0.191  24.041  0.00  0.00    +0.055 A 
ATOM     27  C   UNL     1       4.484   0.590  22.946  0.00  0.00    +0.213 C 
ATOM     28  C   UNL     1      -3.138  -2.100  24.388  0.00  0.00    +0.031 A 
ATOM     30  C   UNL     1      -2.060  -2.899  24.040  0.00  0.00    +0.113 A 
ATOM     31  C   UNL     1       5.317  -0.209  21.976  0.00  0.00    +0.109 C 
ENDBRANCH  22  23
BRANCH  15  10
ATOM      3  N   UNL     1      -4.654   4.234  25.788  0.00  0.00    -0.287 NA
ATOM     10  C   UNL     1      -5.534   3.091  26.101  0.00  0.00    +0.146 C 
ATOM     11  C   UNL     1      -6.921   3.510  25.579  0.00  0.00    +0.030 C 
ATOM     12  C   UNL     1      -6.735   4.924  25.047  0.00  0.00    +0.017 C 
ATOM     13  C   UNL     1      -5.507   5.423  25.782  0.00  0.00    +0.085 C 
BRANCH   3  14
ATOM     14  C   UNL     1      -3.534   4.367  26.712  0.00  0.00    +0.121 C 
BRANCH  14  16
ATOM      9  N   UNL     1      -0.228   2.881  25.619  0.00  0.00    -0.263 NA
ATOM     16  C   UNL     1      -2.210   4.209  26.013  0.00  0.00    -0.015 A 
ATOM     24  C   UNL     1      -1.736   5.188  25.146  0.00  0.00    +0.008 A 
ATOM     26  C   UNL     1      -1.425   3.085  26.214  0.00  0.00    +0.115 A 
ATOM     29  C   UNL     1      -0.509   5.015  24.515  0.00  0.00    +0.020 A 
ATOM     32  C   UNL     1       0.200   3.855  24.783  0.00  0.00    +0.111 A 
ENDBRANCH  14  16
ENDBRANCH   3  14
ENDBRANCH  15  10
TORSDOF 4
ENDMDL
