MODEL 1
REMARK VINA RESULT:      -1.1      0.000      0.000
REMARK  Name = 45360775
REMARK  9 active torsions:
REMARK  status: ('A' for Active; 'I' for Inactive)
REMARK    1  A    between atoms: O_3  and  C_24
REMARK    2  A    between atoms: O_4  and  C_30
REMARK    3  A    between atoms: O_4  and  C_31
REMARK    4  A    between atoms: N_7  and  C_11
REMARK    5  A    between atoms: N_7  and  C_18
REMARK    6  A    between atoms: C_10  and  C_15
REMARK    7  A    between atoms: C_15  and  C_17
REMARK    8  A    between atoms: C_17  and  C_19
REMARK    9  A    between atoms: C_18  and  C_25
REMARK                            x       y       z     vdW  Elec       q    Type
REMARK                         _______ _______ _______ _____ _____    ______ ____
ROOT
ATOM      1  O   UNL     1       0.783   2.737  26.825  0.00  0.00    -0.274 OA
ATOM      5  N   UNL     1      -1.987   2.027  24.558  0.00  0.00    -0.286 NA
ATOM      6  N   UNL     1      -0.776   4.141  25.950  0.00  0.00    -0.313 N 
ATOM      9  C   UNL     1      -0.964   1.691  25.556  0.00  0.00    +0.145 C 
ATOM     10  C   UNL     1      -2.779   3.208  24.884  0.00  0.00    +0.075 C 
ATOM     11  C   UNL     1      -0.529   0.701  23.382  0.00  0.00    +0.070 C 
ATOM     12  C   UNL     1       0.016   0.773  24.808  0.00  0.00    +0.048 C 
ATOM     13  C   UNL     1      -1.343   1.981  23.247  0.00  0.00    +0.104 C 
ATOM     14  C   UNL     1      -1.886   4.425  25.069  0.00  0.00    +0.123 C 
ATOM     16  C   UNL     1      -0.233   2.894  26.143  0.00  0.00    +0.230 C 
ATOM     32  H   UNL     1      -0.293   4.933  26.363  0.00  0.00    +0.149 HD
ENDROOT
BRANCH  11   7
ATOM      7  N   UNL     1       0.514   0.569  22.378  0.00  0.00    -0.308 NA
ATOM     33  H   UNL     1       0.088   0.576  21.451  0.00  0.00    +0.123 HD
BRANCH   7  18
ATOM     18  C   UNL     1       1.252  -0.676  22.550  0.00  0.00    +0.116 C 
BRANCH  18  25
ATOM     25  C   UNL     1       2.698  -0.429  22.893  0.00  0.00    -0.033 A 
ATOM     26  C   UNL     1       3.298   0.783  22.552  0.00  0.00    +0.008 A 
ATOM     27  C   UNL     1       3.435  -1.412  23.553  0.00  0.00    +0.008 A 
ATOM     28  C   UNL     1       4.638   1.011  22.870  0.00  0.00    +0.046 A 
ATOM     29  C   UNL     1       4.774  -1.183  23.871  0.00  0.00    +0.046 A 
ATOM     30  C   UNL     1       5.376   0.028  23.529  0.00  0.00    +0.120 A 
BRANCH  30   4
ATOM      4  O   UNL     1       6.682   0.252  23.841  0.00  0.00    -0.495 OA
ATOM     31  C   UNL     1       7.661  -0.430  23.058  0.00  0.00    +0.277 C 
ENDBRANCH  30   4
ENDBRANCH  18  25
ENDBRANCH   7  18
ENDBRANCH  11   7
BRANCH  10  15
ATOM     15  C   UNL     1      -3.880   3.486  23.859  0.00  0.00    +0.029 C 
BRANCH  15  17
ATOM     17  C   UNL     1      -5.010   2.469  23.929  0.00  0.00    +0.097 C 
BRANCH  17  19
ATOM      2  O   UNL     1      -5.087   2.142  26.274  0.00  0.00    -0.276 OA
ATOM      8  N   UNL     1      -4.586   0.276  24.985  0.00  0.00    -0.301 N 
ATOM     19  C   UNL     1      -4.900   1.621  25.171  0.00  0.00    +0.216 C 
ATOM     20  C   UNL     1      -4.357  -0.370  23.685  0.00  0.00    +0.110 C 
ATOM     21  C   UNL     1      -4.508  -0.621  26.140  0.00  0.00    +0.110 C 
ATOM     22  C   UNL     1      -3.018  -1.101  23.673  0.00  0.00    +0.050 C 
ATOM     23  C   UNL     1      -3.170  -1.354  26.171  0.00  0.00    +0.050 C 
ATOM     24  C   UNL     1      -2.903  -2.072  24.848  0.00  0.00    +0.118 C 
BRANCH  24   3
ATOM      3  O   UNL     1      -1.594  -2.628  24.857  0.00  0.00    -0.392 OA
ATOM     34  H   UNL     1      -1.350  -2.788  25.785  0.00  0.00    +0.210 HD
ENDBRANCH  24   3
ENDBRANCH  17  19
ENDBRANCH  15  17
ENDBRANCH  10  15
TORSDOF 8
ENDMDL
MODEL 2
REMARK VINA RESULT:      -1.0      1.568      6.501
REMARK  Name = 45360775
REMARK  9 active torsions:
REMARK  status: ('A' for Active; 'I' for Inactive)
REMARK    1  A    between atoms: O_3  and  C_24
REMARK    2  A    between atoms: O_4  and  C_30
REMARK    3  A    between atoms: O_4  and  C_31
REMARK    4  A    between atoms: N_7  and  C_11
REMARK    5  A    between atoms: N_7  and  C_18
REMARK    6  A    between atoms: C_10  and  C_15
REMARK    7  A    between atoms: C_15  and  C_17
REMARK    8  A    between atoms: C_17  and  C_19
REMARK    9  A    between atoms: C_18  and  C_25
REMARK                            x       y       z     vdW  Elec       q    Type
REMARK                         _______ _______ _______ _____ _____    ______ ____
ROOT
ATOM      1  O   UNL     1      -3.294   4.569  27.356  0.00  0.00    -0.274 OA
ATOM      5  N   UNL     1      -2.581   3.244  24.031  0.00  0.00    -0.286 NA
ATOM      6  N   UNL     1      -1.485   3.412  26.608  0.00  0.00    -0.313 N 
ATOM      9  C   UNL     1      -3.239   4.132  24.997  0.00  0.00    +0.145 C 
ATOM     10  C   UNL     1      -1.135   3.145  24.194  0.00  0.00    +0.075 C 
ATOM     11  C   UNL     1      -4.768   2.551  23.968  0.00  0.00    +0.070 C 
ATOM     12  C   UNL     1      -4.719   3.715  24.957  0.00  0.00    +0.048 C 
ATOM     13  C   UNL     1      -3.349   2.000  23.995  0.00  0.00    +0.104 C 
ATOM     14  C   UNL     1      -0.781   2.663  25.593  0.00  0.00    +0.123 C 
ATOM     16  C   UNL     1      -2.693   4.038  26.418  0.00  0.00    +0.230 C 
ATOM     32  H   UNL     1      -1.120   3.374  27.555  0.00  0.00    +0.149 HD
ENDROOT
BRANCH  11   7
ATOM      7  N   UNL     1      -5.779   1.561  24.303  0.00  0.00    -0.308 NA
ATOM     33  H   UNL     1      -6.671   2.034  24.454  0.00  0.00    +0.123 HD
BRANCH   7  18
ATOM     18  C   UNL     1      -5.418   0.833  25.513  0.00  0.00    +0.116 C 
BRANCH  18  25
ATOM     25  C   UNL     1      -4.323  -0.169  25.258  0.00  0.00    -0.033 A 
ATOM     26  C   UNL     1      -3.129  -0.095  25.976  0.00  0.00    +0.008 A 
ATOM     27  C   UNL     1      -4.502  -1.170  24.304  0.00  0.00    +0.008 A 
ATOM     28  C   UNL     1      -2.115  -1.024  25.740  0.00  0.00    +0.046 A 
ATOM     29  C   UNL     1      -3.488  -2.098  24.068  0.00  0.00    +0.046 A 
ATOM     30  C   UNL     1      -2.294  -2.025  24.786  0.00  0.00    +0.120 A 
BRANCH  30   4
ATOM      4  O   UNL     1      -1.305  -2.932  24.556  0.00  0.00    -0.495 OA
ATOM     31  C   UNL     1      -0.111  -2.797  25.326  0.00  0.00    +0.277 C 
ENDBRANCH  30   4
ENDBRANCH  18  25
ENDBRANCH   7  18
ENDBRANCH  11   7
BRANCH  10  15
ATOM     15  C   UNL     1      -0.476   2.268  23.129  0.00  0.00    +0.029 C 
BRANCH  15  17
ATOM     17  C   UNL     1       0.992   1.994  23.428  0.00  0.00    +0.097 C 
BRANCH  17  19
ATOM      2  O   UNL     1       0.399  -0.299  23.456  0.00  0.00    -0.276 OA
ATOM      8  N   UNL     1       2.628   0.189  23.022  0.00  0.00    -0.301 N 
ATOM     19  C   UNL     1       1.305   0.525  23.304  0.00  0.00    +0.216 C 
ATOM     20  C   UNL     1       3.726   1.148  22.838  0.00  0.00    +0.110 C 
ATOM     21  C   UNL     1       3.001  -1.216  22.841  0.00  0.00    +0.110 C 
ATOM     22  C   UNL     1       4.899   0.810  23.754  0.00  0.00    +0.050 C 
ATOM     23  C   UNL     1       4.159  -1.595  23.759  0.00  0.00    +0.050 C 
ATOM     24  C   UNL     1       5.342  -0.642  23.578  0.00  0.00    +0.118 C 
BRANCH  24   3
ATOM      3  O   UNL     1       6.348  -0.934  24.541  0.00  0.00    -0.392 OA
ATOM     34  H   UNL     1       5.929  -1.443  25.257  0.00  0.00    +0.210 HD
ENDBRANCH  24   3
ENDBRANCH  17  19
ENDBRANCH  15  17
ENDBRANCH  10  15
TORSDOF 8
ENDMDL
MODEL 3
REMARK VINA RESULT:       2.0      1.433      2.087
REMARK  Name = 45360775
REMARK  9 active torsions:
REMARK  status: ('A' for Active; 'I' for Inactive)
REMARK    1  A    between atoms: O_3  and  C_24
REMARK    2  A    between atoms: O_4  and  C_30
REMARK    3  A    between atoms: O_4  and  C_31
REMARK    4  A    between atoms: N_7  and  C_11
REMARK    5  A    between atoms: N_7  and  C_18
REMARK    6  A    between atoms: C_10  and  C_15
REMARK    7  A    between atoms: C_15  and  C_17
REMARK    8  A    between atoms: C_17  and  C_19
REMARK    9  A    between atoms: C_18  and  C_25
REMARK                            x       y       z     vdW  Elec       q    Type
REMARK                         _______ _______ _______ _____ _____    ______ ____
ROOT
ATOM      1  O   UNL     1      -0.187   5.561  24.656  0.00  0.00    -0.274 OA
ATOM      5  N   UNL     1      -2.728   3.239  25.866  0.00  0.00    -0.286 NA
ATOM      6  N   UNL     1      -2.344   5.289  23.990  0.00  0.00    -0.313 N 
ATOM      9  C   UNL     1      -1.493   4.027  25.959  0.00  0.00    +0.145 C 
ATOM     10  C   UNL     1      -3.885   3.989  25.388  0.00  0.00    +0.075 C 
ATOM     11  C   UNL     1      -1.088   1.634  25.876  0.00  0.00    +0.070 C 
ATOM     12  C   UNL     1      -0.370   2.978  26.000  0.00  0.00    +0.048 C 
ATOM     13  C   UNL     1      -2.395   1.992  25.182  0.00  0.00    +0.104 C 
ATOM     14  C   UNL     1      -3.609   4.592  24.019  0.00  0.00    +0.123 C 
ATOM     16  C   UNL     1      -1.276   5.002  24.806  0.00  0.00    +0.230 C 
ATOM     32  H   UNL     1      -2.193   5.955  23.239  0.00  0.00    +0.149 HD
ENDROOT
BRANCH  11   7
ATOM      7  N   UNL     1      -0.308   0.635  25.164  0.00  0.00    -0.308 NA
ATOM     33  H   UNL     1       0.551   0.450  25.683  0.00  0.00    +0.123 HD
BRANCH   7  18
ATOM     18  C   UNL     1       0.037   1.097  23.826  0.00  0.00    +0.116 C 
BRANCH  18  25
ATOM     25  C   UNL     1       1.469   0.785  23.477  0.00  0.00    -0.033 A 
ATOM     26  C   UNL     1       1.895  -0.541  23.401  0.00  0.00    +0.008 A 
ATOM     27  C   UNL     1       2.368   1.822  23.230  0.00  0.00    +0.008 A 
ATOM     28  C   UNL     1       3.222  -0.829  23.077  0.00  0.00    +0.046 A 
ATOM     29  C   UNL     1       3.694   1.534  22.907  0.00  0.00    +0.046 A 
ATOM     30  C   UNL     1       4.121   0.208  22.831  0.00  0.00    +0.120 A 
BRANCH  30   4
ATOM      4  O   UNL     1       5.415  -0.074  22.514  0.00  0.00    -0.495 OA
ATOM     31  C   UNL     1       6.303  -0.345  23.597  0.00  0.00    +0.277 C 
ENDBRANCH  30   4
ENDBRANCH  18  25
ENDBRANCH   7  18
ENDBRANCH  11   7
BRANCH  10  15
ATOM     15  C   UNL     1      -5.167   3.156  25.372  0.00  0.00    +0.029 C 
BRANCH  15  17
ATOM     17  C   UNL     1      -5.071   1.960  24.434  0.00  0.00    +0.097 C 
BRANCH  17  19
ATOM      2  O   UNL     1      -5.643   0.608  26.294  0.00  0.00    -0.276 OA
ATOM      8  N   UNL     1      -4.384  -0.405  24.625  0.00  0.00    -0.301 N 
ATOM     19  C   UNL     1      -5.063   0.665  25.206  0.00  0.00    +0.216 C 
ATOM     20  C   UNL     1      -3.685  -0.366  23.334  0.00  0.00    +0.110 C 
ATOM     21  C   UNL     1      -4.371  -1.709  25.293  0.00  0.00    +0.110 C 
ATOM     22  C   UNL     1      -2.245  -0.847  23.483  0.00  0.00    +0.050 C 
ATOM     23  C   UNL     1      -2.943  -2.212  25.478  0.00  0.00    +0.050 C 
ATOM     24  C   UNL     1      -2.184  -2.220  24.151  0.00  0.00    +0.118 C 
BRANCH  24   3
ATOM      3  O   UNL     1      -0.821  -2.560  24.377  0.00  0.00    -0.392 OA
ATOM     34  H   UNL     1      -0.428  -2.786  23.516  0.00  0.00    +0.210 HD
ENDBRANCH  24   3
ENDBRANCH  17  19
ENDBRANCH  15  17
ENDBRANCH  10  15
TORSDOF 8
ENDMDL
