MODEL 1
REMARK VINA RESULT:      -4.4      0.000      0.000
REMARK  Name = 75536702
REMARK  8 active torsions:
REMARK  status: ('A' for Active; 'I' for Inactive)
REMARK    1  A    between atoms: S_1  and  N_9
REMARK    2  A    between atoms: S_1  and  C_21
REMARK    3  A    between atoms: O_5  and  C_12
REMARK    4  A    between atoms: N_8  and  C_10
REMARK    5  A    between atoms: N_8  and  C_11
REMARK    6  A    between atoms: N_9  and  C_20
REMARK    7  A    between atoms: C_13  and  C_20
REMARK    8  A    between atoms: C_26  and  C_27
REMARK                            x       y       z     vdW  Elec       q    Type
REMARK                         _______ _______ _______ _____ _____    ______ ____
ROOT
ATOM      4  O   UNL     1      -0.860   0.932  26.130  0.00  0.00    -0.371 OA
ATOM     10  C   UNL     1       0.616   0.843  24.270  0.00  0.00    +0.111 C 
ATOM     12  C   UNL     1      -0.119   2.171  24.257  0.00  0.00    +0.164 C 
ATOM     13  C   UNL     1      -0.565   2.275  25.708  0.00  0.00    +0.164 C 
ATOM     16  C   UNL     1      -0.273   0.018  25.187  0.00  0.00    +0.181 C 
ENDROOT
BRANCH  12   5
ATOM      5  O   UNL     1       0.714   3.252  23.883  0.00  0.00    -0.388 OA
ATOM     29  H   UNL     1       0.188   4.069  23.914  0.00  0.00    +0.210 HD
ENDBRANCH  12   5
BRANCH  10   8
ATOM      8  N   UNL     1       0.775   0.251  22.952  0.00  0.00    -0.306 NA
ATOM     28  H   UNL     1       0.399   0.874  22.238  0.00  0.00    +0.123 HD
BRANCH   8  11
ATOM      2  F   UNL     1       6.305  -0.310  23.214  0.00  0.00    -0.206 F 
ATOM      3  F   UNL     1       4.987   0.472  24.758  0.00  0.00    -0.206 F 
ATOM     11  C   UNL     1       2.183  -0.030  22.678  0.00  0.00    +0.054 C 
ATOM     14  C   UNL     1       2.994   1.271  22.739  0.00  0.00    +0.024 C 
ATOM     15  C   UNL     1       2.714  -1.062  23.681  0.00  0.00    +0.024 C 
ATOM     17  C   UNL     1       4.484   1.007  22.528  0.00  0.00    +0.077 C 
ATOM     18  C   UNL     1       4.203  -1.327  23.469  0.00  0.00    +0.077 C 
ATOM     19  C   UNL     1       5.007  -0.038  23.499  0.00  0.00    +0.249 C 
ENDBRANCH   8  11
ENDBRANCH  10   8
BRANCH  13  20
ATOM     20  C   UNL     1      -1.791   3.152  25.899  0.00  0.00    +0.140 C 
BRANCH  20   9
ATOM      9  N   UNL     1      -2.297   3.588  24.583  0.00  0.00    -0.187 NA
ATOM     30  H   UNL     1      -1.885   4.452  24.210  0.00  0.00    +0.148 HD
BRANCH   9   1
ATOM      1  S   UNL     1      -3.870   3.163  24.092  0.00  0.00    +0.058 S 
ATOM      6  O   UNL     1      -4.046   3.506  22.694  0.00  0.00    -0.153 OA
ATOM      7  O   UNL     1      -4.817   3.634  25.085  0.00  0.00    -0.153 OA
BRANCH   1  21
ATOM     21  C   UNL     1      -3.825   1.400  24.219  0.00  0.00    +0.105 A 
ATOM     22  C   UNL     1      -4.307   0.771  25.366  0.00  0.00    +0.029 A 
ATOM     23  C   UNL     1      -3.305   0.639  23.172  0.00  0.00    +0.029 A 
ATOM     24  C   UNL     1      -4.269  -0.620  25.467  0.00  0.00    +0.005 A 
ATOM     25  C   UNL     1      -3.267  -0.752  23.274  0.00  0.00    +0.005 A 
ATOM     26  C   UNL     1      -3.749  -1.381  24.420  0.00  0.00    -0.050 A 
ATOM     27  C   UNL     1      -3.708  -2.868  24.530  0.00  0.00    +0.044 C 
ENDBRANCH   1  21
ENDBRANCH   9   1
ENDBRANCH  20   9
ENDBRANCH  13  20
TORSDOF 7
ENDMDL
MODEL 2
REMARK VINA RESULT:      -3.7      1.903      2.501
REMARK  Name = 75536702
REMARK  8 active torsions:
REMARK  status: ('A' for Active; 'I' for Inactive)
REMARK    1  A    between atoms: S_1  and  N_9
REMARK    2  A    between atoms: S_1  and  C_21
REMARK    3  A    between atoms: O_5  and  C_12
REMARK    4  A    between atoms: N_8  and  C_10
REMARK    5  A    between atoms: N_8  and  C_11
REMARK    6  A    between atoms: N_9  and  C_20
REMARK    7  A    between atoms: C_13  and  C_20
REMARK    8  A    between atoms: C_26  and  C_27
REMARK                            x       y       z     vdW  Elec       q    Type
REMARK                         _______ _______ _______ _____ _____    ______ ____
ROOT
ATOM      4  O   UNL     1      -1.933   3.738  26.310  0.00  0.00    -0.371 OA
ATOM     10  C   UNL     1      -0.935   2.378  24.638  0.00  0.00    +0.111 C 
ATOM     12  C   UNL     1      -2.400   2.585  24.299  0.00  0.00    +0.164 C 
ATOM     13  C   UNL     1      -2.714   3.835  25.108  0.00  0.00    +0.164 C 
ATOM     16  C   UNL     1      -0.913   2.742  26.114  0.00  0.00    +0.181 C 
ENDROOT
BRANCH  12   5
ATOM      5  O   UNL     1      -2.618   2.783  22.916  0.00  0.00    -0.388 OA
ATOM     29  H   UNL     1      -2.945   3.689  22.784  0.00  0.00    +0.210 HD
ENDBRANCH  12   5
BRANCH  10   8
ATOM      8  N   UNL     1      -0.461   1.028  24.381  0.00  0.00    -0.306 NA
ATOM     28  H   UNL     1      -1.236   0.433  24.088  0.00  0.00    +0.123 HD
BRANCH   8  11
ATOM      2  F   UNL     1       4.114   0.112  21.350  0.00  0.00    -0.206 F 
ATOM      3  F   UNL     1       3.601  -0.786  23.263  0.00  0.00    -0.206 F 
ATOM     11  C   UNL     1       0.581   1.031  23.356  0.00  0.00    +0.054 C 
ATOM     14  C   UNL     1       1.904   1.519  23.961  0.00  0.00    +0.024 C 
ATOM     15  C   UNL     1       0.728  -0.373  22.758  0.00  0.00    +0.024 C 
ATOM     17  C   UNL     1       3.035   1.469  22.936  0.00  0.00    +0.077 C 
ATOM     18  C   UNL     1       1.859  -0.424  21.733  0.00  0.00    +0.077 C 
ATOM     19  C   UNL     1       3.164   0.086  22.318  0.00  0.00    +0.249 C 
ENDBRANCH   8  11
ENDBRANCH  10   8
BRANCH  13  20
ATOM     20  C   UNL     1      -4.186   3.967  25.462  0.00  0.00    +0.140 C 
BRANCH  20   9
ATOM      9  N   UNL     1      -4.985   3.076  24.599  0.00  0.00    -0.187 NA
ATOM     30  H   UNL     1      -5.320   3.489  23.720  0.00  0.00    +0.148 HD
BRANCH   9   1
ATOM      1  S   UNL     1      -5.875   1.799  25.286  0.00  0.00    +0.058 S 
ATOM      6  O   UNL     1      -7.060   1.554  24.486  0.00  0.00    -0.153 OA
ATOM      7  O   UNL     1      -5.993   2.022  26.715  0.00  0.00    -0.153 OA
BRANCH   1  21
ATOM     21  C   UNL     1      -4.776   0.432  25.067  0.00  0.00    +0.105 A 
ATOM     22  C   UNL     1      -4.732  -0.237  23.844  0.00  0.00    +0.029 A 
ATOM     23  C   UNL     1      -3.956   0.021  26.117  0.00  0.00    +0.029 A 
ATOM     24  C   UNL     1      -3.867  -1.317  23.671  0.00  0.00    +0.005 A 
ATOM     25  C   UNL     1      -3.091  -1.059  25.943  0.00  0.00    +0.005 A 
ATOM     26  C   UNL     1      -3.046  -1.728  24.721  0.00  0.00    -0.050 A 
ATOM     27  C   UNL     1      -2.122  -2.884  24.536  0.00  0.00    +0.044 C 
ENDBRANCH   1  21
ENDBRANCH   9   1
ENDBRANCH  20   9
ENDBRANCH  13  20
TORSDOF 7
ENDMDL
MODEL 3
REMARK VINA RESULT:      -3.4      1.979      3.632
REMARK  Name = 75536702
REMARK  8 active torsions:
REMARK  status: ('A' for Active; 'I' for Inactive)
REMARK    1  A    between atoms: S_1  and  N_9
REMARK    2  A    between atoms: S_1  and  C_21
REMARK    3  A    between atoms: O_5  and  C_12
REMARK    4  A    between atoms: N_8  and  C_10
REMARK    5  A    between atoms: N_8  and  C_11
REMARK    6  A    between atoms: N_9  and  C_20
REMARK    7  A    between atoms: C_13  and  C_20
REMARK    8  A    between atoms: C_26  and  C_27
REMARK                            x       y       z     vdW  Elec       q    Type
REMARK                         _______ _______ _______ _____ _____    ______ ____
ROOT
ATOM      4  O   UNL     1      -1.564  -2.557  23.938  0.00  0.00    -0.371 OA
ATOM     10  C   UNL     1       0.133  -0.904  24.114  0.00  0.00    +0.111 C 
ATOM     12  C   UNL     1      -1.017  -0.534  25.034  0.00  0.00    +0.164 C 
ATOM     13  C   UNL     1      -1.706  -1.882  25.199  0.00  0.00    +0.164 C 
ATOM     16  C   UNL     1      -0.539  -1.894  23.177  0.00  0.00    +0.181 C 
ENDROOT
BRANCH  12   5
ATOM      5  O   UNL     1      -0.578  -0.012  26.273  0.00  0.00    -0.388 OA
ATOM     29  H   UNL     1      -1.307  -0.087  26.912  0.00  0.00    +0.210 HD
ENDBRANCH  12   5
BRANCH  10   8
ATOM      8  N   UNL     1       0.712   0.233  23.418  0.00  0.00    -0.306 NA
ATOM     28  H   UNL     1       0.711   1.054  24.022  0.00  0.00    +0.123 HD
BRANCH   8  11
ATOM      2  F   UNL     1       6.232  -0.338  23.016  0.00  0.00    -0.206 F 
ATOM      3  F   UNL     1       5.115   0.517  24.675  0.00  0.00    -0.206 F 
ATOM     11  C   UNL     1       2.076  -0.066  22.984  0.00  0.00    +0.054 C 
ATOM     14  C   UNL     1       2.886   1.233  22.885  0.00  0.00    +0.024 C 
ATOM     15  C   UNL     1       2.728  -1.054  23.958  0.00  0.00    +0.024 C 
ATOM     17  C   UNL     1       4.338   0.954  22.503  0.00  0.00    +0.077 C 
ATOM     18  C   UNL     1       4.180  -1.334  23.576  0.00  0.00    +0.077 C 
ATOM     19  C   UNL     1       4.979  -0.049  23.448  0.00  0.00    +0.249 C 
ENDBRANCH   8  11
ENDBRANCH  10   8
BRANCH  13  20
ATOM     20  C   UNL     1      -3.178  -1.764  25.554  0.00  0.00    +0.140 C 
BRANCH  20   9
ATOM      9  N   UNL     1      -3.503  -0.356  25.856  0.00  0.00    -0.187 NA
ATOM     30  H   UNL     1      -3.689  -0.143  26.844  0.00  0.00    +0.148 HD
BRANCH   9   1
ATOM      1  S   UNL     1      -4.223   0.625  24.666  0.00  0.00    +0.058 S 
ATOM      6  O   UNL     1      -5.566   0.979  25.084  0.00  0.00    -0.153 OA
ATOM      7  O   UNL     1      -3.997   0.029  23.363  0.00  0.00    -0.153 OA
BRANCH   1  21
ATOM     21  C   UNL     1      -3.225   2.082  24.747  0.00  0.00    +0.105 A 
ATOM     22  C   UNL     1      -2.147   2.237  23.875  0.00  0.00    +0.029 A 
ATOM     23  C   UNL     1      -3.515   3.074  25.683  0.00  0.00    +0.029 A 
ATOM     24  C   UNL     1      -1.358   3.386  23.940  0.00  0.00    +0.005 A 
ATOM     25  C   UNL     1      -2.725   4.222  25.747  0.00  0.00    +0.005 A 
ATOM     26  C   UNL     1      -1.648   4.378  24.876  0.00  0.00    -0.050 A 
ATOM     27  C   UNL     1      -0.803   5.606  24.946  0.00  0.00    +0.044 C 
ENDBRANCH   1  21
ENDBRANCH   9   1
ENDBRANCH  20   9
ENDBRANCH  13  20
TORSDOF 7
ENDMDL
MODEL 4
REMARK VINA RESULT:      -3.2      3.018      5.931
REMARK  Name = 75536702
REMARK  8 active torsions:
REMARK  status: ('A' for Active; 'I' for Inactive)
REMARK    1  A    between atoms: S_1  and  N_9
REMARK    2  A    between atoms: S_1  and  C_21
REMARK    3  A    between atoms: O_5  and  C_12
REMARK    4  A    between atoms: N_8  and  C_10
REMARK    5  A    between atoms: N_8  and  C_11
REMARK    6  A    between atoms: N_9  and  C_20
REMARK    7  A    between atoms: C_13  and  C_20
REMARK    8  A    between atoms: C_26  and  C_27
REMARK                            x       y       z     vdW  Elec       q    Type
REMARK                         _______ _______ _______ _____ _____    ______ ____
ROOT
ATOM      4  O   UNL     1      -2.918   3.575  23.551  0.00  0.00    -0.371 OA
ATOM     10  C   UNL     1      -4.746   2.300  24.372  0.00  0.00    +0.111 C 
ATOM     12  C   UNL     1      -4.095   3.035  25.529  0.00  0.00    +0.164 C 
ATOM     13  C   UNL     1      -3.358   4.146  24.795  0.00  0.00    +0.164 C 
ATOM     16  C   UNL     1      -3.646   2.356  23.324  0.00  0.00    +0.181 C 
ENDROOT
BRANCH  12   5
ATOM      5  O   UNL     1      -5.038   3.549  26.450  0.00  0.00    -0.388 OA
ATOM     29  H   UNL     1      -5.273   2.842  27.075  0.00  0.00    +0.210 HD
ENDBRANCH  12   5
BRANCH  10   8
ATOM      8  N   UNL     1      -5.152   0.943  24.696  0.00  0.00    -0.306 NA
ATOM     28  H   UNL     1      -5.912   0.647  24.085  0.00  0.00    +0.123 HD
BRANCH   8  11
ATOM      2  F   UNL     1      -1.740  -3.449  24.880  0.00  0.00    -0.206 F 
ATOM      3  F   UNL     1      -3.776  -3.331  25.637  0.00  0.00    -0.206 F 
ATOM     11  C   UNL     1      -4.024   0.022  24.573  0.00  0.00    +0.054 C 
ATOM     14  C   UNL     1      -3.551  -0.411  25.966  0.00  0.00    +0.024 C 
ATOM     15  C   UNL     1      -4.430  -1.189  23.724  0.00  0.00    +0.024 C 
ATOM     17  C   UNL     1      -2.417  -1.431  25.876  0.00  0.00    +0.077 C 
ATOM     18  C   UNL     1      -3.297  -2.208  23.632  0.00  0.00    +0.077 C 
ATOM     19  C   UNL     1      -2.805  -2.618  25.010  0.00  0.00    +0.249 C 
ENDBRANCH   8  11
ENDBRANCH  10   8
BRANCH  13  20
ATOM     20  C   UNL     1      -2.163   4.684  25.563  0.00  0.00    +0.140 C 
BRANCH  20   9
ATOM      9  N   UNL     1      -0.932   4.020  25.092  0.00  0.00    -0.187 NA
ATOM     30  H   UNL     1      -0.736   4.104  24.087  0.00  0.00    +0.148 HD
BRANCH   9   1
ATOM      1  S   UNL     1      -0.322   2.669  25.927  0.00  0.00    +0.058 S 
ATOM      6  O   UNL     1      -1.412   1.987  26.599  0.00  0.00    -0.153 OA
ATOM      7  O   UNL     1       0.859   3.067  26.669  0.00  0.00    -0.153 OA
BRANCH   1  21
ATOM     21  C   UNL     1       0.226   1.640  24.597  0.00  0.00    +0.105 A 
ATOM     22  C   UNL     1      -0.622   0.664  24.076  0.00  0.00    +0.029 A 
ATOM     23  C   UNL     1       1.508   1.803  24.072  0.00  0.00    +0.029 A 
ATOM     24  C   UNL     1      -0.189  -0.150  23.029  0.00  0.00    +0.005 A 
ATOM     25  C   UNL     1       1.941   0.989  23.026  0.00  0.00    +0.005 A 
ATOM     26  C   UNL     1       1.093   0.014  22.504  0.00  0.00    -0.050 A 
ATOM     27  C   UNL     1       1.556  -0.857  21.384  0.00  0.00    +0.044 C 
ENDBRANCH   1  21
ENDBRANCH   9   1
ENDBRANCH  20   9
ENDBRANCH  13  20
TORSDOF 7
ENDMDL
MODEL 5
REMARK VINA RESULT:      -2.9      4.181      7.115
REMARK  Name = 75536702
REMARK  8 active torsions:
REMARK  status: ('A' for Active; 'I' for Inactive)
REMARK    1  A    between atoms: S_1  and  N_9
REMARK    2  A    between atoms: S_1  and  C_21
REMARK    3  A    between atoms: O_5  and  C_12
REMARK    4  A    between atoms: N_8  and  C_10
REMARK    5  A    between atoms: N_8  and  C_11
REMARK    6  A    between atoms: N_9  and  C_20
REMARK    7  A    between atoms: C_13  and  C_20
REMARK    8  A    between atoms: C_26  and  C_27
REMARK                            x       y       z     vdW  Elec       q    Type
REMARK                         _______ _______ _______ _____ _____    ______ ____
ROOT
ATOM      4  O   UNL     1      -1.824  -0.445  25.988  0.00  0.00    -0.371 OA
ATOM     10  C   UNL     1      -3.964  -0.926  25.075  0.00  0.00    +0.111 C 
ATOM     12  C   UNL     1      -2.962  -1.939  24.552  0.00  0.00    +0.164 C 
ATOM     13  C   UNL     1      -1.858  -1.827  25.594  0.00  0.00    +0.164 C 
ATOM     16  C   UNL     1      -3.044   0.184  25.557  0.00  0.00    +0.181 C 
ENDROOT
BRANCH  12   5
ATOM      5  O   UNL     1      -3.494  -3.249  24.486  0.00  0.00    -0.388 OA
ATOM     29  H   UNL     1      -3.183  -3.664  23.665  0.00  0.00    +0.210 HD
ENDBRANCH  12   5
BRANCH  10   8
ATOM      8  N   UNL     1      -4.918  -0.477  24.075  0.00  0.00    -0.306 NA
ATOM     28  H   UNL     1      -5.754  -1.061  24.099  0.00  0.00    +0.123 HD
BRANCH   8  11
ATOM      2  F   UNL     1      -5.180   4.814  25.776  0.00  0.00    -0.206 F 
ATOM      3  F   UNL     1      -3.724   3.311  26.371  0.00  0.00    -0.206 F 
ATOM     11  C   UNL     1      -5.280   0.922  24.295  0.00  0.00    +0.054 C 
ATOM     14  C   UNL     1      -5.628   1.142  25.773  0.00  0.00    +0.024 C 
ATOM     15  C   UNL     1      -4.129   1.833  23.855  0.00  0.00    +0.024 C 
ATOM     17  C   UNL     1      -5.943   2.609  26.056  0.00  0.00    +0.077 C 
ATOM     18  C   UNL     1      -4.443   3.301  24.137  0.00  0.00    +0.077 C 
ATOM     19  C   UNL     1      -4.818   3.519  25.593  0.00  0.00    +0.249 C 
ENDBRANCH   8  11
ENDBRANCH  10   8
BRANCH  13  20
ATOM     20  C   UNL     1      -0.495  -2.244  25.071  0.00  0.00    +0.140 C 
BRANCH  20   9
ATOM      9  N   UNL     1       0.397  -1.069  25.020  0.00  0.00    -0.187 NA
ATOM     30  H   UNL     1       0.541  -0.579  25.911  0.00  0.00    +0.148 HD
BRANCH   9   1
ATOM      1  S   UNL     1       0.559  -0.187  23.574  0.00  0.00    +0.058 S 
ATOM      6  O   UNL     1      -0.368  -0.707  22.586  0.00  0.00    -0.153 OA
ATOM      7  O   UNL     1       1.969  -0.058  23.256  0.00  0.00    -0.153 OA
BRANCH   1  21
ATOM     21  C   UNL     1      -0.007   1.415  24.062  0.00  0.00    +0.105 A 
ATOM     22  C   UNL     1      -0.664   2.233  23.142  0.00  0.00    +0.029 A 
ATOM     23  C   UNL     1       0.204   1.862  25.366  0.00  0.00    +0.029 A 
ATOM     24  C   UNL     1      -1.108   3.498  23.526  0.00  0.00    +0.005 A 
ATOM     25  C   UNL     1      -0.241   3.127  25.749  0.00  0.00    +0.005 A 
ATOM     26  C   UNL     1      -0.897   3.944  24.831  0.00  0.00    -0.050 A 
ATOM     27  C   UNL     1      -1.372   5.298  25.240  0.00  0.00    +0.044 C 
ENDBRANCH   1  21
ENDBRANCH   9   1
ENDBRANCH  20   9
ENDBRANCH  13  20
TORSDOF 7
ENDMDL
MODEL 6
REMARK VINA RESULT:      -2.7      3.179      5.784
REMARK  Name = 75536702
REMARK  8 active torsions:
REMARK  status: ('A' for Active; 'I' for Inactive)
REMARK    1  A    between atoms: S_1  and  N_9
REMARK    2  A    between atoms: S_1  and  C_21
REMARK    3  A    between atoms: O_5  and  C_12
REMARK    4  A    between atoms: N_8  and  C_10
REMARK    5  A    between atoms: N_8  and  C_11
REMARK    6  A    between atoms: N_9  and  C_20
REMARK    7  A    between atoms: C_13  and  C_20
REMARK    8  A    between atoms: C_26  and  C_27
REMARK                            x       y       z     vdW  Elec       q    Type
REMARK                         _______ _______ _______ _____ _____    ______ ____
ROOT
ATOM      4  O   UNL     1      -4.480   3.626  24.208  0.00  0.00    -0.371 OA
ATOM     10  C   UNL     1      -5.800   1.737  24.784  0.00  0.00    +0.111 C 
ATOM     12  C   UNL     1      -5.359   2.440  26.055  0.00  0.00    +0.164 C 
ATOM     13  C   UNL     1      -5.024   3.826  25.523  0.00  0.00    +0.164 C 
ATOM     16  C   UNL     1      -4.811   2.295  23.774  0.00  0.00    +0.181 C 
ENDROOT
BRANCH  12   5
ATOM      5  O   UNL     1      -6.377   2.484  27.036  0.00  0.00    -0.388 OA
ATOM     29  H   UNL     1      -6.017   2.910  27.832  0.00  0.00    +0.210 HD
ENDBRANCH  12   5
BRANCH  10   8
ATOM      8  N   UNL     1      -5.760   0.287  24.875  0.00  0.00    -0.306 NA
ATOM     28  H   UNL     1      -6.384  -0.126  24.182  0.00  0.00    +0.123 HD
BRANCH   8  11
ATOM      2  F   UNL     1      -1.073  -2.711  24.834  0.00  0.00    -0.206 F 
ATOM      3  F   UNL     1      -2.983  -3.266  25.716  0.00  0.00    -0.206 F 
ATOM     11  C   UNL     1      -4.399  -0.207  24.679  0.00  0.00    +0.054 C 
ATOM     14  C   UNL     1      -3.726  -0.432  26.039  0.00  0.00    +0.024 C 
ATOM     15  C   UNL     1      -4.427  -1.499  23.853  0.00  0.00    +0.024 C 
ATOM     17  C   UNL     1      -2.325  -1.017  25.875  0.00  0.00    +0.077 C 
ATOM     18  C   UNL     1      -3.026  -2.083  23.688  0.00  0.00    +0.077 C 
ATOM     19  C   UNL     1      -2.345  -2.281  25.032  0.00  0.00    +0.249 C 
ENDBRANCH   8  11
ENDBRANCH  10   8
BRANCH  13  20
ATOM     20  C   UNL     1      -4.020   4.574  26.384  0.00  0.00    +0.140 C 
BRANCH  20   9
ATOM      9  N   UNL     1      -2.678   3.989  26.201  0.00  0.00    -0.187 NA
ATOM     30  H   UNL     1      -2.225   3.636  27.053  0.00  0.00    +0.148 HD
BRANCH   9   1
ATOM      1  S   UNL     1      -1.692   4.506  24.913  0.00  0.00    +0.058 S 
ATOM      6  O   UNL     1      -0.620   5.333  25.431  0.00  0.00    -0.153 OA
ATOM      7  O   UNL     1      -2.537   4.993  23.839  0.00  0.00    -0.153 OA
BRANCH   1  21
ATOM     21  C   UNL     1      -0.987   2.981  24.363  0.00  0.00    +0.105 A 
ATOM     22  C   UNL     1       0.288   2.610  24.787  0.00  0.00    +0.029 A 
ATOM     23  C   UNL     1      -1.706   2.151  23.503  0.00  0.00    +0.029 A 
ATOM     24  C   UNL     1       0.846   1.408  24.351  0.00  0.00    +0.005 A 
ATOM     25  C   UNL     1      -1.147   0.949  23.067  0.00  0.00    +0.005 A 
ATOM     26  C   UNL     1       0.128   0.578  23.491  0.00  0.00    -0.050 A 
ATOM     27  C   UNL     1       0.725  -0.707  23.024  0.00  0.00    +0.044 C 
ENDBRANCH   1  21
ENDBRANCH   9   1
ENDBRANCH  20   9
ENDBRANCH  13  20
TORSDOF 7
ENDMDL
MODEL 7
REMARK VINA RESULT:      -2.5      1.931      3.545
REMARK  Name = 75536702
REMARK  8 active torsions:
REMARK  status: ('A' for Active; 'I' for Inactive)
REMARK    1  A    between atoms: S_1  and  N_9
REMARK    2  A    between atoms: S_1  and  C_21
REMARK    3  A    between atoms: O_5  and  C_12
REMARK    4  A    between atoms: N_8  and  C_10
REMARK    5  A    between atoms: N_8  and  C_11
REMARK    6  A    between atoms: N_9  and  C_20
REMARK    7  A    between atoms: C_13  and  C_20
REMARK    8  A    between atoms: C_26  and  C_27
REMARK                            x       y       z     vdW  Elec       q    Type
REMARK                         _______ _______ _______ _____ _____    ______ ____
ROOT
ATOM      4  O   UNL     1      -1.897  -1.239  25.132  0.00  0.00    -0.371 OA
ATOM     10  C   UNL     1      -0.058  -0.162  24.083  0.00  0.00    +0.111 C 
ATOM     12  C   UNL     1      -1.347   0.477  23.601  0.00  0.00    +0.164 C 
ATOM     13  C   UNL     1      -2.309   0.072  24.709  0.00  0.00    +0.164 C 
ATOM     16  C   UNL     1      -0.567  -1.481  24.641  0.00  0.00    +0.181 C 
ENDROOT
BRANCH  12   5
ATOM      5  O   UNL     1      -1.248   1.883  23.478  0.00  0.00    -0.388 OA
ATOM     29  H   UNL     1      -1.482   2.128  22.568  0.00  0.00    +0.210 HD
ENDBRANCH  12   5
BRANCH  10   8
ATOM      8  N   UNL     1       0.935  -0.334  23.037  0.00  0.00    -0.306 NA
ATOM     28  H   UNL     1       0.734   0.287  22.254  0.00  0.00    +0.123 HD
BRANCH   8  11
ATOM      2  F   UNL     1       6.423   0.333  23.668  0.00  0.00    -0.206 F 
ATOM      3  F   UNL     1       5.369  -0.257  21.860  0.00  0.00    -0.206 F 
ATOM     11  C   UNL     1       2.279  -0.072  23.550  0.00  0.00    +0.054 C 
ATOM     14  C   UNL     1       3.133  -1.343  23.443  0.00  0.00    +0.024 C 
ATOM     15  C   UNL     1       2.914   1.089  22.777  0.00  0.00    +0.024 C 
ATOM     17  C   UNL     1       4.566  -1.087  23.904  0.00  0.00    +0.077 C 
ATOM     18  C   UNL     1       4.347   1.346  23.238  0.00  0.00    +0.077 C 
ATOM     19  C   UNL     1       5.189   0.083  23.163  0.00  0.00    +0.249 C 
ENDBRANCH   8  11
ENDBRANCH  10   8
BRANCH  13  20
ATOM     20  C   UNL     1      -3.760   0.033  24.261  0.00  0.00    +0.140 C 
BRANCH  20   9
ATOM      9  N   UNL     1      -4.640   0.330  25.408  0.00  0.00    -0.187 NA
ATOM     30  H   UNL     1      -5.050  -0.486  25.879  0.00  0.00    +0.148 HD
BRANCH   9   1
ATOM      1  S   UNL     1      -5.475   1.812  25.480  0.00  0.00    +0.058 S 
ATOM      6  O   UNL     1      -6.029   1.987  26.809  0.00  0.00    -0.153 OA
ATOM      7  O   UNL     1      -6.327   1.930  24.312  0.00  0.00    -0.153 OA
BRANCH   1  21
ATOM     21  C   UNL     1      -4.161   2.977  25.280  0.00  0.00    +0.105 A 
ATOM     22  C   UNL     1      -3.216   3.144  26.293  0.00  0.00    +0.029 A 
ATOM     23  C   UNL     1      -4.070   3.731  24.110  0.00  0.00    +0.029 A 
ATOM     24  C   UNL     1      -2.181   4.065  26.136  0.00  0.00    +0.005 A 
ATOM     25  C   UNL     1      -3.034   4.653  23.954  0.00  0.00    +0.005 A 
ATOM     26  C   UNL     1      -2.090   4.819  24.966  0.00  0.00    -0.050 A 
ATOM     27  C   UNL     1      -0.983   5.805  24.800  0.00  0.00    +0.044 C 
ENDBRANCH   1  21
ENDBRANCH   9   1
ENDBRANCH  20   9
ENDBRANCH  13  20
TORSDOF 7
ENDMDL
MODEL 8
REMARK VINA RESULT:      -2.4      3.805      5.037
REMARK  Name = 75536702
REMARK  8 active torsions:
REMARK  status: ('A' for Active; 'I' for Inactive)
REMARK    1  A    between atoms: S_1  and  N_9
REMARK    2  A    between atoms: S_1  and  C_21
REMARK    3  A    between atoms: O_5  and  C_12
REMARK    4  A    between atoms: N_8  and  C_10
REMARK    5  A    between atoms: N_8  and  C_11
REMARK    6  A    between atoms: N_9  and  C_20
REMARK    7  A    between atoms: C_13  and  C_20
REMARK    8  A    between atoms: C_26  and  C_27
REMARK                            x       y       z     vdW  Elec       q    Type
REMARK                         _______ _______ _______ _____ _____    ______ ____
ROOT
ATOM      4  O   UNL     1      -0.752   3.557  25.707  0.00  0.00    -0.371 OA
ATOM     10  C   UNL     1      -0.091   1.304  26.065  0.00  0.00    +0.111 C 
ATOM     12  C   UNL     1      -0.143   1.574  24.572  0.00  0.00    +0.164 C 
ATOM     13  C   UNL     1      -0.045   3.093  24.545  0.00  0.00    +0.164 C 
ATOM     16  C   UNL     1      -0.931   2.449  26.606  0.00  0.00    +0.181 C 
ENDROOT
BRANCH  12   5
ATOM      5  O   UNL     1       0.923   0.965  23.869  0.00  0.00    -0.388 OA
ATOM     29  H   UNL     1       0.994   0.041  24.161  0.00  0.00    +0.210 HD
ENDBRANCH  12   5
BRANCH  10   8
ATOM      8  N   UNL     1      -0.605  -0.003  26.439  0.00  0.00    -0.306 NA
ATOM     28  H   UNL     1      -1.094   0.054  27.332  0.00  0.00    +0.123 HD
BRANCH   8  11
ATOM      2  F   UNL     1      -4.289  -2.957  23.497  0.00  0.00    -0.206 F 
ATOM      3  F   UNL     1      -3.599  -3.355  25.522  0.00  0.00    -0.206 F 
ATOM     11  C   UNL     1      -1.503  -0.521  25.410  0.00  0.00    +0.054 C 
ATOM     14  C   UNL     1      -1.069  -1.936  25.004  0.00  0.00    +0.024 C 
ATOM     15  C   UNL     1      -2.947  -0.510  25.925  0.00  0.00    +0.024 C 
ATOM     17  C   UNL     1      -2.028  -2.538  23.980  0.00  0.00    +0.077 C 
ATOM     18  C   UNL     1      -3.907  -1.112  24.901  0.00  0.00    +0.077 C 
ATOM     19  C   UNL     1      -3.464  -2.501  24.473  0.00  0.00    +0.249 C 
ENDBRANCH   8  11
ENDBRANCH  10   8
BRANCH  13  20
ATOM     20  C   UNL     1      -0.649   3.711  23.296  0.00  0.00    +0.140 C 
BRANCH  20   9
ATOM      9  N   UNL     1      -2.090   3.948  23.509  0.00  0.00    -0.187 NA
ATOM     30  H   UNL     1      -2.342   4.404  24.394  0.00  0.00    +0.148 HD
BRANCH   9   1
ATOM      1  S   UNL     1      -3.238   2.937  22.764  0.00  0.00    +0.058 S 
ATOM      6  O   UNL     1      -2.600   1.696  22.365  0.00  0.00    -0.153 OA
ATOM      7  O   UNL     1      -3.994   3.712  21.798  0.00  0.00    -0.153 OA
BRANCH   1  21
ATOM     21  C   UNL     1      -4.332   2.580  24.107  0.00  0.00    +0.105 A 
ATOM     22  C   UNL     1      -5.301   1.587  23.971  0.00  0.00    +0.029 A 
ATOM     23  C   UNL     1      -4.225   3.293  25.300  0.00  0.00    +0.029 A 
ATOM     24  C   UNL     1      -6.165   1.307  25.029  0.00  0.00    +0.005 A 
ATOM     25  C   UNL     1      -5.090   3.012  26.358  0.00  0.00    +0.005 A 
ATOM     26  C   UNL     1      -6.059   2.019  26.223  0.00  0.00    -0.050 A 
ATOM     27  C   UNL     1      -6.985   1.720  27.354  0.00  0.00    +0.044 C 
ENDBRANCH   1  21
ENDBRANCH   9   1
ENDBRANCH  20   9
ENDBRANCH  13  20
TORSDOF 7
ENDMDL
MODEL 9
REMARK VINA RESULT:      -2.4      3.593      5.294
REMARK  Name = 75536702
REMARK  8 active torsions:
REMARK  status: ('A' for Active; 'I' for Inactive)
REMARK    1  A    between atoms: S_1  and  N_9
REMARK    2  A    between atoms: S_1  and  C_21
REMARK    3  A    between atoms: O_5  and  C_12
REMARK    4  A    between atoms: N_8  and  C_10
REMARK    5  A    between atoms: N_8  and  C_11
REMARK    6  A    between atoms: N_9  and  C_20
REMARK    7  A    between atoms: C_13  and  C_20
REMARK    8  A    between atoms: C_26  and  C_27
REMARK                            x       y       z     vdW  Elec       q    Type
REMARK                         _______ _______ _______ _____ _____    ______ ____
ROOT
ATOM      4  O   UNL     1      -1.373  -2.465  23.809  0.00  0.00    -0.371 OA
ATOM     10  C   UNL     1       0.126  -0.768  24.528  0.00  0.00    +0.111 C 
ATOM     12  C   UNL     1      -1.048  -0.831  25.488  0.00  0.00    +0.164 C 
ATOM     13  C   UNL     1      -1.577  -2.232  25.213  0.00  0.00    +0.164 C 
ATOM     16  C   UNL     1      -0.439  -1.489  23.315  0.00  0.00    +0.181 C 
ENDROOT
BRANCH  12   5
ATOM      5  O   UNL     1      -0.659  -0.670  26.838  0.00  0.00    -0.388 OA
ATOM     29  H   UNL     1      -0.212  -1.483  27.127  0.00  0.00    +0.210 HD
ENDBRANCH  12   5
BRANCH  10   8
ATOM      8  N   UNL     1       0.563   0.586  24.230  0.00  0.00    -0.306 NA
ATOM     28  H   UNL     1       0.754   0.683  23.232  0.00  0.00    +0.123 HD
BRANCH   8  11
ATOM      2  F   UNL     1      -2.234   5.208  25.563  0.00  0.00    -0.206 F 
ATOM      3  F   UNL     1      -0.166   5.065  24.904  0.00  0.00    -0.206 F 
ATOM     11  C   UNL     1      -0.447   1.559  24.641  0.00  0.00    +0.054 C 
ATOM     14  C   UNL     1       0.025   2.298  25.900  0.00  0.00    +0.024 C 
ATOM     15  C   UNL     1      -0.724   2.539  23.494  0.00  0.00    +0.024 C 
ATOM     17  C   UNL     1      -0.973   3.374  26.319  0.00  0.00    +0.077 C 
ATOM     18  C   UNL     1      -1.723   3.615  23.913  0.00  0.00    +0.077 C 
ATOM     19  C   UNL     1      -1.275   4.329  25.177  0.00  0.00    +0.249 C 
ENDBRANCH   8  11
ENDBRANCH  10   8
BRANCH  13  20
ATOM     20  C   UNL     1      -3.049  -2.395  25.550  0.00  0.00    +0.140 C 
BRANCH  20   9
ATOM      9  N   UNL     1      -3.703  -1.072  25.567  0.00  0.00    -0.187 NA
ATOM     30  H   UNL     1      -4.085  -0.775  26.473  0.00  0.00    +0.148 HD
BRANCH   9   1
ATOM      1  S   UNL     1      -4.409  -0.453  24.148  0.00  0.00    +0.058 S 
ATOM      6  O   UNL     1      -5.623  -1.190  23.854  0.00  0.00    -0.153 OA
ATOM      7  O   UNL     1      -3.380  -0.307  23.135  0.00  0.00    -0.153 OA
BRANCH   1  21
ATOM     21  C   UNL     1      -4.870   1.177  24.654  0.00  0.00    +0.105 A 
ATOM     22  C   UNL     1      -4.382   2.285  23.962  0.00  0.00    +0.029 A 
ATOM     23  C   UNL     1      -5.719   1.354  25.746  0.00  0.00    +0.029 A 
ATOM     24  C   UNL     1      -4.744   3.571  24.363  0.00  0.00    +0.005 A 
ATOM     25  C   UNL     1      -6.079   2.640  26.147  0.00  0.00    +0.005 A 
ATOM     26  C   UNL     1      -5.593   3.748  25.455  0.00  0.00    -0.050 A 
ATOM     27  C   UNL     1      -5.978   5.124  25.884  0.00  0.00    +0.044 C 
ENDBRANCH   1  21
ENDBRANCH   9   1
ENDBRANCH  20   9
ENDBRANCH  13  20
TORSDOF 7
ENDMDL
MODEL 10
REMARK VINA RESULT:      -2.1      4.105      6.530
REMARK  Name = 75536702
REMARK  8 active torsions:
REMARK  status: ('A' for Active; 'I' for Inactive)
REMARK    1  A    between atoms: S_1  and  N_9
REMARK    2  A    between atoms: S_1  and  C_21
REMARK    3  A    between atoms: O_5  and  C_12
REMARK    4  A    between atoms: N_8  and  C_10
REMARK    5  A    between atoms: N_8  and  C_11
REMARK    6  A    between atoms: N_9  and  C_20
REMARK    7  A    between atoms: C_13  and  C_20
REMARK    8  A    between atoms: C_26  and  C_27
REMARK                            x       y       z     vdW  Elec       q    Type
REMARK                         _______ _______ _______ _____ _____    ______ ____
ROOT
ATOM      4  O   UNL     1      -0.195   2.843  23.296  0.00  0.00    -0.371 OA
ATOM     10  C   UNL     1      -0.931   3.696  25.387  0.00  0.00    +0.111 C 
ATOM     12  C   UNL     1      -0.148   2.417  25.621  0.00  0.00    +0.164 C 
ATOM     13  C   UNL     1       0.655   2.324  24.332  0.00  0.00    +0.164 C 
ATOM     16  C   UNL     1      -1.271   3.574  23.910  0.00  0.00    +0.181 C 
ENDROOT
BRANCH  12   5
ATOM      5  O   UNL     1       0.689   2.489  26.759  0.00  0.00    -0.388 OA
ATOM     29  H   UNL     1       1.598   2.284  26.484  0.00  0.00    +0.210 HD
ENDBRANCH  12   5
BRANCH  10   8
ATOM      8  N   UNL     1      -2.108   3.823  26.231  0.00  0.00    -0.306 NA
ATOM     28  H   UNL     1      -2.180   4.773  26.594  0.00  0.00    +0.123 HD
BRANCH   8  11
ATOM      2  F   UNL     1      -7.071   1.898  24.614  0.00  0.00    -0.206 F 
ATOM      3  F   UNL     1      -6.142   1.665  26.567  0.00  0.00    -0.206 F 
ATOM     11  C   UNL     1      -3.318   3.480  25.486  0.00  0.00    +0.054 C 
ATOM     14  C   UNL     1      -3.455   1.955  25.391  0.00  0.00    +0.024 C 
ATOM     15  C   UNL     1      -4.542   4.106  26.166  0.00  0.00    +0.024 C 
ATOM     17  C   UNL     1      -4.747   1.558  24.681  0.00  0.00    +0.077 C 
ATOM     18  C   UNL     1      -5.834   3.709  25.455  0.00  0.00    +0.077 C 
ATOM     19  C   UNL     1      -5.960   2.201  25.332  0.00  0.00    +0.249 C 
ENDBRANCH   8  11
ENDBRANCH  10   8
BRANCH  13  20
ATOM     20  C   UNL     1       1.076   0.906  23.986  0.00  0.00    +0.140 C 
BRANCH  20   9
ATOM      9  N   UNL     1      -0.119   0.045  23.889  0.00  0.00    -0.187 NA
ATOM     30  H   UNL     1      -0.868   0.389  23.274  0.00  0.00    +0.148 HD
BRANCH   9   1
ATOM      1  S   UNL     1      -0.538  -0.979  25.182  0.00  0.00    +0.058 S 
ATOM      6  O   UNL     1      -0.829  -0.178  26.355  0.00  0.00    -0.153 OA
ATOM      7  O   UNL     1       0.425  -2.061  25.257  0.00  0.00    -0.153 OA
BRANCH   1  21
ATOM     21  C   UNL     1      -2.058  -1.680  24.610  0.00  0.00    +0.105 A 
ATOM     22  C   UNL     1      -2.285  -3.050  24.738  0.00  0.00    +0.029 A 
ATOM     23  C   UNL     1      -3.027  -0.863  24.030  0.00  0.00    +0.029 A 
ATOM     24  C   UNL     1      -3.482  -3.604  24.285  0.00  0.00    +0.005 A 
ATOM     25  C   UNL     1      -4.224  -1.417  23.576  0.00  0.00    +0.005 A 
ATOM     26  C   UNL     1      -4.452  -2.787  23.704  0.00  0.00    -0.050 A 
ATOM     27  C   UNL     1      -5.732  -3.380  23.219  0.00  0.00    +0.044 C 
ENDBRANCH   1  21
ENDBRANCH   9   1
ENDBRANCH  20   9
ENDBRANCH  13  20
TORSDOF 7
ENDMDL
