MODEL 1
REMARK VINA RESULT:      -4.8      0.000      0.000
REMARK  Name = 45360653
REMARK  8 active torsions:
REMARK  status: ('A' for Active; 'I' for Inactive)
REMARK    1  A    between atoms: N_7  and  C_10
REMARK    2  A    between atoms: N_7  and  C_18
REMARK    3  A    between atoms: N_8  and  C_23
REMARK    4  A    between atoms: C_11  and  C_16
REMARK    5  A    between atoms: C_16  and  C_17
REMARK    6  A    between atoms: C_17  and  C_19
REMARK    7  A    between atoms: C_18  and  C_20
REMARK    8  A    between atoms: C_23  and  C_27
REMARK                            x       y       z     vdW  Elec       q    Type
REMARK                         _______ _______ _______ _____ _____    ______ ____
ROOT
ATOM      3  O   UNL     1       0.991   2.645  26.877  0.00  0.00    -0.274 OA
ATOM      5  N   UNL     1      -1.889   2.246  24.671  0.00  0.00    -0.286 NA
ATOM      6  N   UNL     1      -0.425   4.213  26.035  0.00  0.00    -0.313 N 
ATOM      9  C   UNL     1      -0.888   1.798  25.647  0.00  0.00    +0.145 C 
ATOM     10  C   UNL     1      -0.612   0.770  23.465  0.00  0.00    +0.070 C 
ATOM     11  C   UNL     1      -2.540   3.506  25.014  0.00  0.00    +0.075 C 
ATOM     12  C   UNL     1      -0.031   0.780  24.880  0.00  0.00    +0.048 C 
ATOM     13  C   UNL     1      -1.283   2.130  23.347  0.00  0.00    +0.104 C 
ATOM     14  C   UNL     1      -1.515   4.617  25.177  0.00  0.00    +0.123 C 
ATOM     15  C   UNL     1      -0.017   2.914  26.217  0.00  0.00    +0.230 C 
ATOM     33  H   UNL     1       0.152   4.946  26.437  0.00  0.00    +0.149 HD
ENDROOT
BRANCH  10   7
ATOM      7  N   UNL     1       0.389   0.525  22.439  0.00  0.00    -0.308 NA
ATOM     34  H   UNL     1      -0.075   0.430  21.536  0.00  0.00    +0.123 HD
BRANCH   7  18
ATOM     18  C   UNL     1       1.136  -0.696  22.715  0.00  0.00    +0.116 C 
BRANCH  18  20
ATOM      1  F   UNL     1       6.586   0.339  23.676  0.00  0.00    -0.205 F 
ATOM     20  C   UNL     1       2.589  -0.420  22.972  0.00  0.00    -0.033 A 
ATOM     21  C   UNL     1       3.153   0.787  22.558  0.00  0.00    +0.008 A 
ATOM     22  C   UNL     1       3.375  -1.371  23.624  0.00  0.00    +0.008 A 
ATOM     24  C   UNL     1       4.503   1.043  22.794  0.00  0.00    +0.038 A 
ATOM     25  C   UNL     1       4.725  -1.113  23.861  0.00  0.00    +0.038 A 
ATOM     26  C   UNL     1       5.289   0.092  23.446  0.00  0.00    +0.123 A 
ENDBRANCH  18  20
ENDBRANCH   7  18
ENDBRANCH  10   7
BRANCH  11  16
ATOM     16  C   UNL     1      -3.626   3.903  24.013  0.00  0.00    +0.029 C 
BRANCH  16  17
ATOM     17  C   UNL     1      -4.973   4.072  24.700  0.00  0.00    +0.097 C 
BRANCH  17  19
ATOM      4  O   UNL     1      -5.911   2.784  26.523  0.00  0.00    -0.276 OA
ATOM      8  N   UNL     1      -5.214   1.681  24.603  0.00  0.00    -0.311 N 
ATOM     19  C   UNL     1      -5.424   2.800  25.396  0.00  0.00    +0.213 C 
ATOM     35  H   UNL     1      -4.778   1.779  23.691  0.00  0.00    +0.149 HD
BRANCH   8  23
ATOM     23  C   UNL     1      -5.560   0.350  25.041  0.00  0.00    +0.139 C 
BRANCH  23  27
ATOM      2  F   UNL     1      -1.149  -3.143  24.845  0.00  0.00    -0.205 F 
ATOM     27  C   UNL     1      -4.384  -0.582  24.989  0.00  0.00    -0.030 A 
ATOM     28  C   UNL     1      -4.212  -1.427  23.893  0.00  0.00    +0.008 A 
ATOM     29  C   UNL     1      -3.462  -0.602  26.035  0.00  0.00    +0.008 A 
ATOM     30  C   UNL     1      -3.120  -2.294  23.844  0.00  0.00    +0.038 A 
ATOM     31  C   UNL     1      -2.370  -1.468  25.988  0.00  0.00    +0.038 A 
ATOM     32  C   UNL     1      -2.198  -2.313  24.892  0.00  0.00    +0.123 A 
ENDBRANCH  23  27
ENDBRANCH   8  23
ENDBRANCH  17  19
ENDBRANCH  16  17
ENDBRANCH  11  16
TORSDOF 8
ENDMDL
MODEL 2
REMARK VINA RESULT:      -1.9      2.449      7.096
REMARK  Name = 45360653
REMARK  8 active torsions:
REMARK  status: ('A' for Active; 'I' for Inactive)
REMARK    1  A    between atoms: N_7  and  C_10
REMARK    2  A    between atoms: N_7  and  C_18
REMARK    3  A    between atoms: N_8  and  C_23
REMARK    4  A    between atoms: C_11  and  C_16
REMARK    5  A    between atoms: C_16  and  C_17
REMARK    6  A    between atoms: C_17  and  C_19
REMARK    7  A    between atoms: C_18  and  C_20
REMARK    8  A    between atoms: C_23  and  C_27
REMARK                            x       y       z     vdW  Elec       q    Type
REMARK                         _______ _______ _______ _____ _____    ______ ____
ROOT
ATOM      3  O   UNL     1      -4.338  -3.400  23.737  0.00  0.00    -0.274 OA
ATOM      5  N   UNL     1      -2.842  -0.759  25.764  0.00  0.00    -0.286 NA
ATOM      6  N   UNL     1      -2.175  -2.709  23.860  0.00  0.00    -0.313 N 
ATOM      9  C   UNL     1      -3.865  -1.755  25.419  0.00  0.00    +0.145 C 
ATOM     10  C   UNL     1      -4.659   0.530  25.214  0.00  0.00    +0.070 C 
ATOM     11  C   UNL     1      -1.474  -1.260  25.711  0.00  0.00    +0.075 C 
ATOM     12  C   UNL     1      -5.110  -0.924  25.074  0.00  0.00    +0.048 C 
ATOM     13  C   UNL     1      -3.153   0.455  25.013  0.00  0.00    +0.104 C 
ATOM     14  C   UNL     1      -1.150  -1.804  24.328  0.00  0.00    +0.123 C 
ATOM     15  C   UNL     1      -3.489  -2.670  24.257  0.00  0.00    +0.230 C 
ATOM     33  H   UNL     1      -1.933  -3.337  23.099  0.00  0.00    +0.149 HD
ENDROOT
BRANCH  10   7
ATOM      7  N   UNL     1      -5.326   1.425  24.281  0.00  0.00    -0.308 NA
ATOM     34  H   UNL     1      -4.791   1.460  23.413  0.00  0.00    +0.123 HD
BRANCH   7  18
ATOM     18  C   UNL     1      -5.423   2.773  24.827  0.00  0.00    +0.116 C 
BRANCH  18  20
ATOM      1  F   UNL     1      -0.400   5.300  25.114  0.00  0.00    -0.205 F 
ATOM     20  C   UNL     1      -4.084   3.447  24.904  0.00  0.00    -0.033 A 
ATOM     21  C   UNL     1      -3.294   3.559  23.760  0.00  0.00    +0.008 A 
ATOM     22  C   UNL     1      -3.630   3.961  26.119  0.00  0.00    +0.008 A 
ATOM     24  C   UNL     1      -2.049   4.183  23.831  0.00  0.00    +0.038 A 
ATOM     25  C   UNL     1      -2.386   4.587  26.189  0.00  0.00    +0.038 A 
ATOM     26  C   UNL     1      -1.595   4.697  25.046  0.00  0.00    +0.123 A 
ENDBRANCH  18  20
ENDBRANCH   7  18
ENDBRANCH  10   7
BRANCH  11  16
ATOM     16  C   UNL     1      -0.443  -0.217  26.145  0.00  0.00    +0.029 C 
BRANCH  16  17
ATOM     17  C   UNL     1      -0.648   1.100  25.410  0.00  0.00    +0.097 C 
BRANCH  17  19
ATOM      4  O   UNL     1       0.963   2.368  24.124  0.00  0.00    -0.276 OA
ATOM      8  N   UNL     1       0.552   0.156  23.552  0.00  0.00    -0.311 N 
ATOM     19  C   UNL     1       0.376   1.306  24.308  0.00  0.00    +0.213 C 
ATOM     35  H   UNL     1       0.003  -0.674  23.754  0.00  0.00    +0.149 HD
BRANCH   8  23
ATOM     23  C   UNL     1       1.474   0.097  22.443  0.00  0.00    +0.139 C 
BRANCH  23  27
ATOM      2  F   UNL     1       6.814  -0.377  24.163  0.00  0.00    -0.205 F 
ATOM     27  C   UNL     1       2.898  -0.029  22.901  0.00  0.00    -0.030 A 
ATOM     28  C   UNL     1       3.778   1.043  22.749  0.00  0.00    +0.008 A 
ATOM     29  C   UNL     1       3.342  -1.218  23.480  0.00  0.00    +0.008 A 
ATOM     30  C   UNL     1       5.101   0.926  23.175  0.00  0.00    +0.038 A 
ATOM     31  C   UNL     1       4.665  -1.336  23.905  0.00  0.00    +0.038 A 
ATOM     32  C   UNL     1       5.544  -0.264  23.753  0.00  0.00    +0.123 A 
ENDBRANCH  23  27
ENDBRANCH   8  23
ENDBRANCH  17  19
ENDBRANCH  16  17
ENDBRANCH  11  16
TORSDOF 8
ENDMDL
MODEL 3
REMARK VINA RESULT:      -1.2      1.360      2.010
REMARK  Name = 45360653
REMARK  8 active torsions:
REMARK  status: ('A' for Active; 'I' for Inactive)
REMARK    1  A    between atoms: N_7  and  C_10
REMARK    2  A    between atoms: N_7  and  C_18
REMARK    3  A    between atoms: N_8  and  C_23
REMARK    4  A    between atoms: C_11  and  C_16
REMARK    5  A    between atoms: C_16  and  C_17
REMARK    6  A    between atoms: C_17  and  C_19
REMARK    7  A    between atoms: C_18  and  C_20
REMARK    8  A    between atoms: C_23  and  C_27
REMARK                            x       y       z     vdW  Elec       q    Type
REMARK                         _______ _______ _______ _____ _____    ______ ____
ROOT
ATOM      3  O   UNL     1       0.270   5.119  23.601  0.00  0.00    -0.274 OA
ATOM      5  N   UNL     1      -1.720   3.064  25.869  0.00  0.00    -0.286 NA
ATOM      6  N   UNL     1      -1.981   5.064  23.918  0.00  0.00    -0.313 N 
ATOM      9  C   UNL     1      -0.495   3.724  25.399  0.00  0.00    +0.145 C 
ATOM     10  C   UNL     1      -0.384   1.302  25.256  0.00  0.00    +0.070 C 
ATOM     11  C   UNL     1      -2.897   3.926  25.889  0.00  0.00    +0.075 C 
ATOM     12  C   UNL     1       0.438   2.568  25.008  0.00  0.00    +0.048 C 
ATOM     13  C   UNL     1      -1.822   1.789  25.162  0.00  0.00    +0.104 C 
ATOM     14  C   UNL     1      -3.173   4.497  24.507  0.00  0.00    +0.123 C 
ATOM     15  C   UNL     1      -0.701   4.672  24.221  0.00  0.00    +0.230 C 
ATOM     33  H   UNL     1      -2.104   5.712  23.145  0.00  0.00    +0.149 HD
ENDROOT
BRANCH  10   7
ATOM      7  N   UNL     1      -0.072   0.228  24.326  0.00  0.00    -0.308 NA
ATOM     34  H   UNL     1       0.534  -0.448  24.790  0.00  0.00    +0.123 HD
BRANCH   7  18
ATOM     18  C   UNL     1       0.611   0.740  23.145  0.00  0.00    +0.116 C 
BRANCH  18  20
ATOM      1  F   UNL     1       6.117  -0.432  23.221  0.00  0.00    -0.205 F 
ATOM     20  C   UNL     1       2.079   0.428  23.165  0.00  0.00    -0.033 A 
ATOM     21  C   UNL     1       2.516  -0.846  23.528  0.00  0.00    +0.008 A 
ATOM     22  C   UNL     1       3.006   1.412  22.821  0.00  0.00    +0.008 A 
ATOM     24  C   UNL     1       3.879  -1.136  23.548  0.00  0.00    +0.038 A 
ATOM     25  C   UNL     1       4.370   1.121  22.840  0.00  0.00    +0.038 A 
ATOM     26  C   UNL     1       4.807  -0.152  23.204  0.00  0.00    +0.123 A 
ENDBRANCH  18  20
ENDBRANCH   7  18
ENDBRANCH  10   7
BRANCH  11  16
ATOM     16  C   UNL     1      -4.135   3.227  26.452  0.00  0.00    +0.029 C 
BRANCH  16  17
ATOM     17  C   UNL     1      -5.338   3.419  25.540  0.00  0.00    +0.097 C 
BRANCH  17  19
ATOM      4  O   UNL     1      -7.002   1.955  24.566  0.00  0.00    -0.276 OA
ATOM      8  N   UNL     1      -4.896   1.107  25.052  0.00  0.00    -0.311 N 
ATOM     19  C   UNL     1      -5.862   2.102  24.996  0.00  0.00    +0.213 C 
ATOM     35  H   UNL     1      -3.984   1.305  25.451  0.00  0.00    +0.149 HD
BRANCH   8  23
ATOM     23  C   UNL     1      -5.150  -0.239  24.594  0.00  0.00    +0.139 C 
BRANCH  23  27
ATOM      2  F   UNL     1      -0.660  -3.570  25.258  0.00  0.00    -0.205 F 
ATOM     27  C   UNL     1      -3.952  -1.127  24.771  0.00  0.00    -0.030 A 
ATOM     28  C   UNL     1      -3.141  -0.989  25.897  0.00  0.00    +0.008 A 
ATOM     29  C   UNL     1      -3.650  -2.092  23.810  0.00  0.00    +0.008 A 
ATOM     30  C   UNL     1      -2.028  -1.813  26.063  0.00  0.00    +0.038 A 
ATOM     31  C   UNL     1      -2.538  -2.916  23.973  0.00  0.00    +0.038 A 
ATOM     32  C   UNL     1      -1.727  -2.778  25.100  0.00  0.00    +0.123 A 
ENDBRANCH  23  27
ENDBRANCH   8  23
ENDBRANCH  17  19
ENDBRANCH  16  17
ENDBRANCH  11  16
TORSDOF 8
ENDMDL
