MODEL 1
REMARK VINA RESULT:       3.4      0.000      0.000
REMARK  Name = 51136977
REMARK  11 active torsions:
REMARK  status: ('A' for Active; 'I' for Inactive)
REMARK    1  A    between atoms: O_6  and  C_15
REMARK    2  A    between atoms: O_7  and  C_22
REMARK    3  A    between atoms: O_9  and  C_34
REMARK    4  A    between atoms: O_9  and  C_37
REMARK    5  A    between atoms: N_10  and  C_13
REMARK    6  A    between atoms: N_11  and  C_23
REMARK    7  A    between atoms: N_12  and  C_19
REMARK    8  A    between atoms: C_14  and  C_19
REMARK    9  A    between atoms: C_16  and  C_22
REMARK   10  A    between atoms: C_24  and  C_29
REMARK   11  A    between atoms: C_27  and  C_31
REMARK                            x       y       z     vdW  Elec       q    Type
REMARK                         _______ _______ _______ _____ _____    ______ ____
ROOT
ATOM      5  O   UNL     1      -4.816   4.506  25.030  0.00  0.00    -0.365 OA
ATOM     13  C   UNL     1      -2.518   4.314  25.619  0.00  0.00    +0.118 C 
ATOM     14  C   UNL     1      -3.490   4.552  24.457  0.00  0.00    +0.155 C 
ATOM     15  C   UNL     1      -3.355   3.521  26.611  0.00  0.00    +0.165 C 
ATOM     16  C   UNL     1      -4.712   4.191  26.432  0.00  0.00    +0.174 C 
ENDROOT
BRANCH  13  10
ATOM     10  N   UNL     1      -1.238   3.720  25.274  0.00  0.00    -0.292 NA
ATOM     11  N   UNL     1       0.519   1.905  23.939  0.00  0.00    -0.327 N 
ATOM     17  C   UNL     1      -0.975   3.862  23.837  0.00  0.00    +0.104 C 
ATOM     18  C   UNL     1      -1.212   2.300  25.649  0.00  0.00    +0.104 C 
ATOM     20  C   UNL     1       0.397   3.289  23.469  0.00  0.00    +0.120 C 
ATOM     21  C   UNL     1       0.151   1.677  25.342  0.00  0.00    +0.120 C 
BRANCH  11  23
ATOM     23  C   UNL     1       1.471   1.059  23.362  0.00  0.00    +0.030 A 
ATOM     25  C   UNL     1       2.803   1.124  23.773  0.00  0.00    +0.035 A 
ATOM     26  C   UNL     1       1.091   0.149  22.375  0.00  0.00    +0.023 A 
ATOM     27  C   UNL     1       3.753   0.281  23.197  0.00  0.00    +0.057 A 
ATOM     28  C   UNL     1       2.041  -0.694  21.800  0.00  0.00    +0.002 A 
ATOM     30  C   UNL     1       3.372  -0.629  22.211  0.00  0.00    +0.012 A 
BRANCH  27  31
ATOM      2  F   UNL     1       6.035  -0.189  22.723  0.00  0.00    -0.166 F 
ATOM      3  F   UNL     1       5.621   1.626  23.847  0.00  0.00    -0.166 F 
ATOM      4  F   UNL     1       5.421  -0.309  24.806  0.00  0.00    -0.166 F 
ATOM     31  C   UNL     1       5.175   0.352  23.636  0.00  0.00    +0.417 C 
ENDBRANCH  27  31
ENDBRANCH  11  23
ENDBRANCH  13  10
BRANCH  15   6
ATOM      6  O   UNL     1      -3.429   2.147  26.247  0.00  0.00    -0.388 OA
ATOM     38  H   UNL     1      -4.354   1.953  26.021  0.00  0.00    +0.210 HD
ENDBRANCH  15   6
BRANCH  14  19
ATOM     19  C   UNL     1      -3.457   3.538  23.318  0.00  0.00    +0.137 C 
BRANCH  19  12
ATOM      8  O   UNL     1      -2.368   1.212  22.034  0.00  0.00    -0.270 OA
ATOM     12  N   UNL     1      -3.472   2.197  23.821  0.00  0.00    -0.309 N 
ATOM     24  C   UNL     1      -2.919   1.124  23.129  0.00  0.00    +0.246 C 
ATOM     39  H   UNL     1      -3.901   2.034  24.727  0.00  0.00    +0.149 HD
BRANCH  24  29
ATOM      1 CL   UNL     1      -5.729   0.191  24.012  0.00  0.00    -0.083 Cl
ATOM     29  C   UNL     1      -3.040  -0.210  23.774  0.00  0.00    +0.058 A 
ATOM     32  C   UNL     1      -1.880  -0.964  23.943  0.00  0.00    +0.060 A 
ATOM     33  C   UNL     1      -4.268  -0.711  24.203  0.00  0.00    +0.053 A 
ATOM     34  C   UNL     1      -1.949  -2.222  24.543  0.00  0.00    +0.121 A 
ATOM     35  C   UNL     1      -4.337  -1.969  24.803  0.00  0.00    +0.024 A 
ATOM     36  C   UNL     1      -3.176  -2.724  24.973  0.00  0.00    +0.047 A 
BRANCH  34   9
ATOM      9  O   UNL     1      -0.816  -2.960  24.708  0.00  0.00    -0.495 OA
ATOM     37  C   UNL     1       0.303  -2.305  25.305  0.00  0.00    +0.277 C 
ENDBRANCH  34   9
ENDBRANCH  24  29
ENDBRANCH  19  12
ENDBRANCH  14  19
BRANCH  16  22
ATOM     22  C   UNL     1      -5.911   3.359  26.849  0.00  0.00    +0.190 C 
BRANCH  22   7
ATOM      7  O   UNL     1      -6.231   2.459  25.800  0.00  0.00    -0.392 OA
ATOM     40  H   UNL     1      -5.518   1.800  25.760  0.00  0.00    +0.210 HD
ENDBRANCH  22   7
ENDBRANCH  16  22
TORSDOF 10
ENDMDL
MODEL 2
REMARK VINA RESULT:       5.8      1.191      1.518
REMARK  Name = 51136977
REMARK  11 active torsions:
REMARK  status: ('A' for Active; 'I' for Inactive)
REMARK    1  A    between atoms: O_6  and  C_15
REMARK    2  A    between atoms: O_7  and  C_22
REMARK    3  A    between atoms: O_9  and  C_34
REMARK    4  A    between atoms: O_9  and  C_37
REMARK    5  A    between atoms: N_10  and  C_13
REMARK    6  A    between atoms: N_11  and  C_23
REMARK    7  A    between atoms: N_12  and  C_19
REMARK    8  A    between atoms: C_14  and  C_19
REMARK    9  A    between atoms: C_16  and  C_22
REMARK   10  A    between atoms: C_24  and  C_29
REMARK   11  A    between atoms: C_27  and  C_31
REMARK                            x       y       z     vdW  Elec       q    Type
REMARK                         _______ _______ _______ _____ _____    ______ ____
ROOT
ATOM      5  O   UNL     1      -4.869   4.369  24.549  0.00  0.00    -0.365 OA
ATOM     13  C   UNL     1      -2.681   3.516  24.938  0.00  0.00    +0.118 C 
ATOM     14  C   UNL     1      -3.703   3.877  23.852  0.00  0.00    +0.155 C 
ATOM     15  C   UNL     1      -3.555   3.216  26.146  0.00  0.00    +0.165 C 
ATOM     16  C   UNL     1      -4.648   4.264  25.969  0.00  0.00    +0.174 C 
ENDROOT
BRANCH  13  10
ATOM     10  N   UNL     1      -1.720   2.482  24.596  0.00  0.00    -0.292 NA
ATOM     11  N   UNL     1       0.722   1.435  23.548  0.00  0.00    -0.327 N 
ATOM     17  C   UNL     1      -0.453   2.702  25.304  0.00  0.00    +0.104 C 
ATOM     18  C   UNL     1      -1.485   2.455  23.147  0.00  0.00    +0.104 C 
ATOM     20  C   UNL     1       0.550   1.586  24.996  0.00  0.00    +0.120 C 
ATOM     21  C   UNL     1      -0.518   1.332  22.768  0.00  0.00    +0.120 C 
BRANCH  11  23
ATOM     23  C   UNL     1       1.868   0.807  23.048  0.00  0.00    +0.030 A 
ATOM     25  C   UNL     1       3.087   0.948  23.712  0.00  0.00    +0.035 A 
ATOM     26  C   UNL     1       1.793   0.039  21.885  0.00  0.00    +0.023 A 
ATOM     27  C   UNL     1       4.230   0.323  23.213  0.00  0.00    +0.057 A 
ATOM     28  C   UNL     1       2.936  -0.586  21.387  0.00  0.00    +0.002 A 
ATOM     30  C   UNL     1       4.154  -0.444  22.051  0.00  0.00    +0.012 A 
BRANCH  27  31
ATOM      2  F   UNL     1       5.912   1.782  24.048  0.00  0.00    -0.166 F 
ATOM      3  F   UNL     1       5.525  -0.027  25.193  0.00  0.00    -0.166 F 
ATOM      4  F   UNL     1       6.572  -0.150  23.297  0.00  0.00    -0.166 F 
ATOM     31  C   UNL     1       5.531   0.476  23.922  0.00  0.00    +0.417 C 
ENDBRANCH  27  31
ENDBRANCH  11  23
ENDBRANCH  13  10
BRANCH  15   6
ATOM      6  O   UNL     1      -4.108   1.907  26.076  0.00  0.00    -0.388 OA
ATOM     38  H   UNL     1      -4.772   1.831  26.781  0.00  0.00    +0.210 HD
ENDBRANCH  15   6
BRANCH  14  19
ATOM     19  C   UNL     1      -4.165   2.743  22.943  0.00  0.00    +0.137 C 
BRANCH  19  12
ATOM      8  O   UNL     1      -5.477   0.534  24.225  0.00  0.00    -0.270 OA
ATOM     12  N   UNL     1      -3.568   1.499  23.326  0.00  0.00    -0.309 N 
ATOM     24  C   UNL     1      -4.282   0.477  23.947  0.00  0.00    +0.246 C 
ATOM     39  H   UNL     1      -2.582   1.363  23.125  0.00  0.00    +0.149 HD
BRANCH  24  29
ATOM      1 CL   UNL     1      -5.578  -2.273  23.396  0.00  0.00    -0.083 Cl
ATOM     29  C   UNL     1      -3.511  -0.741  24.306  0.00  0.00    +0.058 A 
ATOM     32  C   UNL     1      -2.247  -0.575  24.870  0.00  0.00    +0.060 A 
ATOM     33  C   UNL     1      -4.017  -2.023  24.092  0.00  0.00    +0.053 A 
ATOM     34  C   UNL     1      -1.488  -1.692  25.221  0.00  0.00    +0.121 A 
ATOM     35  C   UNL     1      -3.258  -3.140  24.444  0.00  0.00    +0.024 A 
ATOM     36  C   UNL     1      -1.993  -2.974  25.008  0.00  0.00    +0.047 A 
BRANCH  34   9
ATOM      9  O   UNL     1      -0.253  -1.530  25.772  0.00  0.00    -0.495 OA
ATOM     37  C   UNL     1       0.729  -2.518  25.462  0.00  0.00    +0.277 C 
ENDBRANCH  34   9
ENDBRANCH  24  29
ENDBRANCH  19  12
ENDBRANCH  14  19
BRANCH  16  22
ATOM     22  C   UNL     1      -5.964   3.958  26.659  0.00  0.00    +0.190 C 
BRANCH  22   7
ATOM      7  O   UNL     1      -6.389   2.658  26.281  0.00  0.00    -0.392 OA
ATOM     40  H   UNL     1      -7.180   2.451  26.807  0.00  0.00    +0.210 HD
ENDBRANCH  22   7
ENDBRANCH  16  22
TORSDOF 10
ENDMDL
MODEL 3
REMARK VINA RESULT:       6.0      4.316      7.899
REMARK  Name = 51136977
REMARK  11 active torsions:
REMARK  status: ('A' for Active; 'I' for Inactive)
REMARK    1  A    between atoms: O_6  and  C_15
REMARK    2  A    between atoms: O_7  and  C_22
REMARK    3  A    between atoms: O_9  and  C_34
REMARK    4  A    between atoms: O_9  and  C_37
REMARK    5  A    between atoms: N_10  and  C_13
REMARK    6  A    between atoms: N_11  and  C_23
REMARK    7  A    between atoms: N_12  and  C_19
REMARK    8  A    between atoms: C_14  and  C_19
REMARK    9  A    between atoms: C_16  and  C_22
REMARK   10  A    between atoms: C_24  and  C_29
REMARK   11  A    between atoms: C_27  and  C_31
REMARK                            x       y       z     vdW  Elec       q    Type
REMARK                         _______ _______ _______ _____ _____    ______ ____
ROOT
ATOM      5  O   UNL     1       4.302   1.229  23.087  0.00  0.00    -0.365 OA
ATOM     13  C   UNL     1       2.309   0.173  22.325  0.00  0.00    +0.118 C 
ATOM     14  C   UNL     1       2.870   1.416  23.027  0.00  0.00    +0.155 C 
ATOM     15  C   UNL     1       3.355  -0.891  22.624  0.00  0.00    +0.165 C 
ATOM     16  C   UNL     1       4.631  -0.062  22.538  0.00  0.00    +0.174 C 
ENDROOT
BRANCH  13  10
ATOM     10  N   UNL     1       0.943  -0.191  22.659  0.00  0.00    -0.292 NA
ATOM     11  N   UNL     1      -1.515  -0.043  24.106  0.00  0.00    -0.327 N 
ATOM     17  C   UNL     1       0.047   0.957  22.484  0.00  0.00    +0.104 C 
ATOM     18  C   UNL     1       0.864  -0.681  24.041  0.00  0.00    +0.104 C 
ATOM     20  C   UNL     1      -1.406   0.573  22.779  0.00  0.00    +0.120 C 
ATOM     21  C   UNL     1      -0.560  -1.121  24.387  0.00  0.00    +0.120 C 
BRANCH  11  23
ATOM     23  C   UNL     1      -2.754  -0.075  24.754  0.00  0.00    +0.030 A 
ATOM     25  C   UNL     1      -3.667   0.963  24.568  0.00  0.00    +0.035 A 
ATOM     26  C   UNL     1      -3.078  -1.146  25.589  0.00  0.00    +0.023 A 
ATOM     27  C   UNL     1      -4.902   0.931  25.215  0.00  0.00    +0.057 A 
ATOM     28  C   UNL     1      -4.313  -1.178  26.235  0.00  0.00    +0.002 A 
ATOM     30  C   UNL     1      -5.225  -0.139  26.048  0.00  0.00    +0.012 A 
BRANCH  27  31
ATOM      2  F   UNL     1      -5.385   3.034  24.216  0.00  0.00    -0.166 F 
ATOM      3  F   UNL     1      -7.046   1.646  24.429  0.00  0.00    -0.166 F 
ATOM      4  F   UNL     1      -6.250   2.657  26.176  0.00  0.00    -0.166 F 
ATOM     31  C   UNL     1      -5.876   2.041  25.015  0.00  0.00    +0.417 C 
ENDBRANCH  27  31
ENDBRANCH  11  23
ENDBRANCH  13  10
BRANCH  15   6
ATOM      6  O   UNL     1       3.197  -1.423  23.933  0.00  0.00    -0.388 OA
ATOM     38  H   UNL     1       4.072  -1.718  24.238  0.00  0.00    +0.210 HD
ENDBRANCH  15   6
BRANCH  14  19
ATOM     19  C   UNL     1       2.389   1.675  24.450  0.00  0.00    +0.137 C 
BRANCH  19  12
ATOM      8  O   UNL     1       0.840   2.422  26.749  0.00  0.00    -0.270 OA
ATOM     12  N   UNL     1       1.185   2.449  24.455  0.00  0.00    -0.309 N 
ATOM     24  C   UNL     1       0.495   2.767  25.622  0.00  0.00    +0.246 C 
ATOM     39  H   UNL     1       0.832   2.785  23.564  0.00  0.00    +0.149 HD
BRANCH  24  29
ATOM      1 CL   UNL     1       0.315   4.706  23.223  0.00  0.00    -0.083 Cl
ATOM     29  C   UNL     1      -0.753   3.556  25.455  0.00  0.00    +0.058 A 
ATOM     32  C   UNL     1      -1.772   3.376  26.389  0.00  0.00    +0.060 A 
ATOM     33  C   UNL     1      -0.922   4.455  24.402  0.00  0.00    +0.053 A 
ATOM     34  C   UNL     1      -2.961   4.097  26.271  0.00  0.00    +0.121 A 
ATOM     35  C   UNL     1      -2.111   5.175  24.283  0.00  0.00    +0.024 A 
ATOM     36  C   UNL     1      -3.131   4.995  25.218  0.00  0.00    +0.047 A 
BRANCH  34   9
ATOM      9  O   UNL     1      -3.957   3.921  27.182  0.00  0.00    -0.495 OA
ATOM     37  C   UNL     1      -3.589   3.961  28.561  0.00  0.00    +0.277 C 
ENDBRANCH  34   9
ENDBRANCH  24  29
ENDBRANCH  19  12
ENDBRANCH  14  19
BRANCH  16  22
ATOM     22  C   UNL     1       5.829  -0.629  23.276  0.00  0.00    +0.190 C 
BRANCH  22   7
ATOM      7  O   UNL     1       5.600  -0.523  24.672  0.00  0.00    -0.392 OA
ATOM     40  H   UNL     1       6.194  -1.156  25.109  0.00  0.00    +0.210 HD
ENDBRANCH  22   7
ENDBRANCH  16  22
TORSDOF 10
ENDMDL
MODEL 4
REMARK VINA RESULT:       6.7      4.264      7.732
REMARK  Name = 51136977
REMARK  11 active torsions:
REMARK  status: ('A' for Active; 'I' for Inactive)
REMARK    1  A    between atoms: O_6  and  C_15
REMARK    2  A    between atoms: O_7  and  C_22
REMARK    3  A    between atoms: O_9  and  C_34
REMARK    4  A    between atoms: O_9  and  C_37
REMARK    5  A    between atoms: N_10  and  C_13
REMARK    6  A    between atoms: N_11  and  C_23
REMARK    7  A    between atoms: N_12  and  C_19
REMARK    8  A    between atoms: C_14  and  C_19
REMARK    9  A    between atoms: C_16  and  C_22
REMARK   10  A    between atoms: C_24  and  C_29
REMARK   11  A    between atoms: C_27  and  C_31
REMARK                            x       y       z     vdW  Elec       q    Type
REMARK                         _______ _______ _______ _____ _____    ______ ____
ROOT
ATOM      5  O   UNL     1       4.293   1.287  22.831  0.00  0.00    -0.365 OA
ATOM     13  C   UNL     1       2.403  -0.050  22.276  0.00  0.00    +0.118 C 
ATOM     14  C   UNL     1       2.848   1.324  22.792  0.00  0.00    +0.155 C 
ATOM     15  C   UNL     1       3.556  -0.958  22.675  0.00  0.00    +0.165 C 
ATOM     16  C   UNL     1       4.740  -0.027  22.443  0.00  0.00    +0.174 C 
ENDROOT
BRANCH  13  10
ATOM     10  N   UNL     1       1.087  -0.498  22.697  0.00  0.00    -0.292 NA
ATOM     11  N   UNL     1      -1.371  -0.370  24.147  0.00  0.00    -0.327 N 
ATOM     17  C   UNL     1       0.066   0.494  22.341  0.00  0.00    +0.104 C 
ATOM     18  C   UNL     1       1.065  -0.741  24.145  0.00  0.00    +0.104 C 
ATOM     20  C   UNL     1      -1.333   0.009  22.730  0.00  0.00    +0.120 C 
ATOM     21  C   UNL     1      -0.300  -1.269  24.593  0.00  0.00    +0.120 C 
BRANCH  11  23
ATOM     23  C   UNL     1      -2.598  -0.425  24.816  0.00  0.00    +0.030 A 
ATOM     25  C   UNL     1      -3.558   0.563  24.596  0.00  0.00    +0.035 A 
ATOM     26  C   UNL     1      -2.862  -1.466  25.706  0.00  0.00    +0.023 A 
ATOM     27  C   UNL     1      -4.781   0.510  25.264  0.00  0.00    +0.057 A 
ATOM     28  C   UNL     1      -4.085  -1.521  26.374  0.00  0.00    +0.002 A 
ATOM     30  C   UNL     1      -5.045  -0.533  26.153  0.00  0.00    +0.012 A 
BRANCH  27  31
ATOM      2  F   UNL     1      -7.034   1.049  24.730  0.00  0.00    -0.166 F 
ATOM      3  F   UNL     1      -6.006   2.384  26.104  0.00  0.00    -0.166 F 
ATOM      4  F   UNL     1      -5.500   2.404  23.995  0.00  0.00    -0.166 F 
ATOM     31  C   UNL     1      -5.805   1.566  25.029  0.00  0.00    +0.417 C 
ENDBRANCH  27  31
ENDBRANCH  11  23
ENDBRANCH  13  10
BRANCH  15   6
ATOM      6  O   UNL     1       3.477  -1.326  24.047  0.00  0.00    -0.388 OA
ATOM     38  H   UNL     1       2.923  -2.123  24.106  0.00  0.00    +0.210 HD
ENDBRANCH  15   6
BRANCH  14  19
ATOM     19  C   UNL     1       2.370   1.719  24.186  0.00  0.00    +0.137 C 
BRANCH  19  12
ATOM      8  O   UNL     1       0.726   2.406  26.436  0.00  0.00    -0.270 OA
ATOM     12  N   UNL     1       1.042   2.252  24.143  0.00  0.00    -0.309 N 
ATOM     24  C   UNL     1       0.313   2.558  25.289  0.00  0.00    +0.246 C 
ATOM     39  H   UNL     1       0.625   2.418  23.232  0.00  0.00    +0.149 HD
BRANCH  24  29
ATOM      1 CL   UNL     1      -1.273   3.517  27.761  0.00  0.00    -0.083 Cl
ATOM     29  C   UNL     1      -1.063   3.078  25.076  0.00  0.00    +0.058 A 
ATOM     32  C   UNL     1      -1.559   3.104  23.773  0.00  0.00    +0.060 A 
ATOM     33  C   UNL     1      -1.851   3.533  26.133  0.00  0.00    +0.053 A 
ATOM     34  C   UNL     1      -2.846   3.585  23.528  0.00  0.00    +0.121 A 
ATOM     35  C   UNL     1      -3.137   4.013  25.887  0.00  0.00    +0.024 A 
ATOM     36  C   UNL     1      -3.634   4.040  24.584  0.00  0.00    +0.047 A 
BRANCH  34   9
ATOM      9  O   UNL     1      -3.331   3.611  22.256  0.00  0.00    -0.495 OA
ATOM     37  C   UNL     1      -2.917   2.561  21.382  0.00  0.00    +0.277 C 
ENDBRANCH  34   9
ENDBRANCH  24  29
ENDBRANCH  19  12
ENDBRANCH  14  19
BRANCH  16  22
ATOM     22  C   UNL     1       6.003  -0.372  23.210  0.00  0.00    +0.190 C 
BRANCH  22   7
ATOM      7  O   UNL     1       5.793  -0.100  24.586  0.00  0.00    -0.392 OA
ATOM     40  H   UNL     1       6.489   0.517  24.866  0.00  0.00    +0.210 HD
ENDBRANCH  22   7
ENDBRANCH  16  22
TORSDOF 10
ENDMDL
MODEL 5
REMARK VINA RESULT:       7.0      2.123      4.925
REMARK  Name = 51136977
REMARK  11 active torsions:
REMARK  status: ('A' for Active; 'I' for Inactive)
REMARK    1  A    between atoms: O_6  and  C_15
REMARK    2  A    between atoms: O_7  and  C_22
REMARK    3  A    between atoms: O_9  and  C_34
REMARK    4  A    between atoms: O_9  and  C_37
REMARK    5  A    between atoms: N_10  and  C_13
REMARK    6  A    between atoms: N_11  and  C_23
REMARK    7  A    between atoms: N_12  and  C_19
REMARK    8  A    between atoms: C_14  and  C_19
REMARK    9  A    between atoms: C_16  and  C_22
REMARK   10  A    between atoms: C_24  and  C_29
REMARK   11  A    between atoms: C_27  and  C_31
REMARK                            x       y       z     vdW  Elec       q    Type
REMARK                         _______ _______ _______ _____ _____    ______ ____
ROOT
ATOM      5  O   UNL     1      -4.406  -0.989  25.832  0.00  0.00    -0.365 OA
ATOM     13  C   UNL     1      -2.897  -1.599  24.095  0.00  0.00    +0.118 C 
ATOM     14  C   UNL     1      -3.078  -1.517  25.616  0.00  0.00    +0.155 C 
ATOM     15  C   UNL     1      -3.847  -0.529  23.578  0.00  0.00    +0.165 C 
ATOM     16  C   UNL     1      -5.005  -0.685  24.557  0.00  0.00    +0.174 C 
ENDROOT
BRANCH  13  10
ATOM     10  N   UNL     1      -1.533  -1.504  23.606  0.00  0.00    -0.292 NA
ATOM     11  N   UNL     1       1.103  -0.419  23.425  0.00  0.00    -0.327 N 
ATOM     17  C   UNL     1      -0.577  -1.687  24.704  0.00  0.00    +0.104 C 
ATOM     18  C   UNL     1      -1.307  -0.206  22.958  0.00  0.00    +0.104 C 
ATOM     20  C   UNL     1       0.865  -1.646  24.192  0.00  0.00    +0.120 C 
ATOM     21  C   UNL     1       0.110  -0.116  22.387  0.00  0.00    +0.120 C 
BRANCH  11  23
ATOM     23  C   UNL     1       2.412   0.037  23.236  0.00  0.00    +0.030 A 
ATOM     25  C   UNL     1       3.489  -0.728  23.683  0.00  0.00    +0.035 A 
ATOM     26  C   UNL     1       2.642   1.258  22.600  0.00  0.00    +0.023 A 
ATOM     27  C   UNL     1       4.794  -0.273  23.496  0.00  0.00    +0.057 A 
ATOM     28  C   UNL     1       3.947   1.712  22.413  0.00  0.00    +0.002 A 
ATOM     30  C   UNL     1       5.023   0.947  22.861  0.00  0.00    +0.012 A 
BRANCH  27  31
ATOM      2  F   UNL     1       7.119  -0.754  23.366  0.00  0.00    -0.166 F 
ATOM      3  F   UNL     1       6.181  -0.972  25.316  0.00  0.00    -0.166 F 
ATOM      4  F   UNL     1       5.791  -2.431  23.759  0.00  0.00    -0.166 F 
ATOM     31  C   UNL     1       5.944  -1.091  23.975  0.00  0.00    +0.417 C 
ENDBRANCH  27  31
ENDBRANCH  11  23
ENDBRANCH  13  10
BRANCH  15   6
ATOM      6  O   UNL     1      -3.277   0.769  23.687  0.00  0.00    -0.388 OA
ATOM     38  H   UNL     1      -3.471   1.246  22.862  0.00  0.00    +0.210 HD
ENDBRANCH  15   6
BRANCH  14  19
ATOM     19  C   UNL     1      -2.107  -0.618  26.374  0.00  0.00    +0.137 C 
BRANCH  19  12
ATOM      8  O   UNL     1      -0.079   1.395  26.100  0.00  0.00    -0.270 OA
ATOM     12  N   UNL     1      -2.309   0.759  26.037  0.00  0.00    -0.309 N 
ATOM     24  C   UNL     1      -1.264   1.671  25.925  0.00  0.00    +0.246 C 
ATOM     39  H   UNL     1      -3.261   1.072  25.866  0.00  0.00    +0.149 HD
BRANCH  24  29
ATOM      1 CL   UNL     1       0.760   3.384  24.339  0.00  0.00    -0.083 Cl
ATOM     29  C   UNL     1      -1.642   3.070  25.594  0.00  0.00    +0.058 A 
ATOM     32  C   UNL     1      -2.888   3.529  26.018  0.00  0.00    +0.060 A 
ATOM     33  C   UNL     1      -0.791   3.914  24.882  0.00  0.00    +0.053 A 
ATOM     34  C   UNL     1      -3.284   4.836  25.729  0.00  0.00    +0.121 A 
ATOM     35  C   UNL     1      -1.187   5.221  24.593  0.00  0.00    +0.024 A 
ATOM     36  C   UNL     1      -2.434   5.681  25.016  0.00  0.00    +0.047 A 
BRANCH  34   9
ATOM      9  O   UNL     1      -4.501   5.285  26.141  0.00  0.00    -0.495 OA
ATOM     37  C   UNL     1      -5.648   4.594  25.649  0.00  0.00    +0.277 C 
ENDBRANCH  34   9
ENDBRANCH  24  29
ENDBRANCH  19  12
ENDBRANCH  14  19
BRANCH  16  22
ATOM     22  C   UNL     1      -5.904   0.529  24.704  0.00  0.00    +0.190 C 
BRANCH  22   7
ATOM      7  O   UNL     1      -5.353   1.393  25.685  0.00  0.00    -0.392 OA
ATOM     40  H   UNL     1      -5.970   1.404  26.436  0.00  0.00    +0.210 HD
ENDBRANCH  22   7
ENDBRANCH  16  22
TORSDOF 10
ENDMDL
