MODEL 1
REMARK VINA RESULT:      -3.5      0.000      0.000
REMARK  Name = 7049409
REMARK  12 active torsions:
REMARK  status: ('A' for Active; 'I' for Inactive)
REMARK    1  A    between atoms: O_4  and  C_28
REMARK    2  A    between atoms: O_4  and  C_34
REMARK    3  A    between atoms: N_7  and  C_11
REMARK    4  A    between atoms: N_8  and  C_15
REMARK    5  A    between atoms: N_9  and  C_24
REMARK    6  A    between atoms: N_10  and  C_33
REMARK    7  A    between atoms: C_12  and  C_18
REMARK    8  A    between atoms: C_22  and  C_25
REMARK    9  A    between atoms: C_24  and  C_26
REMARK   10  A    between atoms: C_24  and  C_28
REMARK   11  A    between atoms: C_26  and  C_29
REMARK   12  A    between atoms: C_26  and  C_30
REMARK                            x       y       z     vdW  Elec       q    Type
REMARK                         _______ _______ _______ _____ _____    ______ ____
ROOT
ATOM      2  O   UNL     1      10.020  -6.941  32.838  0.00  0.00    -0.268 OA
ATOM      6  N   UNL     1      11.088  -8.883  32.201  0.00  0.00    -0.283 N 
ATOM     11  C   UNL     1      12.587 -10.605  31.525  0.00  0.00    +0.094 C 
ATOM     12  C   UNL     1      12.418  -8.442  32.596  0.00  0.00    +0.164 C 
ATOM     13  C   UNL     1      13.289  -9.695  32.536  0.00  0.00    +0.056 C 
ATOM     14  C   UNL     1      11.111 -10.261  31.701  0.00  0.00    +0.131 C 
ATOM     22  C   UNL     1       9.953  -8.095  32.414  0.00  0.00    +0.264 C 
ENDROOT
BRANCH  11   7
ATOM      3  O   UNL     1      15.295 -10.707  30.564  0.00  0.00    -0.253 OA
ATOM      7  N   UNL     1      13.031 -10.372  30.175  0.00  0.00    -0.295 N 
ATOM      8  N   UNL     1      14.528 -10.177  28.437  0.00  0.00    -0.297 N 
ATOM     23  C   UNL     1      14.371 -10.444  29.795  0.00  0.00    +0.300 C 
ATOM     35  H   UNL     1      12.349 -10.078  29.481  0.00  0.00    +0.151 HD
ATOM     36  H   UNL     1      13.691 -10.042  27.880  0.00  0.00    +0.151 HD
BRANCH   8  15
ATOM     15  C   UNL     1      15.813 -10.183  27.773  0.00  0.00    +0.074 C 
ATOM     16  C   UNL     1      16.417  -8.776  27.732  0.00  0.00    +0.022 C 
ATOM     17  C   UNL     1      15.704 -10.781  26.367  0.00  0.00    +0.022 C 
ATOM     19  C   UNL     1      15.689  -7.854  26.755  0.00  0.00    +0.002 C 
ATOM     20  C   UNL     1      14.975  -9.856  25.392  0.00  0.00    +0.002 C 
ATOM     21  C   UNL     1      15.603  -8.466  25.361  0.00  0.00    +0.000 C 
ENDBRANCH   8  15
ENDBRANCH  11   7
BRANCH  22  25
ATOM     10  N   UNL     1       7.452  -8.108  32.287  0.00  0.00    -0.346 N 
ATOM     25  C   UNL     1       8.671  -8.698  32.075  0.00  0.00    +0.104 A 
ATOM     27  C   UNL     1       8.448  -9.929  31.500  0.00  0.00    +0.032 A 
ATOM     31  C   UNL     1       6.456  -8.944  31.856  0.00  0.00    +0.086 A 
ATOM     32  C   UNL     1       7.046 -10.085  31.362  0.00  0.00    +0.020 A 
ATOM     33  C   UNL     1       7.233  -6.804  32.873  0.00  0.00    +0.149 C 
ENDBRANCH  22  25
BRANCH  12  18
ATOM      1  O   UNL     1      12.380  -7.267  30.517  0.00  0.00    -0.274 OA
ATOM      9  N   UNL     1      13.949  -6.656  32.127  0.00  0.00    -0.301 N 
ATOM     18  C   UNL     1      12.890  -7.400  31.627  0.00  0.00    +0.234 C 
ATOM     37  H   UNL     1      14.246  -6.807  33.086  0.00  0.00    +0.150 HD
BRANCH   9  24
ATOM     24  C   UNL     1      14.600  -5.606  31.382  0.00  0.00    +0.184 C 
BRANCH  24  26
ATOM     26  C   UNL     1      16.111  -5.863  31.199  0.00  0.00    +0.014 C 
ATOM     29  C   UNL     1      16.515  -6.087  29.738  0.00  0.00    +0.009 C 
ATOM     30  C   UNL     1      16.582  -7.039  32.059  0.00  0.00    +0.009 C 
ENDBRANCH  24  26
BRANCH  24  28
ATOM      5  O   UNL     1      13.424  -4.028  32.788  0.00  0.00    -0.249 OA
ATOM     28  C   UNL     1      14.340  -4.236  31.999  0.00  0.00    +0.328 C 
BRANCH  28   4
ATOM      4  O   UNL     1      15.232  -3.300  31.569  0.00  0.00    -0.467 OA
ATOM     34  C   UNL     1      15.926  -2.585  32.597  0.00  0.00    +0.280 C 
ENDBRANCH  28   4
ENDBRANCH  24  28
ENDBRANCH   9  24
ENDBRANCH  12  18
TORSDOF 8
ENDMDL
