MODEL 1
REMARK VINA RESULT:      -2.3      0.000      0.000
REMARK  Name = 11887504
REMARK  4 active torsions:
REMARK  status: ('A' for Active; 'I' for Inactive)
REMARK    1  A    between atoms: N_7  and  C_21
REMARK    2  A    between atoms: N_8  and  C_19
REMARK    3  A    between atoms: C_22  and  C_23
REMARK    4  A    between atoms: C_23  and  C_26
REMARK                            x       y       z     vdW  Elec       q    Type
REMARK                         _______ _______ _______ _____ _____    ______ ____
ROOT
ATOM      2  O   UNL     1      12.085  -6.409  32.038  0.00  0.00    -0.266 OA
ATOM      3  O   UNL     1      15.204  -4.937  28.114  0.00  0.00    -0.252 OA
ATOM      5  N   UNL     1      16.436  -4.889  30.071  0.00  0.00    -0.284 N 
ATOM      6  N   UNL     1      14.364  -5.942  32.258  0.00  0.00    -0.310 N 
ATOM      7  N   UNL     1      16.632  -6.704  28.577  0.00  0.00    -0.269 N 
ATOM      9  C   UNL     1      15.338  -3.602  31.912  0.00  0.00    +0.027 C 
ATOM     10  C   UNL     1      16.832  -5.474  32.460  0.00  0.00    +0.054 C 
ATOM     11  C   UNL     1      16.427  -4.062  32.873  0.00  0.00    +0.018 C 
ATOM     12  C   UNL     1      15.867  -3.597  30.467  0.00  0.00    +0.114 C 
ATOM     13  C   UNL     1      14.112  -4.506  32.076  0.00  0.00    +0.130 C 
ATOM     14  C   UNL     1      17.405  -5.456  31.027  0.00  0.00    +0.119 C 
ATOM     15  C   UNL     1      15.650  -6.423  32.524  0.00  0.00    +0.027 A 
ATOM     16  C   UNL     1      15.840  -7.724  32.802  0.00  0.00    +0.024 A 
ATOM     17  C   UNL     1      13.237  -6.788  32.251  0.00  0.00    +0.273 A 
ATOM     18  C   UNL     1      16.023  -5.482  28.858  0.00  0.00    +0.306 C 
ATOM     19  C   UNL     1      13.495  -8.235  32.539  0.00  0.00    +0.099 A 
ATOM     20  C   UNL     1      14.740  -8.646  32.808  0.00  0.00    +0.030 A 
ATOM     35  H   UNL     1      17.557  -6.879  28.953  0.00  0.00    +0.156 HD
ENDROOT
BRANCH   7  21
ATOM      1  F   UNL     1      14.640 -10.781  25.397  0.00  0.00    -0.205 F 
ATOM     21  C   UNL     1      16.123  -7.747  27.764  0.00  0.00    +0.035 A 
ATOM     24  C   UNL     1      16.078  -7.588  26.382  0.00  0.00    +0.026 A 
ATOM     25  C   UNL     1      15.670  -8.925  28.352  0.00  0.00    +0.026 A 
ATOM     27  C   UNL     1      15.576  -8.614  25.581  0.00  0.00    +0.040 A 
ATOM     28  C   UNL     1      15.168  -9.951  27.552  0.00  0.00    +0.040 A 
ATOM     29  C   UNL     1      15.122  -9.795  26.166  0.00  0.00    +0.124 A 
ENDBRANCH   7  21
BRANCH  19   8
ATOM      4  O   UNL     1      12.670  -9.886  30.351  0.00  0.00    -0.275 OA
ATOM      8  N   UNL     1      12.432  -9.090  32.527  0.00  0.00    -0.281 N 
ATOM     22  C   UNL     1      12.080  -9.867  31.429  0.00  0.00    +0.222 C 
ATOM     36  H   UNL     1      11.753  -8.974  33.274  0.00  0.00    +0.155 HD
BRANCH  22  23
ATOM     23  C   UNL     1      10.855 -10.713  31.723  0.00  0.00    +0.131 C 
BRANCH  23  26
ATOM     26  C   UNL     1       9.565  -9.942  31.648  0.00  0.00    -0.039 A 
ATOM     30  C   UNL     1       8.446 -10.539  31.083  0.00  0.00    +0.004 A 
ATOM     31  C   UNL     1       9.512  -8.648  32.144  0.00  0.00    +0.004 A 
ATOM     32  C   UNL     1       7.250  -9.824  31.013  0.00  0.00    +0.000 A 
ATOM     33  C   UNL     1       8.316  -7.934  32.074  0.00  0.00    +0.000 A 
ATOM     34  C   UNL     1       7.184  -8.522  31.509  0.00  0.00    +0.000 A 
ENDBRANCH  23  26
ENDBRANCH  22  23
ENDBRANCH  19   8
TORSDOF 4
ENDMDL
MODEL 2
REMARK VINA RESULT:      -0.1     24.876     28.661
REMARK  Name = 11887504
REMARK  4 active torsions:
REMARK  status: ('A' for Active; 'I' for Inactive)
REMARK    1  A    between atoms: N_7  and  C_21
REMARK    2  A    between atoms: N_8  and  C_19
REMARK    3  A    between atoms: C_22  and  C_23
REMARK    4  A    between atoms: C_23  and  C_26
REMARK                            x       y       z     vdW  Elec       q    Type
REMARK                         _______ _______ _______ _____ _____    ______ ____
ROOT
ATOM      2  O   UNL     1      -5.783  -7.230  10.872  0.00  0.00    -0.266 OA
ATOM      3  O   UNL     1     -10.583  -7.368  12.931  0.00  0.00    -0.252 OA
ATOM      5  N   UNL     1     -10.622  -8.528  10.930  0.00  0.00    -0.284 N 
ATOM      6  N   UNL     1      -7.584  -8.406   9.961  0.00  0.00    -0.310 N 
ATOM      7  N   UNL     1     -10.501  -9.684  12.983  0.00  0.00    -0.269 N 
ATOM      9  C   UNL     1      -9.659  -7.246   9.012  0.00  0.00    +0.027 C 
ATOM     10  C   UNL     1      -9.533  -9.700   9.022  0.00  0.00    +0.054 C 
ATOM     11  C   UNL     1      -9.780  -8.485   8.133  0.00  0.00    +0.018 C 
ATOM     12  C   UNL     1     -10.697  -7.291  10.146  0.00  0.00    +0.114 C 
ATOM     13  C   UNL     1      -8.225  -7.151   9.544  0.00  0.00    +0.130 C 
ATOM     14  C   UNL     1     -10.605  -9.766  10.129  0.00  0.00    +0.119 C 
ATOM     15  C   UNL     1      -8.152  -9.646   9.650  0.00  0.00    +0.027 A 
ATOM     16  C   UNL     1      -7.493 -10.781   9.938  0.00  0.00    +0.024 A 
ATOM     17  C   UNL     1      -6.330  -8.297  10.593  0.00  0.00    +0.273 A 
ATOM     18  C   UNL     1     -10.563  -8.450  12.338  0.00  0.00    +0.306 C 
ATOM     19  C   UNL     1      -5.641  -9.586  10.921  0.00  0.00    +0.099 A 
ATOM     20  C   UNL     1      -6.214 -10.748  10.587  0.00  0.00    +0.030 A 
ATOM     35  H   UNL     1     -10.915 -10.488  12.524  0.00  0.00    +0.156 HD
ENDROOT
BRANCH   7  21
ATOM      1  F   UNL     1      -8.378 -10.744  17.989  0.00  0.00    -0.205 F 
ATOM     21  C   UNL     1      -9.958  -9.956  14.263  0.00  0.00    +0.035 A 
ATOM     24  C   UNL     1     -10.719  -9.715  15.403  0.00  0.00    +0.026 A 
ATOM     25  C   UNL     1      -8.666 -10.462  14.374  0.00  0.00    +0.026 A 
ATOM     27  C   UNL     1     -10.185  -9.981  16.664  0.00  0.00    +0.040 A 
ATOM     28  C   UNL     1      -8.131 -10.728  15.634  0.00  0.00    +0.040 A 
ATOM     29  C   UNL     1      -8.891 -10.488  16.779  0.00  0.00    +0.124 A 
ENDBRANCH   7  21
BRANCH  19   8
ATOM      4  O   UNL     1      -3.152 -10.573   9.909  0.00  0.00    -0.275 OA
ATOM      8  N   UNL     1      -4.431  -9.524  11.548  0.00  0.00    -0.281 N 
ATOM     22  C   UNL     1      -3.254 -10.024  11.003  0.00  0.00    +0.222 C 
ATOM     36  H   UNL     1      -4.449  -9.307  12.541  0.00  0.00    +0.155 HD
BRANCH  22  23
ATOM     23  C   UNL     1      -2.078  -9.807  11.938  0.00  0.00    +0.131 C 
BRANCH  23  26
ATOM     26  C   UNL     1      -2.390 -10.132  13.375  0.00  0.00    -0.039 A 
ATOM     30  C   UNL     1      -3.693 -10.449  13.735  0.00  0.00    +0.004 A 
ATOM     31  C   UNL     1      -1.371 -10.111  14.317  0.00  0.00    +0.004 A 
ATOM     32  C   UNL     1      -3.981 -10.751  15.066  0.00  0.00    +0.000 A 
ATOM     33  C   UNL     1      -1.661 -10.413  15.647  0.00  0.00    +0.000 A 
ATOM     34  C   UNL     1      -2.966 -10.733  16.022  0.00  0.00    +0.000 A 
ENDBRANCH  23  26
ENDBRANCH  22  23
ENDBRANCH  19   8
TORSDOF 4
ENDMDL
