MODEL 1
REMARK VINA RESULT:      -5.4      0.000      0.000
REMARK  Name = 75536823
REMARK  6 active torsions:
REMARK  status: ('A' for Active; 'I' for Inactive)
REMARK    1  A    between atoms: O_4  and  C_9
REMARK    2  A    between atoms: N_6  and  C_8
REMARK    3  A    between atoms: N_6  and  C_11
REMARK    4  A    between atoms: N_7  and  C_15
REMARK    5  A    between atoms: C_10  and  C_15
REMARK    6  A    between atoms: C_16  and  C_17
REMARK                            x       y       z     vdW  Elec       q    Type
REMARK                         _______ _______ _______ _____ _____    ______ ____
ROOT
ATOM      2  O   UNL     1      -0.478   4.213  24.044  0.00  0.00    -0.371 OA
ATOM      8  C   UNL     1      -1.845   4.195  25.986  0.00  0.00    +0.111 C 
ATOM      9  C   UNL     1      -1.072   2.892  25.913  0.00  0.00    +0.164 C 
ATOM     10  C   UNL     1       0.074   3.282  24.989  0.00  0.00    +0.165 C 
ATOM     12  C   UNL     1      -1.736   4.689  24.553  0.00  0.00    +0.181 C 
ENDROOT
BRANCH   9   4
ATOM      4  O   UNL     1      -0.605   2.461  27.177  0.00  0.00    -0.388 OA
ATOM     24  H   UNL     1      -0.986   1.586  27.362  0.00  0.00    +0.210 HD
ENDBRANCH   9   4
BRANCH   8   6
ATOM      6  N   UNL     1      -3.221   4.032  26.425  0.00  0.00    -0.302 NA
ATOM     23  H   UNL     1      -3.268   3.349  27.182  0.00  0.00    +0.123 HD
BRANCH   6  11
ATOM      3  O   UNL     1      -5.782   2.612  25.922  0.00  0.00    -0.377 OA
ATOM     11  C   UNL     1      -4.071   3.710  25.272  0.00  0.00    +0.106 C 
ATOM     13  C   UNL     1      -4.496   2.244  25.359  0.00  0.00    +0.180 C 
ATOM     14  C   UNL     1      -5.529   4.009  25.622  0.00  0.00    +0.180 C 
ENDBRANCH   6  11
ENDBRANCH   8   6
BRANCH  10  15
ATOM     15  C   UNL     1       0.680   2.101  24.252  0.00  0.00    +0.138 C 
BRANCH  15   7
ATOM      5  O   UNL     1      -1.842   1.622  22.965  0.00  0.00    -0.270 OA
ATOM      7  N   UNL     1      -0.139   0.930  24.381  0.00  0.00    -0.309 N 
ATOM     16  C   UNL     1      -1.354   0.783  23.717  0.00  0.00    +0.244 C 
ATOM     25  H   UNL     1       0.173   0.229  25.043  0.00  0.00    +0.149 HD
BRANCH  16  17
ATOM      1  F   UNL     1      -4.153  -3.983  24.703  0.00  0.00    -0.205 F 
ATOM     17  C   UNL     1      -2.095  -0.478  23.977  0.00  0.00    +0.037 A 
ATOM     18  C   UNL     1      -1.424  -1.587  24.495  0.00  0.00    +0.016 A 
ATOM     19  C   UNL     1      -3.461  -0.554  23.704  0.00  0.00    +0.016 A 
ATOM     20  C   UNL     1      -2.119  -2.770  24.739  0.00  0.00    +0.039 A 
ATOM     21  C   UNL     1      -4.155  -1.739  23.949  0.00  0.00    +0.039 A 
ATOM     22  C   UNL     1      -3.485  -2.847  24.467  0.00  0.00    +0.123 A 
ENDBRANCH  16  17
ENDBRANCH  15   7
ENDBRANCH  10  15
TORSDOF 6
ENDMDL
MODEL 2
REMARK VINA RESULT:      -5.1      2.818      5.335
REMARK  Name = 75536823
REMARK  6 active torsions:
REMARK  status: ('A' for Active; 'I' for Inactive)
REMARK    1  A    between atoms: O_4  and  C_9
REMARK    2  A    between atoms: N_6  and  C_8
REMARK    3  A    between atoms: N_6  and  C_11
REMARK    4  A    between atoms: N_7  and  C_15
REMARK    5  A    between atoms: C_10  and  C_15
REMARK    6  A    between atoms: C_16  and  C_17
REMARK                            x       y       z     vdW  Elec       q    Type
REMARK                         _______ _______ _______ _____ _____    ______ ____
ROOT
ATOM      2  O   UNL     1      -1.466  -2.132  23.624  0.00  0.00    -0.371 OA
ATOM      8  C   UNL     1       0.033  -0.628  24.688  0.00  0.00    +0.111 C 
ATOM      9  C   UNL     1      -1.231  -0.738  25.520  0.00  0.00    +0.164 C 
ATOM     10  C   UNL     1      -1.795  -2.062  25.021  0.00  0.00    +0.165 C 
ATOM     12  C   UNL     1      -0.443  -1.158  23.346  0.00  0.00    +0.181 C 
ENDROOT
BRANCH   9   4
ATOM      4  O   UNL     1      -0.968  -0.768  26.910  0.00  0.00    -0.388 OA
ATOM     24  H   UNL     1      -1.796  -0.986  27.373  0.00  0.00    +0.210 HD
ENDBRANCH   9   4
BRANCH   8   6
ATOM      6  N   UNL     1       0.560   0.725  24.606  0.00  0.00    -0.302 NA
ATOM     23  H   UNL     1       1.346   0.833  25.247  0.00  0.00    +0.123 HD
BRANCH   6  11
ATOM      3  O   UNL     1       0.293   3.610  25.263  0.00  0.00    -0.377 OA
ATOM     11  C   UNL     1      -0.526   1.689  24.819  0.00  0.00    +0.106 C 
ATOM     13  C   UNL     1      -0.221   2.517  26.067  0.00  0.00    +0.180 C 
ATOM     14  C   UNL     1      -0.211   2.978  24.058  0.00  0.00    +0.180 C 
ENDBRANCH   6  11
ENDBRANCH   8   6
BRANCH  10  15
ATOM     15  C   UNL     1      -3.298  -2.178  25.200  0.00  0.00    +0.138 C 
BRANCH  15   7
ATOM      5  O   UNL     1      -3.684  -0.133  23.222  0.00  0.00    -0.270 OA
ATOM      7  N   UNL     1      -3.900  -0.892  25.404  0.00  0.00    -0.309 N 
ATOM     16  C   UNL     1      -4.047   0.042  24.382  0.00  0.00    +0.244 C 
ATOM     25  H   UNL     1      -4.158  -0.657  26.355  0.00  0.00    +0.149 HD
BRANCH  16  17
ATOM      1  F   UNL     1      -6.389   4.939  25.814  0.00  0.00    -0.205 F 
ATOM     17  C   UNL     1      -4.667   1.338  24.761  0.00  0.00    +0.037 A 
ATOM     18  C   UNL     1      -4.104   2.536  24.319  0.00  0.00    +0.016 A 
ATOM     19  C   UNL     1      -5.810   1.357  25.560  0.00  0.00    +0.016 A 
ATOM     20  C   UNL     1      -4.686   3.752  24.675  0.00  0.00    +0.039 A 
ATOM     21  C   UNL     1      -6.391   2.574  25.915  0.00  0.00    +0.039 A 
ATOM     22  C   UNL     1      -5.830   3.772  25.473  0.00  0.00    +0.123 A 
ENDBRANCH  16  17
ENDBRANCH  15   7
ENDBRANCH  10  15
TORSDOF 6
ENDMDL
MODEL 3
REMARK VINA RESULT:      -4.4      1.822      3.915
REMARK  Name = 75536823
REMARK  6 active torsions:
REMARK  status: ('A' for Active; 'I' for Inactive)
REMARK    1  A    between atoms: O_4  and  C_9
REMARK    2  A    between atoms: N_6  and  C_8
REMARK    3  A    between atoms: N_6  and  C_11
REMARK    4  A    between atoms: N_7  and  C_15
REMARK    5  A    between atoms: C_10  and  C_15
REMARK    6  A    between atoms: C_16  and  C_17
REMARK                            x       y       z     vdW  Elec       q    Type
REMARK                         _______ _______ _______ _____ _____    ______ ____
ROOT
ATOM      2  O   UNL     1      -4.861   3.720  26.393  0.00  0.00    -0.371 OA
ATOM      8  C   UNL     1      -2.867   4.306  25.244  0.00  0.00    +0.111 C 
ATOM      9  C   UNL     1      -3.645   3.308  24.407  0.00  0.00    +0.164 C 
ATOM     10  C   UNL     1      -5.043   3.463  24.991  0.00  0.00    +0.165 C 
ATOM     12  C   UNL     1      -3.491   4.102  26.613  0.00  0.00    +0.181 C 
ENDROOT
BRANCH   9   4
ATOM      4  O   UNL     1      -3.615   3.611  23.026  0.00  0.00    -0.388 OA
ATOM     24  H   UNL     1      -3.987   4.500  22.899  0.00  0.00    +0.210 HD
ENDBRANCH   9   4
BRANCH   8   6
ATOM      6  N   UNL     1      -1.431   4.078  25.236  0.00  0.00    -0.302 NA
ATOM     23  H   UNL     1      -1.023   4.448  24.378  0.00  0.00    +0.123 HD
BRANCH   6  11
ATOM      3  O   UNL     1       0.867   2.217  24.955  0.00  0.00    -0.377 OA
ATOM     11  C   UNL     1      -1.158   2.655  25.469  0.00  0.00    +0.106 C 
ATOM     13  C   UNL     1      -0.403   2.089  24.265  0.00  0.00    +0.180 C 
ATOM     14  C   UNL     1       0.178   2.511  26.198  0.00  0.00    +0.180 C 
ENDBRANCH   6  11
ENDBRANCH   8   6
BRANCH  10  15
ATOM     15  C   UNL     1      -5.911   2.231  24.804  0.00  0.00    +0.138 C 
BRANCH  15   7
ATOM      5  O   UNL     1      -4.737   0.328  26.607  0.00  0.00    -0.270 OA
ATOM      7  N   UNL     1      -5.122   1.087  24.448  0.00  0.00    -0.309 N 
ATOM     16  C   UNL     1      -4.590   0.214  25.393  0.00  0.00    +0.244 C 
ATOM     25  H   UNL     1      -4.904   0.974  23.464  0.00  0.00    +0.149 HD
BRANCH  16  17
ATOM      1  F   UNL     1      -1.505  -4.029  23.392  0.00  0.00    -0.205 F 
ATOM     17  C   UNL     1      -3.774  -0.909  24.863  0.00  0.00    +0.037 A 
ATOM     18  C   UNL     1      -2.400  -0.947  25.104  0.00  0.00    +0.016 A 
ATOM     19  C   UNL     1      -4.381  -1.924  24.124  0.00  0.00    +0.016 A 
ATOM     20  C   UNL     1      -1.634  -2.000  24.607  0.00  0.00    +0.039 A 
ATOM     21  C   UNL     1      -3.613  -2.978  23.627  0.00  0.00    +0.039 A 
ATOM     22  C   UNL     1      -2.240  -3.017  23.868  0.00  0.00    +0.123 A 
ENDBRANCH  16  17
ENDBRANCH  15   7
ENDBRANCH  10  15
TORSDOF 6
ENDMDL
MODEL 4
REMARK VINA RESULT:      -3.9      3.793      5.062
REMARK  Name = 75536823
REMARK  6 active torsions:
REMARK  status: ('A' for Active; 'I' for Inactive)
REMARK    1  A    between atoms: O_4  and  C_9
REMARK    2  A    between atoms: N_6  and  C_8
REMARK    3  A    between atoms: N_6  and  C_11
REMARK    4  A    between atoms: N_7  and  C_15
REMARK    5  A    between atoms: C_10  and  C_15
REMARK    6  A    between atoms: C_16  and  C_17
REMARK                            x       y       z     vdW  Elec       q    Type
REMARK                         _______ _______ _______ _____ _____    ______ ____
ROOT
ATOM      2  O   UNL     1      -2.218   1.654  22.696  0.00  0.00    -0.371 OA
ATOM      8  C   UNL     1      -2.717   3.139  24.482  0.00  0.00    +0.111 C 
ATOM      9  C   UNL     1      -1.794   2.047  24.989  0.00  0.00    +0.164 C 
ATOM     10  C   UNL     1      -1.181   1.552  23.686  0.00  0.00    +0.165 C 
ATOM     12  C   UNL     1      -3.256   2.509  23.209  0.00  0.00    +0.181 C 
ENDROOT
BRANCH   9   4
ATOM      4  O   UNL     1      -0.810   2.534  25.882  0.00  0.00    -0.388 OA
ATOM     24  H   UNL     1       0.003   2.016  25.754  0.00  0.00    +0.210 HD
ENDBRANCH   9   4
BRANCH   8   6
ATOM      6  N   UNL     1      -3.765   3.499  25.422  0.00  0.00    -0.302 NA
ATOM     23  H   UNL     1      -3.519   3.179  26.359  0.00  0.00    +0.123 HD
BRANCH   6  11
ATOM      3  O   UNL     1      -6.247   2.354  26.585  0.00  0.00    -0.377 OA
ATOM     11  C   UNL     1      -5.056   2.998  24.935  0.00  0.00    +0.106 C 
ATOM     13  C   UNL     1      -5.377   1.680  25.640  0.00  0.00    +0.180 C 
ATOM     14  C   UNL     1      -6.178   3.573  25.801  0.00  0.00    +0.180 C 
ENDBRANCH   6  11
ENDBRANCH   8   6
BRANCH  10  15
ATOM     15  C   UNL     1      -0.685   0.119  23.762  0.00  0.00    +0.138 C 
BRANCH  15   7
ATOM      5  O   UNL     1       1.209  -0.261  21.638  0.00  0.00    -0.270 OA
ATOM      7  N   UNL     1       0.743   0.067  23.887  0.00  0.00    -0.309 N 
ATOM     16  C   UNL     1       1.589  -0.122  22.797  0.00  0.00    +0.244 C 
ATOM     25  H   UNL     1       1.119   0.104  24.828  0.00  0.00    +0.149 HD
BRANCH  16  17
ATOM      1  F   UNL     1       7.084  -0.337  23.929  0.00  0.00    -0.205 F 
ATOM     17  C   UNL     1       3.043  -0.178  23.097  0.00  0.00    +0.037 A 
ATOM     18  C   UNL     1       3.598  -1.336  23.644  0.00  0.00    +0.016 A 
ATOM     19  C   UNL     1       3.853   0.926  22.832  0.00  0.00    +0.016 A 
ATOM     20  C   UNL     1       4.962  -1.389  23.926  0.00  0.00    +0.039 A 
ATOM     21  C   UNL     1       5.218   0.872  23.114  0.00  0.00    +0.039 A 
ATOM     22  C   UNL     1       5.773  -0.285  23.660  0.00  0.00    +0.123 A 
ENDBRANCH  16  17
ENDBRANCH  15   7
ENDBRANCH  10  15
TORSDOF 6
ENDMDL
MODEL 5
REMARK VINA RESULT:      -3.2      2.790      4.775
REMARK  Name = 75536823
REMARK  6 active torsions:
REMARK  status: ('A' for Active; 'I' for Inactive)
REMARK    1  A    between atoms: O_4  and  C_9
REMARK    2  A    between atoms: N_6  and  C_8
REMARK    3  A    between atoms: N_6  and  C_11
REMARK    4  A    between atoms: N_7  and  C_15
REMARK    5  A    between atoms: C_10  and  C_15
REMARK    6  A    between atoms: C_16  and  C_17
REMARK                            x       y       z     vdW  Elec       q    Type
REMARK                         _______ _______ _______ _____ _____    ______ ____
ROOT
ATOM      2  O   UNL     1      -4.836   0.939  25.464  0.00  0.00    -0.371 OA
ATOM      8  C   UNL     1      -4.350   2.906  24.225  0.00  0.00    +0.111 C 
ATOM      9  C   UNL     1      -3.400   1.804  23.796  0.00  0.00    +0.164 C 
ATOM     10  C   UNL     1      -4.163   0.566  24.250  0.00  0.00    +0.165 C 
ATOM     12  C   UNL     1      -4.844   2.374  25.560  0.00  0.00    +0.181 C 
ENDROOT
BRANCH   9   4
ATOM      4  O   UNL     1      -3.167   1.796  22.401  0.00  0.00    -0.388 OA
ATOM     24  H   UNL     1      -3.782   2.424  21.984  0.00  0.00    +0.210 HD
ENDBRANCH   9   4
BRANCH   8   6
ATOM      6  N   UNL     1      -3.717   4.210  24.335  0.00  0.00    -0.302 NA
ATOM     23  H   UNL     1      -3.358   4.502  23.426  0.00  0.00    +0.123 HD
BRANCH   6  11
ATOM      3  O   UNL     1      -0.884   5.033  24.689  0.00  0.00    -0.377 OA
ATOM     11  C   UNL     1      -2.707   4.178  25.400  0.00  0.00    +0.106 C 
ATOM     13  C   UNL     1      -1.385   3.677  24.818  0.00  0.00    +0.180 C 
ATOM     14  C   UNL     1      -2.003   5.534  25.466  0.00  0.00    +0.180 C 
ENDBRANCH   6  11
ENDBRANCH   8   6
BRANCH  10  15
ATOM     15  C   UNL     1      -3.265  -0.631  24.508  0.00  0.00    +0.138 C 
BRANCH  15   7
ATOM      5  O   UNL     1      -0.930   0.482  25.756  0.00  0.00    -0.270 OA
ATOM      7  N   UNL     1      -1.975  -0.453  23.907  0.00  0.00    -0.309 N 
ATOM     16  C   UNL     1      -0.894   0.098  24.590  0.00  0.00    +0.244 C 
ATOM     25  H   UNL     1      -1.896  -0.685  22.923  0.00  0.00    +0.149 HD
BRANCH  16  17
ATOM      1  F   UNL     1       3.873   0.626  21.671  0.00  0.00    -0.205 F 
ATOM     17  C   UNL     1       0.368   0.238  23.818  0.00  0.00    +0.037 A 
ATOM     18  C   UNL     1       0.661  -0.662  22.793  0.00  0.00    +0.016 A 
ATOM     19  C   UNL     1       1.259   1.267  24.119  0.00  0.00    +0.016 A 
ATOM     20  C   UNL     1       1.844  -0.531  22.068  0.00  0.00    +0.039 A 
ATOM     21  C   UNL     1       2.443   1.397  23.393  0.00  0.00    +0.039 A 
ATOM     22  C   UNL     1       2.736   0.499  22.368  0.00  0.00    +0.123 A 
ENDBRANCH  16  17
ENDBRANCH  15   7
ENDBRANCH  10  15
TORSDOF 6
ENDMDL
MODEL 6
REMARK VINA RESULT:      -3.1     15.669     17.812
REMARK  Name = 75536823
REMARK  6 active torsions:
REMARK  status: ('A' for Active; 'I' for Inactive)
REMARK    1  A    between atoms: O_4  and  C_9
REMARK    2  A    between atoms: N_6  and  C_8
REMARK    3  A    between atoms: N_6  and  C_11
REMARK    4  A    between atoms: N_7  and  C_15
REMARK    5  A    between atoms: C_10  and  C_15
REMARK    6  A    between atoms: C_16  and  C_17
REMARK                            x       y       z     vdW  Elec       q    Type
REMARK                         _______ _______ _______ _____ _____    ______ ____
ROOT
ATOM      2  O   UNL     1      -7.211  -8.843  12.810  0.00  0.00    -0.371 OA
ATOM      8  C   UNL     1      -5.840  -9.775  11.109  0.00  0.00    +0.111 C 
ATOM      9  C   UNL     1      -7.245 -10.332  10.973  0.00  0.00    +0.164 C 
ATOM     10  C   UNL     1      -8.050  -9.284  11.730  0.00  0.00    +0.165 C 
ATOM     12  C   UNL     1      -5.860  -9.254  12.536  0.00  0.00    +0.181 C 
ENDROOT
BRANCH   9   4
ATOM      4  O   UNL     1      -7.660 -10.444   9.625  0.00  0.00    -0.388 OA
ATOM     24  H   UNL     1      -7.675 -11.387   9.387  0.00  0.00    +0.210 HD
ENDBRANCH   9   4
BRANCH   8   6
ATOM      6  N   UNL     1      -4.797 -10.762  10.880  0.00  0.00    -0.302 NA
ATOM     23  H   UNL     1      -4.303 -10.956  11.751  0.00  0.00    +0.123 HD
BRANCH   6  11
ATOM      3  O   UNL     1      -5.109  -9.391   8.263  0.00  0.00    -0.377 OA
ATOM     11  C   UNL     1      -3.930 -10.315   9.783  0.00  0.00    +0.106 C 
ATOM     13  C   UNL     1      -4.561 -10.721   8.452  0.00  0.00    +0.180 C 
ATOM     14  C   UNL     1      -4.323  -8.894   9.378  0.00  0.00    +0.180 C 
ENDBRANCH   6  11
ENDBRANCH   8   6
BRANCH  10  15
ATOM     15  C   UNL     1      -9.359  -9.818  12.283  0.00  0.00    +0.138 C 
BRANCH  15   7
ATOM      5  O   UNL     1     -10.208  -8.106  14.426  0.00  0.00    -0.270 OA
ATOM      7  N   UNL     1      -9.259 -10.090  13.688  0.00  0.00    -0.309 N 
ATOM     16  C   UNL     1      -9.699  -9.198  14.662  0.00  0.00    +0.244 C 
ATOM     25  H   UNL     1      -8.783 -10.945  13.952  0.00  0.00    +0.149 HD
BRANCH  16  17
ATOM      1  F   UNL     1      -8.946 -10.780  19.996  0.00  0.00    -0.205 F 
ATOM     17  C   UNL     1      -9.500  -9.617  16.073  0.00  0.00    +0.037 A 
ATOM     18  C   UNL     1      -8.307 -10.230  16.457  0.00  0.00    +0.016 A 
ATOM     19  C   UNL     1     -10.506  -9.398  17.015  0.00  0.00    +0.016 A 
ATOM     20  C   UNL     1      -8.120 -10.623  17.781  0.00  0.00    +0.039 A 
ATOM     21  C   UNL     1     -10.318  -9.792  18.339  0.00  0.00    +0.039 A 
ATOM     22  C   UNL     1      -9.126 -10.404  18.724  0.00  0.00    +0.123 A 
ENDBRANCH  16  17
ENDBRANCH  15   7
ENDBRANCH  10  15
TORSDOF 6
ENDMDL
MODEL 7
REMARK VINA RESULT:      -2.9     15.069     17.881
REMARK  Name = 75536823
REMARK  6 active torsions:
REMARK  status: ('A' for Active; 'I' for Inactive)
REMARK    1  A    between atoms: O_4  and  C_9
REMARK    2  A    between atoms: N_6  and  C_8
REMARK    3  A    between atoms: N_6  and  C_11
REMARK    4  A    between atoms: N_7  and  C_15
REMARK    5  A    between atoms: C_10  and  C_15
REMARK    6  A    between atoms: C_16  and  C_17
REMARK                            x       y       z     vdW  Elec       q    Type
REMARK                         _______ _______ _______ _____ _____    ______ ____
ROOT
ATOM      2  O   UNL     1      16.294   5.742  18.510  0.00  0.00    -0.371 OA
ATOM      8  C   UNL     1      15.218   7.469  17.285  0.00  0.00    +0.111 C 
ATOM      9  C   UNL     1      15.031   7.725  18.770  0.00  0.00    +0.164 C 
ATOM     10  C   UNL     1      16.169   6.898  19.355  0.00  0.00    +0.165 C 
ATOM     12  C   UNL     1      15.594   5.998  17.279  0.00  0.00    +0.181 C 
ENDROOT
BRANCH   9   4
ATOM      4  O   UNL     1      15.147   9.094  19.107  0.00  0.00    -0.388 OA
ATOM     24  H   UNL     1      14.779   9.221  19.998  0.00  0.00    +0.210 HD
ENDBRANCH   9   4
BRANCH   8   6
ATOM      6  N   UNL     1      14.033   7.754  16.492  0.00  0.00    -0.302 NA
ATOM     23  H   UNL     1      14.300   8.188  15.608  0.00  0.00    +0.123 HD
BRANCH   6  11
ATOM      3  O   UNL     1      11.086   8.002  16.777  0.00  0.00    -0.377 OA
ATOM     11  C   UNL     1      13.087   8.545  17.289  0.00  0.00    +0.106 C 
ATOM     13  C   UNL     1      11.981   9.070  16.372  0.00  0.00    +0.180 C 
ATOM     14  C   UNL     1      11.999   7.622  17.840  0.00  0.00    +0.180 C 
ENDBRANCH   6  11
ENDBRANCH   8   6
BRANCH  10  15
ATOM     15  C   UNL     1      15.918   6.463  20.787  0.00  0.00    +0.138 C 
BRANCH  15   7
ATOM      5  O   UNL     1      14.298   8.573  21.868  0.00  0.00    -0.270 OA
ATOM      7  N   UNL     1      14.514   6.402  21.076  0.00  0.00    -0.309 N 
ATOM     16  C   UNL     1      13.806   7.479  21.602  0.00  0.00    +0.244 C 
ATOM     25  H   UNL     1      14.062   5.505  20.946  0.00  0.00    +0.149 HD
BRANCH  16  17
ATOM      1  F   UNL     1       8.353   6.606  22.613  0.00  0.00    -0.205 F 
ATOM     17  C   UNL     1      12.363   7.248  21.870  0.00  0.00    +0.037 A 
ATOM     18  C   UNL     1      11.573   8.281  22.375  0.00  0.00    +0.016 A 
ATOM     19  C   UNL     1      11.798   5.998  21.617  0.00  0.00    +0.016 A 
ATOM     20  C   UNL     1      10.220   8.064  22.627  0.00  0.00    +0.039 A 
ATOM     21  C   UNL     1      10.443   5.782  21.869  0.00  0.00    +0.039 A 
ATOM     22  C   UNL     1       9.654   6.814  22.373  0.00  0.00    +0.123 A 
ENDBRANCH  16  17
ENDBRANCH  15   7
ENDBRANCH  10  15
TORSDOF 6
ENDMDL
MODEL 8
REMARK VINA RESULT:      -2.7      3.986      5.753
REMARK  Name = 75536823
REMARK  6 active torsions:
REMARK  status: ('A' for Active; 'I' for Inactive)
REMARK    1  A    between atoms: O_4  and  C_9
REMARK    2  A    between atoms: N_6  and  C_8
REMARK    3  A    between atoms: N_6  and  C_11
REMARK    4  A    between atoms: N_7  and  C_15
REMARK    5  A    between atoms: C_10  and  C_15
REMARK    6  A    between atoms: C_16  and  C_17
REMARK                            x       y       z     vdW  Elec       q    Type
REMARK                         _______ _______ _______ _____ _____    ______ ____
ROOT
ATOM      2  O   UNL     1      -2.487   2.352  24.409  0.00  0.00    -0.371 OA
ATOM      8  C   UNL     1      -2.713   0.333  25.638  0.00  0.00    +0.111 C 
ATOM      9  C   UNL     1      -1.437   0.273  24.818  0.00  0.00    +0.164 C 
ATOM     10  C   UNL     1      -1.189   1.752  24.554  0.00  0.00    +0.165 C 
ATOM     12  C   UNL     1      -3.471   1.444  24.933  0.00  0.00    +0.181 C 
ENDROOT
BRANCH   9   4
ATOM      4  O   UNL     1      -0.364  -0.324  25.520  0.00  0.00    -0.388 OA
ATOM     24  H   UNL     1       0.470  -0.012  25.129  0.00  0.00    +0.210 HD
ENDBRANCH   9   4
BRANCH   8   6
ATOM      6  N   UNL     1      -3.445  -0.923  25.668  0.00  0.00    -0.302 NA
ATOM     23  H   UNL     1      -3.315  -1.382  26.570  0.00  0.00    +0.123 HD
BRANCH   6  11
ATOM      3  O   UNL     1      -4.650  -3.081  24.019  0.00  0.00    -0.377 OA
ATOM     11  C   UNL     1      -3.060  -1.744  24.514  0.00  0.00    +0.106 C 
ATOM     13  C   UNL     1      -3.429  -3.201  24.794  0.00  0.00    +0.180 C 
ATOM     14  C   UNL     1      -4.220  -1.788  23.519  0.00  0.00    +0.180 C 
ENDBRANCH   6  11
ENDBRANCH   8   6
BRANCH  10  15
ATOM     15  C   UNL     1      -0.363   2.008  23.307  0.00  0.00    +0.138 C 
BRANCH  15   7
ATOM      5  O   UNL     1       0.902  -0.241  22.046  0.00  0.00    -0.270 OA
ATOM      7  N   UNL     1       0.995   1.579  23.483  0.00  0.00    -0.309 N 
ATOM     16  C   UNL     1       1.526   0.471  22.828  0.00  0.00    +0.244 C 
ATOM     25  H   UNL     1       1.545   2.082  24.170  0.00  0.00    +0.149 HD
BRANCH  16  17
ATOM      1  F   UNL     1       6.875  -0.770  24.002  0.00  0.00    -0.205 F 
ATOM     17  C   UNL     1       2.941   0.142  23.139  0.00  0.00    +0.037 A 
ATOM     18  C   UNL     1       3.936   1.104  22.961  0.00  0.00    +0.016 A 
ATOM     19  C   UNL     1       3.276  -1.129  23.607  0.00  0.00    +0.016 A 
ATOM     20  C   UNL     1       5.264   0.797  23.252  0.00  0.00    +0.039 A 
ATOM     21  C   UNL     1       4.605  -1.436  23.898  0.00  0.00    +0.039 A 
ATOM     22  C   UNL     1       5.600  -0.474  23.721  0.00  0.00    +0.123 A 
ENDBRANCH  16  17
ENDBRANCH  15   7
ENDBRANCH  10  15
TORSDOF 6
ENDMDL
MODEL 9
REMARK VINA RESULT:      -2.6     15.567     17.617
REMARK  Name = 75536823
REMARK  6 active torsions:
REMARK  status: ('A' for Active; 'I' for Inactive)
REMARK    1  A    between atoms: O_4  and  C_9
REMARK    2  A    between atoms: N_6  and  C_8
REMARK    3  A    between atoms: N_6  and  C_11
REMARK    4  A    between atoms: N_7  and  C_15
REMARK    5  A    between atoms: C_10  and  C_15
REMARK    6  A    between atoms: C_16  and  C_17
REMARK                            x       y       z     vdW  Elec       q    Type
REMARK                         _______ _______ _______ _____ _____    ______ ____
ROOT
ATOM      2  O   UNL     1      -6.225  -8.046  11.021  0.00  0.00    -0.371 OA
ATOM      8  C   UNL     1      -4.346  -8.968   9.899  0.00  0.00    +0.111 C 
ATOM      9  C   UNL     1      -5.440 -10.017   9.978  0.00  0.00    +0.164 C 
ATOM     10  C   UNL     1      -6.667  -9.145  10.208  0.00  0.00    +0.165 C 
ATOM     12  C   UNL     1      -4.789  -7.992  10.976  0.00  0.00    +0.181 C 
ENDROOT
BRANCH   9   4
ATOM      4  O   UNL     1      -5.551 -10.781   8.793  0.00  0.00    -0.388 OA
ATOM     24  H   UNL     1      -6.039 -10.257   8.135  0.00  0.00    +0.210 HD
ENDBRANCH   9   4
BRANCH   8   6
ATOM      6  N   UNL     1      -3.012  -9.498  10.129  0.00  0.00    -0.302 NA
ATOM     23  H   UNL     1      -2.551  -9.683   9.238  0.00  0.00    +0.123 HD
BRANCH   6  11
ATOM      3  O   UNL     1      -2.389 -10.136  12.963  0.00  0.00    -0.377 OA
ATOM     11  C   UNL     1      -3.093 -10.664  11.018  0.00  0.00    +0.106 C 
ATOM     13  C   UNL     1      -1.790 -10.779  11.808  0.00  0.00    +0.180 C 
ATOM     14  C   UNL     1      -3.702 -10.236  12.353  0.00  0.00    +0.180 C 
ENDBRANCH   6  11
ENDBRANCH   8   6
BRANCH  10  15
ATOM     15  C   UNL     1      -7.800  -9.876  10.905  0.00  0.00    +0.138 C 
BRANCH  15   7
ATOM      5  O   UNL     1      -9.769  -9.592  12.976  0.00  0.00    -0.270 OA
ATOM      7  N   UNL     1      -7.574  -9.962  12.319  0.00  0.00    -0.309 N 
ATOM     16  C   UNL     1      -8.593  -9.810  13.256  0.00  0.00    +0.244 C 
ATOM     25  H   UNL     1      -6.612 -10.070  12.619  0.00  0.00    +0.149 HD
BRANCH  16  17
ATOM      1  F   UNL     1      -7.069 -10.150  18.649  0.00  0.00    -0.205 F 
ATOM     17  C   UNL     1      -8.190  -9.900  14.683  0.00  0.00    +0.037 A 
ATOM     18  C   UNL     1      -6.903 -10.321  15.019  0.00  0.00    +0.016 A 
ATOM     19  C   UNL     1      -9.098  -9.565  15.687  0.00  0.00    +0.016 A 
ATOM     20  C   UNL     1      -6.524 -10.406  16.358  0.00  0.00    +0.039 A 
ATOM     21  C   UNL     1      -8.719  -9.650  17.027  0.00  0.00    +0.039 A 
ATOM     22  C   UNL     1      -7.432 -10.070  17.363  0.00  0.00    +0.123 A 
ENDBRANCH  16  17
ENDBRANCH  15   7
ENDBRANCH  10  15
TORSDOF 6
ENDMDL
MODEL 10
REMARK VINA RESULT:      -2.4      3.965      6.916
REMARK  Name = 75536823
REMARK  6 active torsions:
REMARK  status: ('A' for Active; 'I' for Inactive)
REMARK    1  A    between atoms: O_4  and  C_9
REMARK    2  A    between atoms: N_6  and  C_8
REMARK    3  A    between atoms: N_6  and  C_11
REMARK    4  A    between atoms: N_7  and  C_15
REMARK    5  A    between atoms: C_10  and  C_15
REMARK    6  A    between atoms: C_16  and  C_17
REMARK                            x       y       z     vdW  Elec       q    Type
REMARK                         _______ _______ _______ _____ _____    ______ ____
ROOT
ATOM      2  O   UNL     1       1.487   1.647  23.879  0.00  0.00    -0.371 OA
ATOM      8  C   UNL     1       2.981   0.795  22.240  0.00  0.00    +0.111 C 
ATOM      9  C   UNL     1       1.799  -0.148  22.370  0.00  0.00    +0.164 C 
ATOM     10  C   UNL     1       0.760   0.770  23.003  0.00  0.00    +0.165 C 
ATOM     12  C   UNL     1       2.883   1.580  23.538  0.00  0.00    +0.181 C 
ENDROOT
BRANCH   9   4
ATOM      4  O   UNL     1       1.365  -0.654  21.123  0.00  0.00    -0.388 OA
ATOM     24  H   UNL     1       0.398  -0.755  21.154  0.00  0.00    +0.210 HD
ENDBRANCH   9   4
BRANCH   8   6
ATOM      6  N   UNL     1       4.255   0.113  22.086  0.00  0.00    -0.302 NA
ATOM     23  H   UNL     1       4.103  -0.851  21.789  0.00  0.00    +0.123 HD
BRANCH   6  11
ATOM      3  O   UNL     1       6.146  -1.545  23.668  0.00  0.00    -0.377 OA
ATOM     11  C   UNL     1       5.037   0.246  23.322  0.00  0.00    +0.106 C 
ATOM     13  C   UNL     1       4.878  -1.029  24.151  0.00  0.00    +0.180 C 
ATOM     14  C   UNL     1       6.459  -0.259  23.074  0.00  0.00    +0.180 C 
ENDBRANCH   6  11
ENDBRANCH   8   6
BRANCH  10  15
ATOM     15  C   UNL     1      -0.301   0.022  23.790  0.00  0.00    +0.138 C 
BRANCH  15   7
ATOM      5  O   UNL     1      -3.034  -0.730  24.248  0.00  0.00    -0.270 OA
ATOM      7  N   UNL     1      -1.376   0.891  24.173  0.00  0.00    -0.309 N 
ATOM     16  C   UNL     1      -2.676   0.438  24.374  0.00  0.00    +0.244 C 
ATOM     25  H   UNL     1      -1.163   1.881  24.225  0.00  0.00    +0.149 HD
BRANCH  16  17
ATOM      1  F   UNL     1      -6.472   4.333  25.769  0.00  0.00    -0.205 F 
ATOM     17  C   UNL     1      -3.681   1.469  24.743  0.00  0.00    +0.037 A 
ATOM     18  C   UNL     1      -4.997   1.094  25.014  0.00  0.00    +0.016 A 
ATOM     19  C   UNL     1      -3.308   2.811  24.816  0.00  0.00    +0.016 A 
ATOM     20  C   UNL     1      -5.940   2.061  25.360  0.00  0.00    +0.039 A 
ATOM     21  C   UNL     1      -4.252   3.778  25.163  0.00  0.00    +0.039 A 
ATOM     22  C   UNL     1      -5.568   3.404  25.435  0.00  0.00    +0.123 A 
ENDBRANCH  16  17
ENDBRANCH  15   7
ENDBRANCH  10  15
TORSDOF 6
ENDMDL
