MODEL 1
REMARK VINA RESULT:      -2.1      0.000      0.000
REMARK  Name = 11879568
REMARK  8 active torsions:
REMARK  status: ('A' for Active; 'I' for Inactive)
REMARK    1  A    between atoms: O_3  and  C_25
REMARK    2  A    between atoms: O_3  and  C_26
REMARK    3  A    between atoms: N_5  and  C_14
REMARK    4  A    between atoms: N_6  and  C_15
REMARK    5  A    between atoms: N_7  and  C_18
REMARK    6  A    between atoms: N_11  and  C_29
REMARK    7  A    between atoms: N_11  and  C_32
REMARK    8  A    between atoms: N_11  and  C_33
REMARK                            x       y       z     vdW  Elec       q    Type
REMARK                         _______ _______ _______ _____ _____    ______ ____
ROOT
ATOM      1  O   UNL     1      -1.605   3.439  23.608  0.00  0.00    -0.370 OA
ATOM      2  O   UNL     1      -1.852   3.700  26.734  0.00  0.00    -0.370 OA
ATOM     12  C   UNL     1      -1.484   2.634  25.844  0.00  0.00    +0.171 C 
ATOM     13  C   UNL     1      -2.361   2.738  24.613  0.00  0.00    +0.176 C 
ATOM     14  C   UNL     1      -0.081   2.848  25.323  0.00  0.00    +0.131 C 
ATOM     15  C   UNL     1      -3.543   3.583  25.050  0.00  0.00    +0.171 C 
ATOM     16  C   UNL     1      -0.312   3.767  24.138  0.00  0.00    +0.185 C 
ATOM     17  C   UNL     1      -2.961   4.423  26.182  0.00  0.00    +0.190 C 
ENDROOT
BRANCH  14   5
ATOM      4  O   UNL     1       1.765   2.463  23.151  0.00  0.00    -0.253 OA
ATOM      5  N   UNL     1       0.518   1.602  24.909  0.00  0.00    -0.292 N 
ATOM      7  N   UNL     1       1.836   0.197  23.651  0.00  0.00    -0.297 N 
ATOM     21  C   UNL     1       1.407   1.508  23.840  0.00  0.00    +0.300 C 
ATOM     34  H   UNL     1       0.232   0.745  25.373  0.00  0.00    +0.151 HD
ATOM     35  H   UNL     1       1.421  -0.527  24.231  0.00  0.00    +0.151 HD
BRANCH   7  18
ATOM     18  C   UNL     1       2.763  -0.191  22.611  0.00  0.00    +0.074 C 
ATOM     19  C   UNL     1       3.385  -1.558  22.909  0.00  0.00    +0.022 C 
ATOM     20  C   UNL     1       3.841   0.878  22.407  0.00  0.00    +0.022 C 
ATOM     22  C   UNL     1       4.387  -1.505  24.063  0.00  0.00    +0.002 C 
ATOM     23  C   UNL     1       4.841   0.928  23.560  0.00  0.00    +0.002 C 
ATOM     24  C   UNL     1       5.457  -0.442  23.831  0.00  0.00    +0.000 C 
ENDBRANCH   7  18
ENDBRANCH  14   5
BRANCH  15   6
ATOM      6  N   UNL     1      -4.708   2.773  25.414  0.00  0.00    -0.187 N 
ATOM      8  N   UNL     1      -5.555   3.169  26.375  0.00  0.00    -0.041 NA
ATOM      9  N   UNL     1      -6.215   1.216  25.524  0.00  0.00    -0.071 NA
ATOM     10  N   UNL     1      -6.474   2.213  26.438  0.00  0.00    -0.020 NA
ATOM     25  C   UNL     1      -5.118   1.584  24.901  0.00  0.00    +0.342 A 
BRANCH  25   3
ATOM      3  O   UNL     1      -4.499   0.926  23.938  0.00  0.00    -0.423 OA
BRANCH   3  26
ATOM     26  C   UNL     1      -3.875  -0.295  24.150  0.00  0.00    +0.134 A 
ATOM     27  C   UNL     1      -2.652  -0.349  24.818  0.00  0.00    +0.069 A 
ATOM     28  C   UNL     1      -4.471  -1.471  23.693  0.00  0.00    +0.046 A 
ATOM     29  C   UNL     1      -2.025  -1.577  25.030  0.00  0.00    +0.033 A 
ATOM     30  C   UNL     1      -3.846  -2.700  23.905  0.00  0.00    +0.005 A 
ATOM     31  C   UNL     1      -2.622  -2.752  24.573  0.00  0.00    +0.023 A 
BRANCH  29  11
ATOM     11  N   UNL     1      -0.789  -1.631  25.705  0.00  0.00    -0.336 N 
ATOM     32  C   UNL     1       0.250  -2.542  25.265  0.00  0.00    +0.129 C 
ATOM     33  C   UNL     1      -0.545  -0.786  26.858  0.00  0.00    +0.129 C 
ENDBRANCH  29  11
ENDBRANCH   3  26
ENDBRANCH  25   3
ENDBRANCH  15   6
TORSDOF 6
ENDMDL
MODEL 2
REMARK VINA RESULT:       1.0      1.279      1.849
REMARK  Name = 11879568
REMARK  8 active torsions:
REMARK  status: ('A' for Active; 'I' for Inactive)
REMARK    1  A    between atoms: O_3  and  C_25
REMARK    2  A    between atoms: O_3  and  C_26
REMARK    3  A    between atoms: N_5  and  C_14
REMARK    4  A    between atoms: N_6  and  C_15
REMARK    5  A    between atoms: N_7  and  C_18
REMARK    6  A    between atoms: N_11  and  C_29
REMARK    7  A    between atoms: N_11  and  C_32
REMARK    8  A    between atoms: N_11  and  C_33
REMARK                            x       y       z     vdW  Elec       q    Type
REMARK                         _______ _______ _______ _____ _____    ______ ____
ROOT
ATOM      1  O   UNL     1      -3.051   4.898  23.838  0.00  0.00    -0.370 OA
ATOM      2  O   UNL     1      -2.666   4.256  26.894  0.00  0.00    -0.370 OA
ATOM     12  C   UNL     1      -2.246   3.619  25.677  0.00  0.00    +0.171 C 
ATOM     13  C   UNL     1      -3.368   3.765  24.669  0.00  0.00    +0.176 C 
ATOM     14  C   UNL     1      -1.090   4.376  25.062  0.00  0.00    +0.131 C 
ATOM     15  C   UNL     1      -4.599   4.068  25.503  0.00  0.00    +0.171 C 
ATOM     16  C   UNL     1      -1.798   5.454  24.262  0.00  0.00    +0.185 C 
ATOM     17  C   UNL     1      -4.015   4.724  26.749  0.00  0.00    +0.190 C 
ENDROOT
BRANCH  14   5
ATOM      4  O   UNL     1       0.180   1.902  25.794  0.00  0.00    -0.253 OA
ATOM      5  N   UNL     1      -0.303   3.523  24.205  0.00  0.00    -0.292 N 
ATOM      7  N   UNL     1       0.981   1.705  23.624  0.00  0.00    -0.297 N 
ATOM     21  C   UNL     1       0.277   2.336  24.646  0.00  0.00    +0.300 C 
ATOM     34  H   UNL     1      -0.109   3.830  23.256  0.00  0.00    +0.151 HD
ATOM     35  H   UNL     1       1.058   2.187  22.733  0.00  0.00    +0.151 HD
BRANCH   7  18
ATOM     18  C   UNL     1       1.684   0.454  23.801  0.00  0.00    +0.074 C 
ATOM     19  C   UNL     1       3.199   0.653  23.694  0.00  0.00    +0.022 C 
ATOM     20  C   UNL     1       1.191  -0.601  22.805  0.00  0.00    +0.022 C 
ATOM     22  C   UNL     1       3.652   0.939  22.261  0.00  0.00    +0.002 C 
ATOM     23  C   UNL     1       1.646  -0.313  21.375  0.00  0.00    +0.002 C 
ATOM     24  C   UNL     1       3.158  -0.131  21.291  0.00  0.00    +0.000 C 
ENDBRANCH   7  18
ENDBRANCH  14   5
BRANCH  15   6
ATOM      6  N   UNL     1      -5.415   2.877  25.752  0.00  0.00    -0.187 N 
ATOM      8  N   UNL     1      -6.446   2.910  26.609  0.00  0.00    -0.041 NA
ATOM      9  N   UNL     1      -6.243   0.873  25.726  0.00  0.00    -0.071 NA
ATOM     10  N   UNL     1      -6.948   1.682  26.589  0.00  0.00    -0.020 NA
ATOM     25  C   UNL     1      -5.300   1.633  25.219  0.00  0.00    +0.342 A 
BRANCH  25   3
ATOM      3  O   UNL     1      -4.383   1.273  24.341  0.00  0.00    -0.423 OA
BRANCH   3  26
ATOM     26  C   UNL     1      -3.777   0.024  24.363  0.00  0.00    +0.134 A 
ATOM     27  C   UNL     1      -2.592  -0.165  25.073  0.00  0.00    +0.069 A 
ATOM     28  C   UNL     1      -4.355  -1.043  23.674  0.00  0.00    +0.046 A 
ATOM     29  C   UNL     1      -1.984  -1.421  25.094  0.00  0.00    +0.033 A 
ATOM     30  C   UNL     1      -3.748  -2.299  23.696  0.00  0.00    +0.005 A 
ATOM     31  C   UNL     1      -2.561  -2.487  24.405  0.00  0.00    +0.023 A 
BRANCH  29  11
ATOM     11  N   UNL     1      -0.785  -1.612  25.811  0.00  0.00    -0.336 N 
ATOM     32  C   UNL     1      -0.520  -0.849  27.016  0.00  0.00    +0.129 C 
ATOM     33  C   UNL     1       0.205  -2.564  25.346  0.00  0.00    +0.129 C 
ENDBRANCH  29  11
ENDBRANCH   3  26
ENDBRANCH  25   3
ENDBRANCH  15   6
TORSDOF 6
ENDMDL
