MODEL 1
REMARK VINA RESULT:       0.8      0.000      0.000
REMARK  Name = 45783496
REMARK  11 active torsions:
REMARK  status: ('A' for Active; 'I' for Inactive)
REMARK    1  A    between atoms: O_3  and  C_31
REMARK    2  A    between atoms: O_3  and  C_32
REMARK    3  A    between atoms: N_4  and  C_14
REMARK    4  A    between atoms: N_7  and  C_22
REMARK    5  A    between atoms: N_9  and  C_27
REMARK    6  A    between atoms: N_9  and  C_29
REMARK    7  A    between atoms: C_10  and  C_15
REMARK    8  A    between atoms: C_14  and  C_16
REMARK    9  A    between atoms: C_19  and  C_23
REMARK   10  A    between atoms: C_28  and  C_30
REMARK   11  A    between atoms: C_29  and  C_31
REMARK                            x       y       z     vdW  Elec       q    Type
REMARK                         _______ _______ _______ _____ _____    ______ ____
ROOT
ATOM      4  N   UNL     1      -4.684  -1.481  23.956  0.00  0.00    -0.287 NA
ATOM     10  C   UNL     1      -3.712  -1.858  25.001  0.00  0.00    +0.146 C 
ATOM     11  C   UNL     1      -3.466  -3.363  24.784  0.00  0.00    +0.030 C 
ATOM     12  C   UNL     1      -4.388  -3.754  23.638  0.00  0.00    +0.017 C 
ATOM     13  C   UNL     1      -5.462  -2.685  23.662  0.00  0.00    +0.085 C 
ENDROOT
BRANCH  10  15
ATOM      1  O   UNL     1      -2.260  -0.114  25.907  0.00  0.00    -0.336 OA
ATOM      5  N   UNL     1      -1.464  -1.096  24.058  0.00  0.00    -0.190 NA
ATOM      6  N   UNL     1      -1.032   0.504  25.636  0.00  0.00    -0.056 NA
ATOM     15  C   UNL     1      -2.438  -1.043  24.932  0.00  0.00    +0.245 A 
ATOM     19  C   UNL     1      -0.626  -0.129  24.532  0.00  0.00    +0.204 A 
BRANCH  19  23
ATOM      8  N   UNL     1       2.478   1.690  23.592  0.00  0.00    -0.240 NA
ATOM     23  C   UNL     1       0.614   0.178  23.877  0.00  0.00    +0.041 A 
ATOM     24  C   UNL     1       1.156  -0.680  22.927  0.00  0.00    +0.016 A 
ATOM     25  C   UNL     1       1.308   1.341  24.171  0.00  0.00    +0.124 A 
ATOM     26  C   UNL     1       2.358  -0.355  22.310  0.00  0.00    +0.044 A 
ATOM     27  C   UNL     1       2.974   0.831  22.673  0.00  0.00    +0.119 A 
BRANCH  27   9
ATOM      9  N   UNL     1       4.199   1.148  22.037  0.00  0.00    -0.327 N 
ATOM     34  H   UNL     1       4.158   1.836  21.293  0.00  0.00    +0.148 HD
BRANCH   9  29
ATOM     29  C   UNL     1       5.438   0.540  22.402  0.00  0.00    +0.131 C 
BRANCH  29  31
ATOM     31  C   UNL     1       5.598   0.554  23.912  0.00  0.00    +0.178 C 
BRANCH  31   3
ATOM      3  O   UNL     1       5.868  -0.764  24.373  0.00  0.00    -0.381 OA
ATOM     32  C   UNL     1       4.846  -1.671  23.985  0.00  0.00    +0.194 C 
ENDBRANCH  31   3
ENDBRANCH  29  31
ENDBRANCH   9  29
ENDBRANCH  27   9
ENDBRANCH  19  23
ENDBRANCH  10  15
BRANCH   4  14
ATOM     14  C   UNL     1      -5.533  -0.360  24.340  0.00  0.00    +0.120 C 
BRANCH  14  16
ATOM     16  C   UNL     1      -4.763   0.931  24.396  0.00  0.00    -0.033 A 
ATOM     17  C   UNL     1      -3.833   1.234  23.400  0.00  0.00    +0.007 A 
ATOM     18  C   UNL     1      -4.977   1.828  25.444  0.00  0.00    +0.007 A 
ATOM     20  C   UNL     1      -3.119   2.430  23.452  0.00  0.00    +0.023 A 
ATOM     21  C   UNL     1      -4.262   3.024  25.496  0.00  0.00    +0.023 A 
ATOM     22  C   UNL     1      -3.333   3.325  24.500  0.00  0.00    +0.033 A 
BRANCH  22   7
ATOM      2  O   UNL     1      -0.511   3.879  25.393  0.00  0.00    -0.276 OA
ATOM      7  N   UNL     1      -2.618   4.522  24.552  0.00  0.00    -0.286 N 
ATOM     28  C   UNL     1      -1.298   4.724  24.980  0.00  0.00    +0.214 C 
ATOM     30  C   UNL     1      -0.895   6.174  24.882  0.00  0.00    +0.109 C 
ATOM     33  H   UNL     1      -3.126   5.346  24.238  0.00  0.00    +0.155 HD
ENDBRANCH  22   7
ENDBRANCH  14  16
ENDBRANCH   4  14
TORSDOF 9
ENDMDL
MODEL 2
REMARK VINA RESULT:       1.0      1.766      4.341
REMARK  Name = 45783496
REMARK  11 active torsions:
REMARK  status: ('A' for Active; 'I' for Inactive)
REMARK    1  A    between atoms: O_3  and  C_31
REMARK    2  A    between atoms: O_3  and  C_32
REMARK    3  A    between atoms: N_4  and  C_14
REMARK    4  A    between atoms: N_7  and  C_22
REMARK    5  A    between atoms: N_9  and  C_27
REMARK    6  A    between atoms: N_9  and  C_29
REMARK    7  A    between atoms: C_10  and  C_15
REMARK    8  A    between atoms: C_14  and  C_16
REMARK    9  A    between atoms: C_19  and  C_23
REMARK   10  A    between atoms: C_28  and  C_30
REMARK   11  A    between atoms: C_29  and  C_31
REMARK                            x       y       z     vdW  Elec       q    Type
REMARK                         _______ _______ _______ _____ _____    ______ ____
ROOT
ATOM      4  N   UNL     1      -5.515   2.687  25.393  0.00  0.00    -0.287 NA
ATOM     10  C   UNL     1      -4.610   3.334  24.421  0.00  0.00    +0.146 C 
ATOM     11  C   UNL     1      -4.793   4.844  24.660  0.00  0.00    +0.030 C 
ATOM     12  C   UNL     1      -5.862   4.948  25.739  0.00  0.00    +0.017 C 
ATOM     13  C   UNL     1      -6.605   3.631  25.634  0.00  0.00    +0.085 C 
ENDROOT
BRANCH  10  15
ATOM      1  O   UNL     1      -2.581   3.153  25.772  0.00  0.00    -0.336 OA
ATOM      5  N   UNL     1      -2.395   2.275  23.720  0.00  0.00    -0.190 NA
ATOM      6  N   UNL     1      -1.275   2.656  25.679  0.00  0.00    -0.056 NA
ATOM     15  C   UNL     1      -3.172   2.888  24.578  0.00  0.00    +0.245 A 
ATOM     19  C   UNL     1      -1.242   2.155  24.441  0.00  0.00    +0.204 A 
BRANCH  19  23
ATOM      8  N   UNL     1       2.310   1.583  23.502  0.00  0.00    -0.240 NA
ATOM     23  C   UNL     1      -0.075   1.525  23.894  0.00  0.00    +0.041 A 
ATOM     24  C   UNL     1      -0.159   0.298  23.246  0.00  0.00    +0.016 A 
ATOM     25  C   UNL     1       1.173   2.121  23.995  0.00  0.00    +0.124 A 
ATOM     26  C   UNL     1       0.990  -0.287  22.726  0.00  0.00    +0.044 A 
ATOM     27  C   UNL     1       2.189   0.389  22.878  0.00  0.00    +0.119 A 
BRANCH  27   9
ATOM      9  N   UNL     1       3.351  -0.220  22.344  0.00  0.00    -0.327 N 
ATOM     34  H   UNL     1       3.227  -1.127  21.910  0.00  0.00    +0.148 HD
BRANCH   9  29
ATOM     29  C   UNL     1       4.640   0.391  22.406  0.00  0.00    +0.131 C 
BRANCH  29  31
ATOM     31  C   UNL     1       5.061   0.569  23.855  0.00  0.00    +0.178 C 
BRANCH  31   3
ATOM      3  O   UNL     1       5.659  -0.632  24.325  0.00  0.00    -0.381 OA
ATOM     32  C   UNL     1       4.888  -1.772  23.971  0.00  0.00    +0.194 C 
ENDBRANCH  31   3
ENDBRANCH  29  31
ENDBRANCH   9  29
ENDBRANCH  27   9
ENDBRANCH  19  23
ENDBRANCH  10  15
BRANCH   4  14
ATOM     14  C   UNL     1      -6.003   1.388  24.946  0.00  0.00    +0.120 C 
BRANCH  14  16
ATOM     16  C   UNL     1      -4.912   0.352  24.939  0.00  0.00    -0.033 A 
ATOM     17  C   UNL     1      -4.598  -0.323  23.758  0.00  0.00    +0.007 A 
ATOM     18  C   UNL     1      -4.213   0.065  26.111  0.00  0.00    +0.007 A 
ATOM     20  C   UNL     1      -3.588  -1.284  23.751  0.00  0.00    +0.023 A 
ATOM     21  C   UNL     1      -3.202  -0.896  26.104  0.00  0.00    +0.023 A 
ATOM     22  C   UNL     1      -2.890  -1.571  24.924  0.00  0.00    +0.033 A 
BRANCH  22   7
ATOM      2  O   UNL     1      -0.061  -1.440  25.948  0.00  0.00    -0.276 OA
ATOM      7  N   UNL     1      -1.879  -2.532  24.917  0.00  0.00    -0.286 N 
ATOM     28  C   UNL     1      -0.571  -2.416  25.410  0.00  0.00    +0.214 C 
ATOM     30  C   UNL     1       0.215  -3.688  25.211  0.00  0.00    +0.109 C 
ATOM     33  H   UNL     1      -2.131  -3.426  24.501  0.00  0.00    +0.155 HD
ENDBRANCH  22   7
ENDBRANCH  14  16
ENDBRANCH   4  14
TORSDOF 9
ENDMDL
