MODEL 1
REMARK VINA RESULT:      -5.0      0.000      0.000
REMARK  Name = 75536875
REMARK  4 active torsions:
REMARK  status: ('A' for Active; 'I' for Inactive)
REMARK    1  A    between atoms: O_6  and  C_15
REMARK    2  A    between atoms: O_6  and  C_18
REMARK    3  A    between atoms: C_8  and  C_12
REMARK    4  A    between atoms: C_23  and  C_24
REMARK                            x       y       z     vdW  Elec       q    Type
REMARK                         _______ _______ _______ _____ _____    ______ ____
ROOT
ATOM      4  O   UNL     1      -0.223   4.891  24.297  0.00  0.00    -0.375 OA
ATOM      5  O   UNL     1      -4.954   4.663  25.557  0.00  0.00    -0.275 OA
ATOM      7  N   UNL     1      -2.807   3.781  25.717  0.00  0.00    -0.295 N 
ATOM     12  C   UNL     1      -4.210   3.673  25.625  0.00  0.00    +0.219 C 
ATOM     13  C   UNL     1      -1.945   2.600  25.813  0.00  0.00    +0.154 C 
ATOM     14  C   UNL     1      -2.190   5.109  25.732  0.00  0.00    +0.136 C 
ATOM     15  C   UNL     1      -0.451   2.803  25.544  0.00  0.00    +0.216 C 
ATOM     16  C   UNL     1      -1.537   5.431  24.395  0.00  0.00    +0.179 C 
ATOM     17  C   UNL     1      -0.169   3.472  24.201  0.00  0.00    +0.206 C 
ENDROOT
BRANCH  12   8
ATOM      8  C   UNL     1      -4.797   2.258  25.626  0.00  0.00    +0.075 C 
ATOM      9  C   UNL     1      -4.586   1.395  24.355  0.00  0.00    +0.013 C 
ATOM     10  C   UNL     1      -6.319   2.104  25.367  0.00  0.00    +0.013 C 
ATOM     11  C   UNL     1      -5.991   0.811  24.597  0.00  0.00    +0.001 C 
ENDBRANCH  12   8
BRANCH  15   6
ATOM      6  O   UNL     1       0.168   1.516  25.527  0.00  0.00    -0.485 OA
BRANCH   6  18
ATOM     18  C   UNL     1      -0.644   0.452  25.249  0.00  0.00    +0.121 A 
ATOM     19  C   UNL     1      -0.520  -0.221  24.032  0.00  0.00    +0.046 A 
ATOM     20  C   UNL     1      -1.597   0.038  26.180  0.00  0.00    +0.046 A 
ATOM     21  C   UNL     1      -1.348  -1.306  23.747  0.00  0.00    +0.016 A 
ATOM     22  C   UNL     1      -2.425  -1.047  25.895  0.00  0.00    +0.016 A 
ATOM     23  C   UNL     1      -2.301  -1.718  24.678  0.00  0.00    +0.055 A 
BRANCH  23  24
ATOM      1  F   UNL     1      -2.596  -3.827  23.586  0.00  0.00    -0.166 F 
ATOM      2  F   UNL     1      -4.333  -2.534  23.714  0.00  0.00    -0.166 F 
ATOM      3  F   UNL     1      -3.595  -3.538  25.496  0.00  0.00    -0.166 F 
ATOM     24  C   UNL     1      -3.187  -2.879  24.373  0.00  0.00    +0.417 C 
ENDBRANCH  23  24
ENDBRANCH   6  18
ENDBRANCH  15   6
TORSDOF 4
ENDMDL
MODEL 2
REMARK VINA RESULT:      -4.3      3.129      5.349
REMARK  Name = 75536875
REMARK  4 active torsions:
REMARK  status: ('A' for Active; 'I' for Inactive)
REMARK    1  A    between atoms: O_6  and  C_15
REMARK    2  A    between atoms: O_6  and  C_18
REMARK    3  A    between atoms: C_8  and  C_12
REMARK    4  A    between atoms: C_23  and  C_24
REMARK                            x       y       z     vdW  Elec       q    Type
REMARK                         _______ _______ _______ _____ _____    ______ ____
ROOT
ATOM      4  O   UNL     1       2.322   1.128  23.176  0.00  0.00    -0.375 OA
ATOM      5  O   UNL     1      -0.634  -2.687  24.027  0.00  0.00    -0.275 OA
ATOM      7  N   UNL     1      -0.386  -0.400  23.677  0.00  0.00    -0.295 N 
ATOM     12  C   UNL     1      -0.973  -1.524  24.294  0.00  0.00    +0.219 C 
ATOM     13  C   UNL     1      -0.811   0.966  23.995  0.00  0.00    +0.154 C 
ATOM     14  C   UNL     1       0.665  -0.599  22.677  0.00  0.00    +0.136 C 
ATOM     15  C   UNL     1       0.115   2.104  23.555  0.00  0.00    +0.216 C 
ATOM     16  C   UNL     1       2.037  -0.265  23.246  0.00  0.00    +0.179 C 
ATOM     17  C   UNL     1       1.547   1.938  24.054  0.00  0.00    +0.206 C 
ENDROOT
BRANCH  12   8
ATOM      8  C   UNL     1      -2.076  -1.253  25.322  0.00  0.00    +0.075 C 
ATOM      9  C   UNL     1      -3.280  -2.230  25.354  0.00  0.00    +0.013 C 
ATOM     10  C   UNL     1      -3.106  -0.137  25.004  0.00  0.00    +0.013 C 
ATOM     11  C   UNL     1      -4.172  -1.017  25.685  0.00  0.00    +0.001 C 
ENDBRANCH  12   8
BRANCH  15   6
ATOM      6  O   UNL     1      -0.399   3.320  24.102  0.00  0.00    -0.485 OA
BRANCH   6  18
ATOM     18  C   UNL     1      -1.712   3.311  24.481  0.00  0.00    +0.121 A 
ATOM     19  C   UNL     1      -2.059   3.603  25.801  0.00  0.00    +0.046 A 
ATOM     20  C   UNL     1      -2.706   3.011  23.549  0.00  0.00    +0.046 A 
ATOM     21  C   UNL     1      -3.399   3.594  26.189  0.00  0.00    +0.016 A 
ATOM     22  C   UNL     1      -4.046   3.002  23.937  0.00  0.00    +0.016 A 
ATOM     23  C   UNL     1      -4.392   3.293  25.257  0.00  0.00    +0.055 A 
BRANCH  23  24
ATOM      1  F   UNL     1      -6.621   2.516  24.869  0.00  0.00    -0.166 F 
ATOM      2  F   UNL     1      -6.404   4.520  25.668  0.00  0.00    -0.166 F 
ATOM      3  F   UNL     1      -6.003   2.799  26.934  0.00  0.00    -0.166 F 
ATOM     24  C   UNL     1      -5.824   3.283  25.671  0.00  0.00    +0.417 C 
ENDBRANCH  23  24
ENDBRANCH   6  18
ENDBRANCH  15   6
TORSDOF 4
ENDMDL
MODEL 3
REMARK VINA RESULT:      -3.5      2.770      4.181
REMARK  Name = 75536875
REMARK  4 active torsions:
REMARK  status: ('A' for Active; 'I' for Inactive)
REMARK    1  A    between atoms: O_6  and  C_15
REMARK    2  A    between atoms: O_6  and  C_18
REMARK    3  A    between atoms: C_8  and  C_12
REMARK    4  A    between atoms: C_23  and  C_24
REMARK                            x       y       z     vdW  Elec       q    Type
REMARK                         _______ _______ _______ _____ _____    ______ ____
ROOT
ATOM      4  O   UNL     1      -4.106   4.590  24.969  0.00  0.00    -0.375 OA
ATOM      5  O   UNL     1      -6.038   0.133  24.314  0.00  0.00    -0.275 OA
ATOM      7  N   UNL     1      -4.385   1.466  25.266  0.00  0.00    -0.295 N 
ATOM     12  C   UNL     1      -4.852   0.291  24.641  0.00  0.00    +0.219 C 
ATOM     13  C   UNL     1      -2.984   1.628  25.659  0.00  0.00    +0.154 C 
ATOM     14  C   UNL     1      -5.328   2.552  25.546  0.00  0.00    +0.136 C 
ATOM     15  C   UNL     1      -2.510   3.047  25.988  0.00  0.00    +0.216 C 
ATOM     16  C   UNL     1      -5.147   3.705  24.568  0.00  0.00    +0.179 C 
ATOM     17  C   UNL     1      -2.794   4.047  24.871  0.00  0.00    +0.206 C 
ENDROOT
BRANCH  12   8
ATOM      8  C   UNL     1      -3.823  -0.813  24.386  0.00  0.00    +0.075 C 
ATOM      9  C   UNL     1      -4.335  -2.142  23.772  0.00  0.00    +0.013 C 
ATOM     10  C   UNL     1      -3.351  -1.661  25.597  0.00  0.00    +0.013 C 
ATOM     11  C   UNL     1      -3.297  -2.872  24.646  0.00  0.00    +0.001 C 
ENDBRANCH  12   8
BRANCH  15   6
ATOM      6  O   UNL     1      -1.096   3.001  26.182  0.00  0.00    -0.485 OA
BRANCH   6  18
ATOM     18  C   UNL     1      -0.381   2.252  25.289  0.00  0.00    +0.121 A 
ATOM     19  C   UNL     1       0.540   2.869  24.442  0.00  0.00    +0.046 A 
ATOM     20  C   UNL     1      -0.573   0.872  25.224  0.00  0.00    +0.046 A 
ATOM     21  C   UNL     1       1.270   2.106  23.530  0.00  0.00    +0.016 A 
ATOM     22  C   UNL     1       0.156   0.109  24.312  0.00  0.00    +0.016 A 
ATOM     23  C   UNL     1       1.077   0.726  23.465  0.00  0.00    +0.055 A 
BRANCH  23  24
ATOM      1  F   UNL     1       2.894   0.588  21.915  0.00  0.00    -0.166 F 
ATOM      2  F   UNL     1       1.110  -0.551  21.442  0.00  0.00    -0.166 F 
ATOM      3  F   UNL     1       2.413  -1.198  23.058  0.00  0.00    -0.166 F 
ATOM     24  C   UNL     1       1.856  -0.090  22.490  0.00  0.00    +0.417 C 
ENDBRANCH  23  24
ENDBRANCH   6  18
ENDBRANCH  15   6
TORSDOF 4
ENDMDL
MODEL 4
REMARK VINA RESULT:      -3.4      2.980      4.651
REMARK  Name = 75536875
REMARK  4 active torsions:
REMARK  status: ('A' for Active; 'I' for Inactive)
REMARK    1  A    between atoms: O_6  and  C_15
REMARK    2  A    between atoms: O_6  and  C_18
REMARK    3  A    between atoms: C_8  and  C_12
REMARK    4  A    between atoms: C_23  and  C_24
REMARK                            x       y       z     vdW  Elec       q    Type
REMARK                         _______ _______ _______ _____ _____    ______ ____
ROOT
ATOM      4  O   UNL     1      -6.184   1.579  25.679  0.00  0.00    -0.375 OA
ATOM      5  O   UNL     1      -3.100   5.356  26.172  0.00  0.00    -0.275 OA
ATOM      7  N   UNL     1      -3.562   3.270  25.249  0.00  0.00    -0.295 N 
ATOM     12  C   UNL     1      -2.707   4.231  25.830  0.00  0.00    +0.219 C 
ATOM     13  C   UNL     1      -3.075   1.952  24.836  0.00  0.00    +0.154 C 
ATOM     14  C   UNL     1      -4.972   3.602  25.036  0.00  0.00    +0.136 C 
ATOM     15  C   UNL     1      -4.129   0.874  24.562  0.00  0.00    +0.216 C 
ATOM     16  C   UNL     1      -5.862   2.912  26.060  0.00  0.00    +0.179 C 
ATOM     17  C   UNL     1      -5.091   0.667  25.728  0.00  0.00    +0.206 C 
ENDROOT
BRANCH  12   8
ATOM      8  C   UNL     1      -1.240   3.830  26.016  0.00  0.00    +0.075 C 
ATOM      9  C   UNL     1      -0.357   3.732  24.745  0.00  0.00    +0.013 C 
ATOM     10  C   UNL     1      -0.921   2.329  26.243  0.00  0.00    +0.013 C 
ATOM     11  C   UNL     1       0.359   2.542  25.412  0.00  0.00    +0.001 C 
ENDBRANCH  12   8
BRANCH  15   6
ATOM      6  O   UNL     1      -3.443  -0.359  24.339  0.00  0.00    -0.485 OA
BRANCH   6  18
ATOM     18  C   UNL     1      -2.131  -0.269  23.965  0.00  0.00    +0.121 A 
ATOM     19  C   UNL     1      -1.745   0.651  22.990  0.00  0.00    +0.046 A 
ATOM     20  C   UNL     1      -1.178  -1.098  24.557  0.00  0.00    +0.046 A 
ATOM     21  C   UNL     1      -0.406   0.743  22.608  0.00  0.00    +0.016 A 
ATOM     22  C   UNL     1       0.160  -1.007  24.175  0.00  0.00    +0.016 A 
ATOM     23  C   UNL     1       0.545  -0.087  23.200  0.00  0.00    +0.055 A 
BRANCH  23  24
ATOM      1  F   UNL     1       2.768  -0.963  23.332  0.00  0.00    -0.166 F 
ATOM      2  F   UNL     1       2.569   1.189  23.148  0.00  0.00    -0.166 F 
ATOM      3  F   UNL     1       2.145  -0.089  21.441  0.00  0.00    -0.166 F 
ATOM     24  C   UNL     1       1.976   0.010  22.791  0.00  0.00    +0.417 C 
ENDBRANCH  23  24
ENDBRANCH   6  18
ENDBRANCH  15   6
TORSDOF 4
ENDMDL
MODEL 5
REMARK VINA RESULT:      -3.1      1.797      4.114
REMARK  Name = 75536875
REMARK  4 active torsions:
REMARK  status: ('A' for Active; 'I' for Inactive)
REMARK    1  A    between atoms: O_6  and  C_15
REMARK    2  A    between atoms: O_6  and  C_18
REMARK    3  A    between atoms: C_8  and  C_12
REMARK    4  A    between atoms: C_23  and  C_24
REMARK                            x       y       z     vdW  Elec       q    Type
REMARK                         _______ _______ _______ _____ _____    ______ ____
ROOT
ATOM      4  O   UNL     1      -6.492   3.965  25.818  0.00  0.00    -0.375 OA
ATOM      5  O   UNL     1      -1.801   5.128  25.008  0.00  0.00    -0.275 OA
ATOM      7  N   UNL     1      -3.550   3.614  24.751  0.00  0.00    -0.295 N 
ATOM     12  C   UNL     1      -2.199   3.954  24.976  0.00  0.00    +0.219 C 
ATOM     13  C   UNL     1      -3.998   2.221  24.702  0.00  0.00    +0.154 C 
ATOM     14  C   UNL     1      -4.532   4.681  24.546  0.00  0.00    +0.136 C 
ATOM     15  C   UNL     1      -5.504   1.969  24.816  0.00  0.00    +0.216 C 
ATOM     16  C   UNL     1      -5.400   4.878  25.781  0.00  0.00    +0.179 C 
ATOM     17  C   UNL     1      -6.127   2.609  26.054  0.00  0.00    +0.206 C 
ENDROOT
BRANCH  12   8
ATOM      8  C   UNL     1      -1.217   2.795  25.172  0.00  0.00    +0.075 C 
ATOM      9  C   UNL     1       0.290   3.144  25.279  0.00  0.00    +0.013 C 
ATOM     10  C   UNL     1      -0.839   1.946  23.929  0.00  0.00    +0.013 C 
ATOM     11  C   UNL     1       0.581   1.836  24.517  0.00  0.00    +0.001 C 
ENDBRANCH  12   8
BRANCH  15   6
ATOM      6  O   UNL     1      -5.704   0.557  24.910  0.00  0.00    -0.485 OA
BRANCH   6  18
ATOM     18  C   UNL     1      -4.585  -0.224  24.831  0.00  0.00    +0.121 A 
ATOM     19  C   UNL     1      -3.553  -0.061  25.756  0.00  0.00    +0.046 A 
ATOM     20  C   UNL     1      -4.474  -1.185  23.825  0.00  0.00    +0.046 A 
ATOM     21  C   UNL     1      -2.411  -0.857  25.675  0.00  0.00    +0.016 A 
ATOM     22  C   UNL     1      -3.332  -1.981  23.744  0.00  0.00    +0.016 A 
ATOM     23  C   UNL     1      -2.301  -1.817  24.669  0.00  0.00    +0.055 A 
BRANCH  23  24
ATOM      1  F   UNL     1      -0.944  -3.539  25.626  0.00  0.00    -0.166 F 
ATOM      2  F   UNL     1       0.086  -1.955  24.562  0.00  0.00    -0.166 F 
ATOM      3  F   UNL     1      -1.055  -3.440  23.457  0.00  0.00    -0.166 F 
ATOM     24  C   UNL     1      -1.079  -2.668  24.582  0.00  0.00    +0.417 C 
ENDBRANCH  23  24
ENDBRANCH   6  18
ENDBRANCH  15   6
TORSDOF 4
ENDMDL
MODEL 6
REMARK VINA RESULT:      -3.0      3.983      6.721
REMARK  Name = 75536875
REMARK  4 active torsions:
REMARK  status: ('A' for Active; 'I' for Inactive)
REMARK    1  A    between atoms: O_6  and  C_15
REMARK    2  A    between atoms: O_6  and  C_18
REMARK    3  A    between atoms: C_8  and  C_12
REMARK    4  A    between atoms: C_23  and  C_24
REMARK                            x       y       z     vdW  Elec       q    Type
REMARK                         _______ _______ _______ _____ _____    ______ ____
ROOT
ATOM      4  O   UNL     1      -4.551  -2.773  24.042  0.00  0.00    -0.375 OA
ATOM      5  O   UNL     1       0.105  -2.192  25.459  0.00  0.00    -0.275 OA
ATOM      7  N   UNL     1      -2.031  -1.299  25.225  0.00  0.00    -0.295 N 
ATOM     12  C   UNL     1      -0.623  -1.224  25.190  0.00  0.00    +0.219 C 
ATOM     13  C   UNL     1      -2.874  -0.141  24.920  0.00  0.00    +0.154 C 
ATOM     14  C   UNL     1      -2.673  -2.563  25.593  0.00  0.00    +0.136 C 
ATOM     15  C   UNL     1      -4.354  -0.411  24.634  0.00  0.00    +0.216 C 
ATOM     16  C   UNL     1      -3.256  -3.262  24.372  0.00  0.00    +0.179 C 
ATOM     17  C   UNL     1      -4.573  -1.444  23.532  0.00  0.00    +0.206 C 
ENDROOT
BRANCH  12   8
ATOM      8  C   UNL     1      -0.010   0.127  24.810  0.00  0.00    +0.075 C 
ATOM      9  C   UNL     1      -0.531   1.383  25.555  0.00  0.00    +0.013 C 
ATOM     10  C   UNL     1      -0.503   0.807  23.506  0.00  0.00    +0.013 C 
ATOM     11  C   UNL     1      -0.361   2.157  24.233  0.00  0.00    +0.001 C 
ENDBRANCH  12   8
BRANCH  15   6
ATOM      6  O   UNL     1      -4.947   0.816  24.204  0.00  0.00    -0.485 OA
BRANCH   6  18
ATOM     18  C   UNL     1      -4.209   1.950  24.396  0.00  0.00    +0.121 A 
ATOM     19  C   UNL     1      -4.079   2.490  25.677  0.00  0.00    +0.046 A 
ATOM     20  C   UNL     1      -3.586   2.570  23.313  0.00  0.00    +0.046 A 
ATOM     21  C   UNL     1      -3.327   3.648  25.873  0.00  0.00    +0.016 A 
ATOM     22  C   UNL     1      -2.834   3.728  23.509  0.00  0.00    +0.016 A 
ATOM     23  C   UNL     1      -2.705   4.267  24.789  0.00  0.00    +0.055 A 
BRANCH  23  24
ATOM      1  F   UNL     1      -2.029   6.418  23.991  0.00  0.00    -0.166 F 
ATOM      2  F   UNL     1      -0.558   5.276  25.102  0.00  0.00    -0.166 F 
ATOM      3  F   UNL     1      -2.247   6.169  26.140  0.00  0.00    -0.166 F 
ATOM     24  C   UNL     1      -1.901   5.505  24.999  0.00  0.00    +0.417 C 
ENDBRANCH  23  24
ENDBRANCH   6  18
ENDBRANCH  15   6
TORSDOF 4
ENDMDL
MODEL 7
REMARK VINA RESULT:      -3.0      3.918      5.747
REMARK  Name = 75536875
REMARK  4 active torsions:
REMARK  status: ('A' for Active; 'I' for Inactive)
REMARK    1  A    between atoms: O_6  and  C_15
REMARK    2  A    between atoms: O_6  and  C_18
REMARK    3  A    between atoms: C_8  and  C_12
REMARK    4  A    between atoms: C_23  and  C_24
REMARK                            x       y       z     vdW  Elec       q    Type
REMARK                         _______ _______ _______ _____ _____    ______ ____
ROOT
ATOM      4  O   UNL     1      -1.703  -3.053  25.292  0.00  0.00    -0.375 OA
ATOM      5  O   UNL     1      -5.927  -0.766  24.317  0.00  0.00    -0.275 OA
ATOM      7  N   UNL     1      -3.611  -0.851  24.097  0.00  0.00    -0.295 N 
ATOM     12  C   UNL     1      -4.837  -0.175  24.274  0.00  0.00    +0.219 C 
ATOM     13  C   UNL     1      -2.336  -0.133  24.033  0.00  0.00    +0.154 C 
ATOM     14  C   UNL     1      -3.611  -2.309  23.958  0.00  0.00    +0.136 C 
ATOM     15  C   UNL     1      -1.060  -0.963  24.203  0.00  0.00    +0.216 C 
ATOM     16  C   UNL     1      -3.123  -2.985  25.231  0.00  0.00    +0.179 C 
ATOM     17  C   UNL     1      -1.055  -1.799  25.480  0.00  0.00    +0.206 C 
ENDROOT
BRANCH  12   8
ATOM      8  C   UNL     1      -4.775   1.350  24.402  0.00  0.00    +0.075 C 
ATOM      9  C   UNL     1      -3.890   1.938  25.531  0.00  0.00    +0.013 C 
ATOM     10  C   UNL     1      -5.968   2.070  25.084  0.00  0.00    +0.013 C 
ATOM     11  C   UNL     1      -4.945   3.051  25.689  0.00  0.00    +0.001 C 
ENDBRANCH  12   8
BRANCH  15   6
ATOM      6  O   UNL     1       0.043  -0.058  24.272  0.00  0.00    -0.485 OA
BRANCH   6  18
ATOM     18  C   UNL     1      -0.262   1.265  24.435  0.00  0.00    +0.121 A 
ATOM     19  C   UNL     1      -0.686   2.023  23.342  0.00  0.00    +0.046 A 
ATOM     20  C   UNL     1      -0.149   1.858  25.692  0.00  0.00    +0.046 A 
ATOM     21  C   UNL     1      -0.996   3.373  23.507  0.00  0.00    +0.016 A 
ATOM     22  C   UNL     1      -0.460   3.208  25.858  0.00  0.00    +0.016 A 
ATOM     23  C   UNL     1      -0.883   3.964  24.765  0.00  0.00    +0.055 A 
BRANCH  23  24
ATOM      1  F   UNL     1      -1.971   5.664  26.050  0.00  0.00    -0.166 F 
ATOM      2  F   UNL     1      -1.921   5.939  23.900  0.00  0.00    -0.166 F 
ATOM      3  F   UNL     1      -0.104   6.191  25.067  0.00  0.00    -0.166 F 
ATOM     24  C   UNL     1      -1.214   5.407  24.942  0.00  0.00    +0.417 C 
ENDBRANCH  23  24
ENDBRANCH   6  18
ENDBRANCH  15   6
TORSDOF 4
ENDMDL
MODEL 8
REMARK VINA RESULT:      -2.8      1.441      3.784
REMARK  Name = 75536875
REMARK  4 active torsions:
REMARK  status: ('A' for Active; 'I' for Inactive)
REMARK    1  A    between atoms: O_6  and  C_15
REMARK    2  A    between atoms: O_6  and  C_18
REMARK    3  A    between atoms: C_8  and  C_12
REMARK    4  A    between atoms: C_23  and  C_24
REMARK                            x       y       z     vdW  Elec       q    Type
REMARK                         _______ _______ _______ _____ _____    ______ ____
ROOT
ATOM      4  O   UNL     1      -3.469   4.816  26.387  0.00  0.00    -0.375 OA
ATOM      5  O   UNL     1       0.523   3.541  23.845  0.00  0.00    -0.275 OA
ATOM      7  N   UNL     1      -1.770   3.340  24.183  0.00  0.00    -0.295 N 
ATOM     12  C   UNL     1      -0.493   2.830  23.867  0.00  0.00    +0.219 C 
ATOM     13  C   UNL     1      -2.962   2.488  24.188  0.00  0.00    +0.154 C 
ATOM     14  C   UNL     1      -1.917   4.762  24.499  0.00  0.00    +0.136 C 
ATOM     15  C   UNL     1      -4.210   3.039  24.884  0.00  0.00    +0.216 C 
ATOM     16  C   UNL     1      -2.110   4.979  25.993  0.00  0.00    +0.179 C 
ATOM     17  C   UNL     1      -3.950   3.478  26.322  0.00  0.00    +0.206 C 
ENDROOT
BRANCH  12   8
ATOM      8  C   UNL     1      -0.406   1.339  23.534  0.00  0.00    +0.075 C 
ATOM      9  C   UNL     1      -0.668   0.331  24.683  0.00  0.00    +0.013 C 
ATOM     10  C   UNL     1       1.005   0.702  23.420  0.00  0.00    +0.013 C 
ATOM     11  C   UNL     1       0.410  -0.571  24.052  0.00  0.00    +0.001 C 
ENDBRANCH  12   8
BRANCH  15   6
ATOM      6  O   UNL     1      -5.188   1.998  24.916  0.00  0.00    -0.485 OA
BRANCH   6  18
ATOM     18  C   UNL     1      -4.715   0.716  24.869  0.00  0.00    +0.121 A 
ATOM     19  C   UNL     1      -4.739   0.007  23.668  0.00  0.00    +0.046 A 
ATOM     20  C   UNL     1      -4.210   0.115  26.023  0.00  0.00    +0.046 A 
ATOM     21  C   UNL     1      -4.258  -1.301  23.619  0.00  0.00    +0.016 A 
ATOM     22  C   UNL     1      -3.729  -1.193  25.975  0.00  0.00    +0.016 A 
ATOM     23  C   UNL     1      -3.754  -1.901  24.773  0.00  0.00    +0.055 A 
BRANCH  23  24
ATOM      1  F   UNL     1      -1.978  -3.401  24.207  0.00  0.00    -0.166 F 
ATOM      2  F   UNL     1      -4.003  -4.136  23.956  0.00  0.00    -0.166 F 
ATOM      3  F   UNL     1      -3.180  -3.884  25.953  0.00  0.00    -0.166 F 
ATOM     24  C   UNL     1      -3.240  -3.300  24.722  0.00  0.00    +0.417 C 
ENDBRANCH  23  24
ENDBRANCH   6  18
ENDBRANCH  15   6
TORSDOF 4
ENDMDL
