MODEL 1
REMARK VINA RESULT:       2.2      0.000      0.000
REMARK  Name = 75536889
REMARK  7 active torsions:
REMARK  status: ('A' for Active; 'I' for Inactive)
REMARK    1  A    between atoms: S_1  and  C_25
REMARK    2  A    between atoms: S_1  and  C_30
REMARK    3  A    between atoms: O_6  and  C_12
REMARK    4  A    between atoms: O_6  and  C_19
REMARK    5  A    between atoms: C_17  and  C_18
REMARK    6  A    between atoms: C_20  and  C_28
REMARK    7  A    between atoms: C_22  and  C_29
REMARK                            x       y       z     vdW  Elec       q    Type
REMARK                         _______ _______ _______ _____ _____    ______ ____
ROOT
ATOM      5  O   UNL     1      -2.394   4.286  24.280  0.00  0.00    -0.375 OA
ATOM      8  O   UNL     1      -4.763   0.513  26.580  0.00  0.00    -0.270 OA
ATOM     11  N   UNL     1      -3.856   1.660  24.747  0.00  0.00    -0.292 N 
ATOM     12  C   UNL     1      -1.688   1.977  23.606  0.00  0.00    +0.216 C 
ATOM     13  C   UNL     1      -3.168   1.634  23.446  0.00  0.00    +0.155 C 
ATOM     14  C   UNL     1      -4.137   2.983  25.310  0.00  0.00    +0.136 C 
ATOM     15  C   UNL     1      -1.402   3.481  23.656  0.00  0.00    +0.206 C 
ATOM     16  C   UNL     1      -2.870   3.803  25.532  0.00  0.00    +0.179 C 
ATOM     17  C   UNL     1      -4.216   0.519  25.478  0.00  0.00    +0.250 C 
ENDROOT
BRANCH  17  18
ATOM      7  O   UNL     1      -2.798  -2.673  24.380  0.00  0.00    -0.455 OA
ATOM     18  C   UNL     1      -3.922  -0.797  24.898  0.00  0.00    +0.087 A 
ATOM     20  C   UNL     1      -2.742  -1.487  25.042  0.00  0.00    +0.220 A 
ATOM     21  C   UNL     1      -4.759  -1.610  24.095  0.00  0.00    +0.058 A 
ATOM     22  C   UNL     1      -4.028  -2.739  23.806  0.00  0.00    +0.103 A 
ATOM     29  C   UNL     1      -4.318  -3.953  23.029  0.00  0.00    +0.086 C 
BRANCH  20  28
ATOM      2  F   UNL     1      -1.627  -1.111  27.107  0.00  0.00    -0.163 F 
ATOM      3  F   UNL     1      -0.503  -2.150  25.563  0.00  0.00    -0.163 F 
ATOM      4  F   UNL     1      -0.881  -0.022  25.378  0.00  0.00    -0.163 F 
ATOM     28  C   UNL     1      -1.482  -1.202  25.745  0.00  0.00    +0.451 C 
ENDBRANCH  20  28
ENDBRANCH  17  18
BRANCH  12   6
ATOM      6  O   UNL     1      -0.962   1.404  22.521  0.00  0.00    -0.485 OA
BRANCH   6  19
ATOM     19  C   UNL     1       0.342   1.073  22.764  0.00  0.00    +0.121 A 
ATOM     23  C   UNL     1       1.133   1.899  23.564  0.00  0.00    +0.047 A 
ATOM     24  C   UNL     1       0.882  -0.088  22.213  0.00  0.00    +0.047 A 
ATOM     25  C   UNL     1       3.003   0.400  23.261  0.00  0.00    +0.088 A 
ATOM     26  C   UNL     1       2.464   1.562  23.812  0.00  0.00    +0.030 A 
ATOM     27  C   UNL     1       2.212  -0.425  22.461  0.00  0.00    +0.030 A 
BRANCH  25   1
ATOM      1  S   UNL     1       4.670  -0.020  23.569  0.00  0.00    -0.006 S 
ATOM      9  O   UNL     1       5.432   0.142  22.337  0.00  0.00    -0.170 OA
ATOM     10  O   UNL     1       5.091   0.674  24.776  0.00  0.00    -0.170 OA
ATOM     30  C   UNL     1       4.629  -1.762  23.925  0.00  0.00    +0.200 C 
ENDBRANCH  25   1
ENDBRANCH   6  19
ENDBRANCH  12   6
TORSDOF 5
ENDMDL
MODEL 2
REMARK VINA RESULT:       2.8      2.663      4.762
REMARK  Name = 75536889
REMARK  7 active torsions:
REMARK  status: ('A' for Active; 'I' for Inactive)
REMARK    1  A    between atoms: S_1  and  C_25
REMARK    2  A    between atoms: S_1  and  C_30
REMARK    3  A    between atoms: O_6  and  C_12
REMARK    4  A    between atoms: O_6  and  C_19
REMARK    5  A    between atoms: C_17  and  C_18
REMARK    6  A    between atoms: C_20  and  C_28
REMARK    7  A    between atoms: C_22  and  C_29
REMARK                            x       y       z     vdW  Elec       q    Type
REMARK                         _______ _______ _______ _____ _____    ______ ____
ROOT
ATOM      5  O   UNL     1      -4.043  -3.210  24.199  0.00  0.00    -0.375 OA
ATOM      8  O   UNL     1      -4.753   1.752  24.148  0.00  0.00    -0.270 OA
ATOM     11  N   UNL     1      -3.903  -0.271  24.971  0.00  0.00    -0.292 N 
ATOM     12  C   UNL     1      -2.005  -1.809  24.606  0.00  0.00    +0.216 C 
ATOM     13  C   UNL     1      -2.821  -1.022  25.629  0.00  0.00    +0.155 C 
ATOM     14  C   UNL     1      -5.060  -1.052  24.525  0.00  0.00    +0.136 C 
ATOM     15  C   UNL     1      -2.622  -3.158  24.225  0.00  0.00    +0.206 C 
ATOM     16  C   UNL     1      -4.680  -2.134  23.519  0.00  0.00    +0.179 C 
ATOM     17  C   UNL     1      -3.876   1.108  24.722  0.00  0.00    +0.250 C 
ENDROOT
BRANCH  17  18
ATOM      7  O   UNL     1      -1.373   3.624  25.619  0.00  0.00    -0.455 OA
ATOM     18  C   UNL     1      -2.707   1.871  25.175  0.00  0.00    +0.087 A 
ATOM     20  C   UNL     1      -2.576   3.238  25.118  0.00  0.00    +0.220 A 
ATOM     21  C   UNL     1      -1.507   1.384  25.748  0.00  0.00    +0.058 A 
ATOM     22  C   UNL     1      -0.729   2.489  25.999  0.00  0.00    +0.103 A 
ATOM     29  C   UNL     1       0.610   2.666  26.579  0.00  0.00    +0.086 C 
BRANCH  20  28
ATOM      2  F   UNL     1      -2.853   5.557  24.671  0.00  0.00    -0.163 F 
ATOM      3  F   UNL     1      -3.876   4.174  23.341  0.00  0.00    -0.163 F 
ATOM      4  F   UNL     1      -4.609   4.475  25.360  0.00  0.00    -0.163 F 
ATOM     28  C   UNL     1      -3.450   4.321  24.639  0.00  0.00    +0.451 C 
ENDBRANCH  20  28
ENDBRANCH  17  18
BRANCH  12   6
ATOM      6  O   UNL     1      -0.697  -2.030  25.131  0.00  0.00    -0.485 OA
BRANCH   6  19
ATOM     19  C   UNL     1       0.332  -1.390  24.498  0.00  0.00    +0.121 A 
ATOM     23  C   UNL     1       1.624  -1.910  24.567  0.00  0.00    +0.047 A 
ATOM     24  C   UNL     1       0.091  -0.215  23.786  0.00  0.00    +0.047 A 
ATOM     25  C   UNL     1       2.432  -0.084  23.209  0.00  0.00    +0.088 A 
ATOM     26  C   UNL     1       2.675  -1.258  23.921  0.00  0.00    +0.030 A 
ATOM     27  C   UNL     1       1.140   0.437  23.140  0.00  0.00    +0.030 A 
BRANCH  25   1
ATOM      1  S   UNL     1       3.748   0.736  22.404  0.00  0.00    -0.006 S 
ATOM      9  O   UNL     1       3.759   0.345  21.001  0.00  0.00    -0.170 OA
ATOM     10  O   UNL     1       3.683   2.145  22.762  0.00  0.00    -0.170 OA
ATOM     30  C   UNL     1       5.214   0.051  23.143  0.00  0.00    +0.200 C 
ENDBRANCH  25   1
ENDBRANCH   6  19
ENDBRANCH  12   6
TORSDOF 5
ENDMDL
MODEL 3
REMARK VINA RESULT:       2.9      2.715      4.683
REMARK  Name = 75536889
REMARK  7 active torsions:
REMARK  status: ('A' for Active; 'I' for Inactive)
REMARK    1  A    between atoms: S_1  and  C_25
REMARK    2  A    between atoms: S_1  and  C_30
REMARK    3  A    between atoms: O_6  and  C_12
REMARK    4  A    between atoms: O_6  and  C_19
REMARK    5  A    between atoms: C_17  and  C_18
REMARK    6  A    between atoms: C_20  and  C_28
REMARK    7  A    between atoms: C_22  and  C_29
REMARK                            x       y       z     vdW  Elec       q    Type
REMARK                         _______ _______ _______ _____ _____    ______ ____
ROOT
ATOM      5  O   UNL     1      -6.235   0.963  24.738  0.00  0.00    -0.375 OA
ATOM      8  O   UNL     1      -3.442   4.982  25.824  0.00  0.00    -0.270 OA
ATOM     11  N   UNL     1      -4.091   2.735  25.971  0.00  0.00    -0.292 N 
ATOM     12  C   UNL     1      -3.756   0.593  24.788  0.00  0.00    +0.216 C 
ATOM     13  C   UNL     1      -3.734   1.316  26.132  0.00  0.00    +0.155 C 
ATOM     14  C   UNL     1      -5.509   3.027  25.743  0.00  0.00    +0.136 C 
ATOM     15  C   UNL     1      -5.150   0.126  24.358  0.00  0.00    +0.206 C 
ATOM     16  C   UNL     1      -6.048   2.352  24.486  0.00  0.00    +0.179 C 
ATOM     17  C   UNL     1      -3.173   3.793  25.987  0.00  0.00    +0.250 C 
ENDROOT
BRANCH  17  18
ATOM      7  O   UNL     1       0.456   3.323  25.854  0.00  0.00    -0.455 OA
ATOM     18  C   UNL     1      -1.757   3.478  26.214  0.00  0.00    +0.087 A 
ATOM     20  C   UNL     1      -0.731   3.740  25.338  0.00  0.00    +0.220 A 
ATOM     21  C   UNL     1      -1.164   2.860  27.342  0.00  0.00    +0.058 A 
ATOM     22  C   UNL     1       0.183   2.789  27.073  0.00  0.00    +0.103 A 
ATOM     29  C   UNL     1       1.333   2.268  27.826  0.00  0.00    +0.086 C 
BRANCH  20  28
ATOM      2  F   UNL     1      -0.837   5.721  24.028  0.00  0.00    -0.163 F 
ATOM      3  F   UNL     1       0.518   4.164  23.342  0.00  0.00    -0.163 F 
ATOM      4  F   UNL     1      -1.625   3.906  23.125  0.00  0.00    -0.163 F 
ATOM     28  C   UNL     1      -0.670   4.358  24.004  0.00  0.00    +0.451 C 
ENDBRANCH  20  28
ENDBRANCH  17  18
BRANCH  12   6
ATOM      6  O   UNL     1      -2.890  -0.539  24.858  0.00  0.00    -0.485 OA
BRANCH   6  19
ATOM     19  C   UNL     1      -1.628  -0.374  24.361  0.00  0.00    +0.121 A 
ATOM     23  C   UNL     1      -1.308   0.774  23.635  0.00  0.00    +0.047 A 
ATOM     24  C   UNL     1      -0.658  -1.353  24.578  0.00  0.00    +0.047 A 
ATOM     25  C   UNL     1       0.949  -0.037  23.346  0.00  0.00    +0.088 A 
ATOM     26  C   UNL     1      -0.019   0.942  23.128  0.00  0.00    +0.030 A 
ATOM     27  C   UNL     1       0.629  -1.185  24.072  0.00  0.00    +0.030 A 
BRANCH  25   1
ATOM      1  S   UNL     1       2.561   0.171  22.707  0.00  0.00    -0.006 S 
ATOM      9  O   UNL     1       2.547  -0.137  21.284  0.00  0.00    -0.170 OA
ATOM     10  O   UNL     1       3.060   1.460  23.163  0.00  0.00    -0.170 OA
ATOM     30  C   UNL     1       3.519  -1.099  23.503  0.00  0.00    +0.200 C 
ENDBRANCH  25   1
ENDBRANCH   6  19
ENDBRANCH  12   6
TORSDOF 5
ENDMDL
MODEL 4
REMARK VINA RESULT:       3.0      2.202      3.201
REMARK  Name = 75536889
REMARK  7 active torsions:
REMARK  status: ('A' for Active; 'I' for Inactive)
REMARK    1  A    between atoms: S_1  and  C_25
REMARK    2  A    between atoms: S_1  and  C_30
REMARK    3  A    between atoms: O_6  and  C_12
REMARK    4  A    between atoms: O_6  and  C_19
REMARK    5  A    between atoms: C_17  and  C_18
REMARK    6  A    between atoms: C_20  and  C_28
REMARK    7  A    between atoms: C_22  and  C_29
REMARK                            x       y       z     vdW  Elec       q    Type
REMARK                         _______ _______ _______ _____ _____    ______ ____
ROOT
ATOM      5  O   UNL     1      -5.126   4.359  25.157  0.00  0.00    -0.375 OA
ATOM      8  O   UNL     1      -5.480  -0.635  25.417  0.00  0.00    -0.270 OA
ATOM     11  N   UNL     1      -4.512   1.403  24.782  0.00  0.00    -0.292 N 
ATOM     12  C   UNL     1      -3.002   3.137  25.685  0.00  0.00    +0.216 C 
ATOM     13  C   UNL     1      -3.312   2.211  24.511  0.00  0.00    +0.155 C 
ATOM     14  C   UNL     1      -5.799   2.097  24.682  0.00  0.00    +0.136 C 
ATOM     15  C   UNL     1      -3.804   4.442  25.673  0.00  0.00    +0.206 C 
ATOM     16  C   UNL     1      -5.904   3.273  25.648  0.00  0.00    +0.179 C 
ATOM     17  C   UNL     1      -4.494   0.053  25.155  0.00  0.00    +0.250 C 
ENDROOT
BRANCH  17  18
ATOM      7  O   UNL     1      -1.590  -2.167  24.951  0.00  0.00    -0.455 OA
ATOM     18  C   UNL     1      -3.194  -0.622  25.252  0.00  0.00    +0.087 A 
ATOM     20  C   UNL     1      -2.874  -1.823  24.666  0.00  0.00    +0.220 A 
ATOM     21  C   UNL     1      -2.033  -0.198  25.943  0.00  0.00    +0.058 A 
ATOM     22  C   UNL     1      -1.086  -1.173  25.729  0.00  0.00    +0.103 A 
ATOM     29  C   UNL     1       0.309  -1.331  26.163  0.00  0.00    +0.086 C 
BRANCH  20  28
ATOM      2  F   UNL     1      -4.486  -3.565  24.534  0.00  0.00    -0.163 F 
ATOM      3  F   UNL     1      -4.401  -2.181  22.860  0.00  0.00    -0.163 F 
ATOM      4  F   UNL     1      -2.832  -3.654  23.126  0.00  0.00    -0.163 F 
ATOM     28  C   UNL     1      -3.620  -2.771  23.824  0.00  0.00    +0.451 C 
ENDBRANCH  20  28
ENDBRANCH  17  18
BRANCH  12   6
ATOM      6  O   UNL     1      -1.610   3.448  25.672  0.00  0.00    -0.485 OA
BRANCH   6  19
ATOM     19  C   UNL     1      -0.805   2.617  24.946  0.00  0.00    +0.121 A 
ATOM     23  C   UNL     1       0.476   2.308  25.407  0.00  0.00    +0.047 A 
ATOM     24  C   UNL     1      -1.261   2.078  23.743  0.00  0.00    +0.047 A 
ATOM     25  C   UNL     1       0.840   0.920  23.463  0.00  0.00    +0.088 A 
ATOM     26  C   UNL     1       1.298   1.459  24.665  0.00  0.00    +0.030 A 
ATOM     27  C   UNL     1      -0.439   1.230  23.002  0.00  0.00    +0.030 A 
BRANCH  25   1
ATOM      1  S   UNL     1       1.871  -0.139  22.533  0.00  0.00    -0.006 S 
ATOM      9  O   UNL     1       2.211  -1.300  23.346  0.00  0.00    -0.170 OA
ATOM     10  O   UNL     1       1.259  -0.326  21.226  0.00  0.00    -0.170 OA
ATOM     30  C   UNL     1       3.371   0.790  22.307  0.00  0.00    +0.200 C 
ENDBRANCH  25   1
ENDBRANCH   6  19
ENDBRANCH  12   6
TORSDOF 5
ENDMDL
MODEL 5
REMARK VINA RESULT:       3.0      2.117      4.485
REMARK  Name = 75536889
REMARK  7 active torsions:
REMARK  status: ('A' for Active; 'I' for Inactive)
REMARK    1  A    between atoms: S_1  and  C_25
REMARK    2  A    between atoms: S_1  and  C_30
REMARK    3  A    between atoms: O_6  and  C_12
REMARK    4  A    between atoms: O_6  and  C_19
REMARK    5  A    between atoms: C_17  and  C_18
REMARK    6  A    between atoms: C_20  and  C_28
REMARK    7  A    between atoms: C_22  and  C_29
REMARK                            x       y       z     vdW  Elec       q    Type
REMARK                         _______ _______ _______ _____ _____    ______ ____
ROOT
ATOM      5  O   UNL     1      -3.743  -3.061  24.421  0.00  0.00    -0.375 OA
ATOM      8  O   UNL     1      -6.075   1.309  23.645  0.00  0.00    -0.270 OA
ATOM     11  N   UNL     1      -4.741  -0.216  24.825  0.00  0.00    -0.292 N 
ATOM     12  C   UNL     1      -2.401  -1.001  24.913  0.00  0.00    +0.216 C 
ATOM     13  C   UNL     1      -3.596  -0.483  25.710  0.00  0.00    +0.155 C 
ATOM     14  C   UNL     1      -5.471  -1.387  24.332  0.00  0.00    +0.136 C 
ATOM     15  C   UNL     1      -2.450  -2.505  24.629  0.00  0.00    +0.206 C 
ATOM     16  C   UNL     1      -4.582  -2.333  23.531  0.00  0.00    +0.179 C 
ATOM     17  C   UNL     1      -5.142   1.061  24.408  0.00  0.00    +0.250 C 
ENDROOT
BRANCH  17  18
ATOM      7  O   UNL     1      -2.853   3.851  25.025  0.00  0.00    -0.455 OA
ATOM     18  C   UNL     1      -4.396   2.220  24.911  0.00  0.00    +0.087 A 
ATOM     20  C   UNL     1      -3.308   2.796  24.299  0.00  0.00    +0.220 A 
ATOM     21  C   UNL     1      -4.626   2.969  26.090  0.00  0.00    +0.058 A 
ATOM     22  C   UNL     1      -3.660   3.948  26.114  0.00  0.00    +0.103 A 
ATOM     29  C   UNL     1      -3.354   5.036  27.054  0.00  0.00    +0.086 C 
BRANCH  20  28
ATOM      2  F   UNL     1      -1.331   3.093  23.012  0.00  0.00    -0.163 F 
ATOM      3  F   UNL     1      -2.327   1.167  22.847  0.00  0.00    -0.163 F 
ATOM      4  F   UNL     1      -3.199   2.919  21.912  0.00  0.00    -0.163 F 
ATOM     28  C   UNL     1      -2.569   2.503  23.060  0.00  0.00    +0.451 C 
ENDBRANCH  20  28
ENDBRANCH  17  18
BRANCH  12   6
ATOM      6  O   UNL     1      -1.205  -0.705  25.631  0.00  0.00    -0.485 OA
BRANCH   6  19
ATOM     19  C   UNL     1      -0.117  -0.347  24.885  0.00  0.00    +0.121 A 
ATOM     23  C   UNL     1       0.207   1.001  24.725  0.00  0.00    +0.047 A 
ATOM     24  C   UNL     1       0.670  -1.329  24.283  0.00  0.00    +0.047 A 
ATOM     25  C   UNL     1       2.104   0.383  23.362  0.00  0.00    +0.088 A 
ATOM     26  C   UNL     1       1.318   1.366  23.964  0.00  0.00    +0.030 A 
ATOM     27  C   UNL     1       1.780  -0.964  23.522  0.00  0.00    +0.030 A 
BRANCH  25   1
ATOM      1  S   UNL     1       3.492   0.840  22.406  0.00  0.00    -0.006 S 
ATOM      9  O   UNL     1       3.338   0.297  21.063  0.00  0.00    -0.170 OA
ATOM     10  O   UNL     1       3.711   2.267  22.588  0.00  0.00    -0.170 OA
ATOM     30  C   UNL     1       4.852  -0.023  23.160  0.00  0.00    +0.200 C 
ENDBRANCH  25   1
ENDBRANCH   6  19
ENDBRANCH  12   6
TORSDOF 5
ENDMDL
MODEL 6
REMARK VINA RESULT:       3.4      3.407      5.704
REMARK  Name = 75536889
REMARK  7 active torsions:
REMARK  status: ('A' for Active; 'I' for Inactive)
REMARK    1  A    between atoms: S_1  and  C_25
REMARK    2  A    between atoms: S_1  and  C_30
REMARK    3  A    between atoms: O_6  and  C_12
REMARK    4  A    between atoms: O_6  and  C_19
REMARK    5  A    between atoms: C_17  and  C_18
REMARK    6  A    between atoms: C_20  and  C_28
REMARK    7  A    between atoms: C_22  and  C_29
REMARK                            x       y       z     vdW  Elec       q    Type
REMARK                         _______ _______ _______ _____ _____    ______ ____
ROOT
ATOM      5  O   UNL     1      -0.676  -3.274  25.376  0.00  0.00    -0.375 OA
ATOM      8  O   UNL     1      -4.731  -1.420  23.084  0.00  0.00    -0.270 OA
ATOM     11  N   UNL     1      -3.182  -1.639  24.830  0.00  0.00    -0.292 N 
ATOM     12  C   UNL     1      -0.963  -0.787  25.502  0.00  0.00    +0.216 C 
ATOM     13  C   UNL     1      -2.409  -1.034  25.927  0.00  0.00    +0.155 C 
ATOM     14  C   UNL     1      -2.931  -3.057  24.562  0.00  0.00    +0.136 C 
ATOM     15  C   UNL     1      -0.061  -2.017  25.630  0.00  0.00    +0.206 C 
ATOM     16  C   UNL     1      -1.475  -3.333  24.200  0.00  0.00    +0.179 C 
ATOM     17  C   UNL     1      -4.096  -0.946  24.025  0.00  0.00    +0.250 C 
ENDROOT
BRANCH  17  18
ATOM      7  O   UNL     1      -4.164   2.712  24.169  0.00  0.00    -0.455 OA
ATOM     18  C   UNL     1      -4.331   0.475  24.309  0.00  0.00    +0.087 A 
ATOM     20  C   UNL     1      -3.724   1.528  23.667  0.00  0.00    +0.220 A 
ATOM     21  C   UNL     1      -5.201   1.048  25.269  0.00  0.00    +0.058 A 
ATOM     22  C   UNL     1      -5.061   2.410  25.144  0.00  0.00    +0.103 A 
ATOM     29  C   UNL     1      -5.678   3.552  25.835  0.00  0.00    +0.086 C 
BRANCH  20  28
ATOM      2  F   UNL     1      -2.417   2.910  22.241  0.00  0.00    -0.163 F 
ATOM      3  F   UNL     1      -1.523   1.032  22.874  0.00  0.00    -0.163 F 
ATOM      4  F   UNL     1      -3.120   1.028  21.407  0.00  0.00    -0.163 F 
ATOM     28  C   UNL     1      -2.731   1.618  22.585  0.00  0.00    +0.451 C 
ENDBRANCH  20  28
ENDBRANCH  17  18
BRANCH  12   6
ATOM      6  O   UNL     1      -0.424   0.269  26.295  0.00  0.00    -0.485 OA
BRANCH   6  19
ATOM     19  C   UNL     1      -0.627   1.541  25.839  0.00  0.00    +0.121 A 
ATOM     23  C   UNL     1      -1.592   2.351  26.440  0.00  0.00    +0.047 A 
ATOM     24  C   UNL     1       0.128   2.031  24.774  0.00  0.00    +0.047 A 
ATOM     25  C   UNL     1      -1.044   4.138  24.910  0.00  0.00    +0.088 A 
ATOM     26  C   UNL     1      -1.800   3.650  25.975  0.00  0.00    +0.030 A 
ATOM     27  C   UNL     1      -0.080   3.329  24.309  0.00  0.00    +0.030 A 
BRANCH  25   1
ATOM      1  S   UNL     1      -1.307   5.763  24.325  0.00  0.00    -0.006 S 
ATOM      9  O   UNL     1      -1.376   6.668  25.465  0.00  0.00    -0.170 OA
ATOM     10  O   UNL     1      -0.351   6.015  23.258  0.00  0.00    -0.170 OA
ATOM     30  C   UNL     1      -2.932   5.715  23.603  0.00  0.00    +0.200 C 
ENDBRANCH  25   1
ENDBRANCH   6  19
ENDBRANCH  12   6
TORSDOF 5
ENDMDL
MODEL 7
REMARK VINA RESULT:       3.6      3.373      5.759
REMARK  Name = 75536889
REMARK  7 active torsions:
REMARK  status: ('A' for Active; 'I' for Inactive)
REMARK    1  A    between atoms: S_1  and  C_25
REMARK    2  A    between atoms: S_1  and  C_30
REMARK    3  A    between atoms: O_6  and  C_12
REMARK    4  A    between atoms: O_6  and  C_19
REMARK    5  A    between atoms: C_17  and  C_18
REMARK    6  A    between atoms: C_20  and  C_28
REMARK    7  A    between atoms: C_22  and  C_29
REMARK                            x       y       z     vdW  Elec       q    Type
REMARK                         _______ _______ _______ _____ _____    ______ ____
ROOT
ATOM      5  O   UNL     1      -0.590  -3.219  25.743  0.00  0.00    -0.375 OA
ATOM      8  O   UNL     1      -4.943  -1.625  23.836  0.00  0.00    -0.270 OA
ATOM     11  N   UNL     1      -2.926  -1.414  25.011  0.00  0.00    -0.292 N 
ATOM     12  C   UNL     1      -0.529  -0.997  24.585  0.00  0.00    +0.216 C 
ATOM     13  C   UNL     1      -1.760  -0.604  25.400  0.00  0.00    +0.155 C 
ATOM     14  C   UNL     1      -2.946  -2.799  25.491  0.00  0.00    +0.136 C 
ATOM     15  C   UNL     1       0.215  -2.217  25.136  0.00  0.00    +0.206 C 
ATOM     16  C   UNL     1      -1.745  -3.602  25.005  0.00  0.00    +0.179 C 
ATOM     17  C   UNL     1      -3.975  -0.960  24.200  0.00  0.00    +0.250 C 
ENDROOT
BRANCH  17  18
ATOM      7  O   UNL     1      -4.355   2.634  23.613  0.00  0.00    -0.455 OA
ATOM     18  C   UNL     1      -3.933   0.429  23.728  0.00  0.00    +0.087 A 
ATOM     20  C   UNL     1      -4.611   1.484  24.291  0.00  0.00    +0.220 A 
ATOM     21  C   UNL     1      -3.213   0.964  22.632  0.00  0.00    +0.058 A 
ATOM     22  C   UNL     1      -3.504   2.308  22.605  0.00  0.00    +0.103 A 
ATOM     29  C   UNL     1      -3.082   3.411  21.729  0.00  0.00    +0.086 C 
BRANCH  20  28
ATOM      2  F   UNL     1      -6.849   1.634  25.080  0.00  0.00    -0.163 F 
ATOM      3  F   UNL     1      -5.432   0.577  26.347  0.00  0.00    -0.163 F 
ATOM      4  F   UNL     1      -5.341   2.739  26.193  0.00  0.00    -0.163 F 
ATOM     28  C   UNL     1      -5.524   1.604  25.439  0.00  0.00    +0.451 C 
ENDBRANCH  20  28
ENDBRANCH  17  18
BRANCH  12   6
ATOM      6  O   UNL     1       0.367   0.112  24.541  0.00  0.00    -0.485 OA
BRANCH   6  19
ATOM     19  C   UNL     1      -0.185   1.351  24.706  0.00  0.00    +0.121 A 
ATOM     23  C   UNL     1      -1.067   1.588  25.762  0.00  0.00    +0.047 A 
ATOM     24  C   UNL     1       0.130   2.380  23.819  0.00  0.00    +0.047 A 
ATOM     25  C   UNL     1      -1.314   3.880  25.043  0.00  0.00    +0.088 A 
ATOM     26  C   UNL     1      -1.630   2.853  25.930  0.00  0.00    +0.030 A 
ATOM     27  C   UNL     1      -0.433   3.644  23.987  0.00  0.00    +0.030 A 
BRANCH  25   1
ATOM      1  S   UNL     1      -2.023   5.463  25.251  0.00  0.00    -0.006 S 
ATOM      9  O   UNL     1      -2.792   5.475  26.488  0.00  0.00    -0.170 OA
ATOM     10  O   UNL     1      -0.978   6.453  25.039  0.00  0.00    -0.170 OA
ATOM     30  C   UNL     1      -3.189   5.604  23.915  0.00  0.00    +0.200 C 
ENDBRANCH  25   1
ENDBRANCH   6  19
ENDBRANCH  12   6
TORSDOF 5
ENDMDL
