MODEL 1
REMARK VINA RESULT:       4.8      0.000      0.000
REMARK  Name = 11912770
REMARK  7 active torsions:
REMARK  status: ('A' for Active; 'I' for Inactive)
REMARK    1  A    between atoms: O_3  and  C_15
REMARK    2  A    between atoms: O_3  and  C_19
REMARK    3  A    between atoms: N_8  and  C_14
REMARK    4  A    between atoms: N_11  and  C_23
REMARK    5  A    between atoms: C_20  and  C_24
REMARK    6  A    between atoms: C_32  and  C_36
REMARK    7  A    between atoms: C_36  and  C_37
REMARK                            x       y       z     vdW  Elec       q    Type
REMARK                         _______ _______ _______ _____ _____    ______ ____
ROOT
ATOM      1  O   UNL     1      -1.811   2.312  25.175  0.00  0.00    -0.368 OA
ATOM      2  O   UNL     1      -0.456   5.021  24.687  0.00  0.00    -0.368 OA
ATOM     12  C   UNL     1      -1.846   4.632  24.690  0.00  0.00    +0.173 C 
ATOM     13  C   UNL     1      -1.915   3.244  24.086  0.00  0.00    +0.192 C 
ATOM     14  C   UNL     1      -2.326   4.438  26.109  0.00  0.00    +0.130 C 
ATOM     15  C   UNL     1      -0.691   3.209  23.203  0.00  0.00    +0.235 C 
ATOM     16  C   UNL     1      -1.858   3.027  26.419  0.00  0.00    +0.185 C 
ATOM     17  C   UNL     1       0.306   4.012  24.007  0.00  0.00    +0.207 C 
ENDROOT
BRANCH  14   8
ATOM      8  N   UNL     1      -3.769   4.513  26.166  0.00  0.00    -0.306 N 
ATOM      9  N   UNL     1      -4.006   2.290  25.540  0.00  0.00    -0.214 NA
ATOM     10  N   UNL     1      -5.928   3.674  25.985  0.00  0.00    -0.223 NA
ATOM     18  C   UNL     1      -4.604   3.446  25.884  0.00  0.00    +0.216 A 
ATOM     20  C   UNL     1      -4.848   1.271  25.271  0.00  0.00    +0.076 A 
ATOM     21  C   UNL     1      -6.711   2.612  25.703  0.00  0.00    +0.116 A 
ATOM     22  C   UNL     1      -6.222   1.374  25.338  0.00  0.00    +0.048 A 
ATOM     38  H   UNL     1      -4.211   5.371  26.477  0.00  0.00    +0.149 HD
BRANCH  20  24
ATOM      5  O   UNL     1      -1.062  -1.829  25.208  0.00  0.00    -0.453 OA
ATOM      6  O   UNL     1      -2.282  -3.457  23.916  0.00  0.00    -0.453 OA
ATOM     24  C   UNL     1      -4.210   0.030  24.902  0.00  0.00    +0.004 A 
ATOM     25  C   UNL     1      -2.894  -0.218  25.296  0.00  0.00    +0.059 A 
ATOM     28  C   UNL     1      -4.922  -0.920  24.148  0.00  0.00    +0.014 A 
ATOM     29  C   UNL     1      -2.327  -1.418  24.919  0.00  0.00    +0.167 A 
ATOM     30  C   UNL     1      -3.023  -2.348  24.181  0.00  0.00    +0.166 A 
ATOM     31  C   UNL     1      -4.325  -2.128  23.780  0.00  0.00    +0.050 A 
ATOM     35  C   UNL     1      -1.041  -3.123  24.569  0.00  0.00    +0.466 C 
ENDBRANCH  20  24
ENDBRANCH  14   8
BRANCH  15   3
ATOM      3  O   UNL     1      -0.229   1.905  22.932  0.00  0.00    -0.442 OA
BRANCH   3  19
ATOM      4  O   UNL     1       1.066   1.823  24.815  0.00  0.00    -0.226 OA
ATOM     11  N   UNL     1       1.601   0.589  22.899  0.00  0.00    -0.251 N 
ATOM     19  C   UNL     1       0.852   1.462  23.664  0.00  0.00    +0.405 C 
ATOM     39  H   UNL     1       1.261   0.410  21.958  0.00  0.00    +0.158 HD
BRANCH  11  23
ATOM     23  C   UNL     1       2.785  -0.092  23.264  0.00  0.00    +0.037 A 
ATOM     26  C   UNL     1       4.000   0.592  23.305  0.00  0.00    +0.034 A 
ATOM     27  C   UNL     1       2.738  -1.449  23.584  0.00  0.00    +0.023 A 
ATOM     32  C   UNL     1       5.167  -0.081  23.665  0.00  0.00    +0.019 A 
ATOM     33  C   UNL     1       3.906  -2.122  23.944  0.00  0.00    +0.002 A 
ATOM     34  C   UNL     1       5.120  -1.438  23.984  0.00  0.00    +0.011 A 
BRANCH  32  36
ATOM      7  O   UNL     1       6.519   1.780  24.192  0.00  0.00    -0.292 OA
ATOM     36  C   UNL     1       6.434   0.633  23.708  0.00  0.00    +0.160 C 
ATOM     37  C   UNL     1       7.701  -0.014  23.159  0.00  0.00    +0.091 C 
ENDBRANCH  32  36
ENDBRANCH  11  23
ENDBRANCH   3  19
ENDBRANCH  15   3
TORSDOF 6
ENDMDL
MODEL 2
REMARK VINA RESULT:       4.8      1.560      4.939
REMARK  Name = 11912770
REMARK  7 active torsions:
REMARK  status: ('A' for Active; 'I' for Inactive)
REMARK    1  A    between atoms: O_3  and  C_15
REMARK    2  A    between atoms: O_3  and  C_19
REMARK    3  A    between atoms: N_8  and  C_14
REMARK    4  A    between atoms: N_11  and  C_23
REMARK    5  A    between atoms: C_20  and  C_24
REMARK    6  A    between atoms: C_32  and  C_36
REMARK    7  A    between atoms: C_36  and  C_37
REMARK                            x       y       z     vdW  Elec       q    Type
REMARK                         _______ _______ _______ _____ _____    ______ ____
ROOT
ATOM      1  O   UNL     1      -2.831  -0.107  25.019  0.00  0.00    -0.368 OA
ATOM      2  O   UNL     1      -3.490  -2.933  24.023  0.00  0.00    -0.368 OA
ATOM     12  C   UNL     1      -4.277  -1.967  24.751  0.00  0.00    +0.173 C 
ATOM     13  C   UNL     1      -3.334  -1.264  25.707  0.00  0.00    +0.192 C 
ATOM     14  C   UNL     1      -4.740  -0.870  23.821  0.00  0.00    +0.130 C 
ATOM     15  C   UNL     1      -2.255  -2.298  25.923  0.00  0.00    +0.235 C 
ATOM     16  C   UNL     1      -3.530   0.046  23.774  0.00  0.00    +0.185 C 
ATOM     17  C   UNL     1      -2.160  -2.949  24.561  0.00  0.00    +0.207 C 
ENDROOT
BRANCH  14   8
ATOM      8  N   UNL     1      -5.874  -0.175  24.389  0.00  0.00    -0.306 N 
ATOM      9  N   UNL     1      -4.648   1.772  24.702  0.00  0.00    -0.214 NA
ATOM     10  N   UNL     1      -6.972   1.643  25.329  0.00  0.00    -0.223 NA
ATOM     18  C   UNL     1      -5.830   1.137  24.826  0.00  0.00    +0.216 A 
ATOM     20  C   UNL     1      -4.639   3.048  25.137  0.00  0.00    +0.076 A 
ATOM     21  C   UNL     1      -6.892   2.925  25.744  0.00  0.00    +0.116 A 
ATOM     22  C   UNL     1      -5.741   3.684  25.672  0.00  0.00    +0.048 A 
ATOM     38  H   UNL     1      -6.774  -0.642  24.431  0.00  0.00    +0.149 HD
BRANCH  20  24
ATOM      5  O   UNL     1      -0.012   3.384  23.581  0.00  0.00    -0.453 OA
ATOM      6  O   UNL     1       0.269   5.568  24.560  0.00  0.00    -0.453 OA
ATOM     24  C   UNL     1      -3.375   3.732  25.005  0.00  0.00    +0.004 A 
ATOM     25  C   UNL     1      -2.326   3.124  24.312  0.00  0.00    +0.059 A 
ATOM     28  C   UNL     1      -3.211   5.007  25.577  0.00  0.00    +0.014 A 
ATOM     29  C   UNL     1      -1.137   3.816  24.212  0.00  0.00    +0.167 A 
ATOM     30  C   UNL     1      -0.976   5.063  24.772  0.00  0.00    +0.166 A 
ATOM     31  C   UNL     1      -1.996   5.686  25.461  0.00  0.00    +0.050 A 
ATOM     35  C   UNL     1       0.875   4.500  23.805  0.00  0.00    +0.466 C 
ENDBRANCH  20  24
ENDBRANCH  14   8
BRANCH  15   3
ATOM      3  O   UNL     1      -1.024  -1.750  26.337  0.00  0.00    -0.442 OA
BRANCH   3  19
ATOM      4  O   UNL     1       0.829  -2.786  25.487  0.00  0.00    -0.226 OA
ATOM     11  N   UNL     1       0.023  -0.780  24.592  0.00  0.00    -0.251 N 
ATOM     19  C   UNL     1       0.033  -1.856  25.458  0.00  0.00    +0.405 C 
ATOM     39  H   UNL     1      -0.725  -0.104  24.724  0.00  0.00    +0.158 HD
BRANCH  11  23
ATOM     23  C   UNL     1       0.925  -0.500  23.540  0.00  0.00    +0.037 A 
ATOM     26  C   UNL     1       2.222  -0.075  23.826  0.00  0.00    +0.034 A 
ATOM     27  C   UNL     1       0.517  -0.651  22.214  0.00  0.00    +0.023 A 
ATOM     32  C   UNL     1       3.111   0.200  22.787  0.00  0.00    +0.019 A 
ATOM     33  C   UNL     1       1.406  -0.376  21.175  0.00  0.00    +0.002 A 
ATOM     34  C   UNL     1       2.703   0.050  21.462  0.00  0.00    +0.011 A 
BRANCH  32  36
ATOM      7  O   UNL     1       4.807   1.833  22.937  0.00  0.00    -0.292 OA
ATOM     36  C   UNL     1       4.463   0.643  23.086  0.00  0.00    +0.160 C 
ATOM     37  C   UNL     1       5.502  -0.350  23.596  0.00  0.00    +0.091 C 
ENDBRANCH  32  36
ENDBRANCH  11  23
ENDBRANCH   3  19
ENDBRANCH  15   3
TORSDOF 6
ENDMDL
MODEL 3
REMARK VINA RESULT:       4.8      2.050      4.737
REMARK  Name = 11912770
REMARK  7 active torsions:
REMARK  status: ('A' for Active; 'I' for Inactive)
REMARK    1  A    between atoms: O_3  and  C_15
REMARK    2  A    between atoms: O_3  and  C_19
REMARK    3  A    between atoms: N_8  and  C_14
REMARK    4  A    between atoms: N_11  and  C_23
REMARK    5  A    between atoms: C_20  and  C_24
REMARK    6  A    between atoms: C_32  and  C_36
REMARK    7  A    between atoms: C_36  and  C_37
REMARK                            x       y       z     vdW  Elec       q    Type
REMARK                         _______ _______ _______ _____ _____    ______ ____
ROOT
ATOM      1  O   UNL     1      -2.437   0.617  24.718  0.00  0.00    -0.368 OA
ATOM      2  O   UNL     1      -4.346  -1.697  24.077  0.00  0.00    -0.368 OA
ATOM     12  C   UNL     1      -4.581  -0.393  24.649  0.00  0.00    +0.173 C 
ATOM     13  C   UNL     1      -3.391  -0.082  25.534  0.00  0.00    +0.192 C 
ATOM     14  C   UNL     1      -4.520   0.663  23.571  0.00  0.00    +0.130 C 
ATOM     15  C   UNL     1      -2.898  -1.457  25.917  0.00  0.00    +0.235 C 
ATOM     16  C   UNL     1      -3.028   0.911  23.443  0.00  0.00    +0.185 C 
ATOM     17  C   UNL     1      -3.154  -2.249  24.655  0.00  0.00    +0.207 C 
ENDROOT
BRANCH  14   8
ATOM      8  N   UNL     1      -5.193   1.867  24.008  0.00  0.00    -0.306 N 
ATOM      9  N   UNL     1      -3.362   2.551  25.263  0.00  0.00    -0.214 NA
ATOM     10  N   UNL     1      -5.373   3.875  25.162  0.00  0.00    -0.223 NA
ATOM     18  C   UNL     1      -4.618   2.805  24.848  0.00  0.00    +0.216 A 
ATOM     20  C   UNL     1      -2.832   3.484  26.079  0.00  0.00    +0.076 A 
ATOM     21  C   UNL     1      -4.781   4.768  25.981  0.00  0.00    +0.116 A 
ATOM     22  C   UNL     1      -3.500   4.624  26.476  0.00  0.00    +0.048 A 
ATOM     38  H   UNL     1      -6.118   2.078  23.650  0.00  0.00    +0.149 HD
BRANCH  20  24
ATOM      5  O   UNL     1       0.524   2.662  29.545  0.00  0.00    -0.453 OA
ATOM      6  O   UNL     1       2.297   2.454  27.925  0.00  0.00    -0.453 OA
ATOM     24  C   UNL     1      -1.486   3.215  26.525  0.00  0.00    +0.004 A 
ATOM     25  C   UNL     1      -1.222   3.079  27.890  0.00  0.00    +0.059 A 
ATOM     28  C   UNL     1      -0.452   3.094  25.580  0.00  0.00    +0.014 A 
ATOM     29  C   UNL     1       0.080   2.823  28.268  0.00  0.00    +0.167 A 
ATOM     30  C   UNL     1       1.093   2.704  27.344  0.00  0.00    +0.166 A 
ATOM     31  C   UNL     1       0.858   2.834  25.990  0.00  0.00    +0.050 A 
ATOM     35  C   UNL     1       1.930   2.428  29.319  0.00  0.00    +0.466 C 
ENDBRANCH  20  24
ENDBRANCH  14   8
BRANCH  15   3
ATOM      3  O   UNL     1      -1.540  -1.483  26.294  0.00  0.00    -0.442 OA
BRANCH   3  19
ATOM      4  O   UNL     1      -0.286  -2.907  25.018  0.00  0.00    -0.226 OA
ATOM     11  N   UNL     1      -0.184  -0.586  24.732  0.00  0.00    -0.251 N 
ATOM     19  C   UNL     1      -0.622  -1.764  25.304  0.00  0.00    +0.405 C 
ATOM     39  H   UNL     1      -0.582   0.271  25.107  0.00  0.00    +0.158 HD
BRANCH  11  23
ATOM     23  C   UNL     1       0.753  -0.421  23.686  0.00  0.00    +0.037 A 
ATOM     26  C   UNL     1       2.084  -0.129  23.981  0.00  0.00    +0.034 A 
ATOM     27  C   UNL     1       0.345  -0.553  22.359  0.00  0.00    +0.023 A 
ATOM     32  C   UNL     1       3.007   0.033  22.948  0.00  0.00    +0.019 A 
ATOM     33  C   UNL     1       1.268  -0.391  21.326  0.00  0.00    +0.002 A 
ATOM     34  C   UNL     1       2.599  -0.098  21.620  0.00  0.00    +0.011 A 
BRANCH  32  36
ATOM      7  O   UNL     1       4.873   1.474  23.057  0.00  0.00    -0.292 OA
ATOM     36  C   UNL     1       4.396   0.338  23.255  0.00  0.00    +0.160 C 
ATOM     37  C   UNL     1       5.309  -0.737  23.834  0.00  0.00    +0.091 C 
ENDBRANCH  32  36
ENDBRANCH  11  23
ENDBRANCH   3  19
ENDBRANCH  15   3
TORSDOF 6
ENDMDL
MODEL 4
REMARK VINA RESULT:       5.9      2.835      8.154
REMARK  Name = 11912770
REMARK  7 active torsions:
REMARK  status: ('A' for Active; 'I' for Inactive)
REMARK    1  A    between atoms: O_3  and  C_15
REMARK    2  A    between atoms: O_3  and  C_19
REMARK    3  A    between atoms: N_8  and  C_14
REMARK    4  A    between atoms: N_11  and  C_23
REMARK    5  A    between atoms: C_20  and  C_24
REMARK    6  A    between atoms: C_32  and  C_36
REMARK    7  A    between atoms: C_36  and  C_37
REMARK                            x       y       z     vdW  Elec       q    Type
REMARK                         _______ _______ _______ _____ _____    ______ ____
ROOT
ATOM      1  O   UNL     1      -1.954  -1.066  24.351  0.00  0.00    -0.368 OA
ATOM      2  O   UNL     1      -1.701  -3.740  25.833  0.00  0.00    -0.368 OA
ATOM     12  C   UNL     1      -0.916  -3.156  24.773  0.00  0.00    +0.173 C 
ATOM     13  C   UNL     1      -1.881  -2.417  23.868  0.00  0.00    +0.192 C 
ATOM     14  C   UNL     1      -0.028  -2.066  25.326  0.00  0.00    +0.130 C 
ATOM     15  C   UNL     1      -3.176  -3.161  24.093  0.00  0.00    +0.235 C 
ATOM     16  C   UNL     1      -0.970  -0.876  25.380  0.00  0.00    +0.185 C 
ATOM     17  C   UNL     1      -3.091  -3.510  25.562  0.00  0.00    +0.207 C 
ENDROOT
BRANCH  14   8
ATOM      8  N   UNL     1       1.067  -1.800  24.418  0.00  0.00    -0.306 N 
ATOM      9  N   UNL     1       0.615   0.478  24.388  0.00  0.00    -0.214 NA
ATOM     10  N   UNL     1       2.437  -0.452  23.114  0.00  0.00    -0.223 NA
ATOM     18  C   UNL     1       1.387  -0.536  23.953  0.00  0.00    +0.216 A 
ATOM     20  C   UNL     1       0.953   1.695  23.915  0.00  0.00    +0.076 A 
ATOM     21  C   UNL     1       2.720   0.794  22.681  0.00  0.00    +0.116 A 
ATOM     22  C   UNL     1       2.006   1.916  23.051  0.00  0.00    +0.048 A 
ATOM     38  H   UNL     1       1.676  -2.560  24.137  0.00  0.00    +0.149 HD
BRANCH  20  24
ATOM      5  O   UNL     1      -2.475   3.628  26.823  0.00  0.00    -0.453 OA
ATOM      6  O   UNL     1      -2.276   5.797  25.792  0.00  0.00    -0.453 OA
ATOM     24  C   UNL     1       0.129   2.784  24.380  0.00  0.00    +0.004 A 
ATOM     25  C   UNL     1      -0.777   2.574  25.422  0.00  0.00    +0.059 A 
ATOM     28  C   UNL     1       0.245   4.050  23.777  0.00  0.00    +0.014 A 
ATOM     29  C   UNL     1      -1.544   3.645  25.831  0.00  0.00    +0.167 A 
ATOM     30  C   UNL     1      -1.431   4.884  25.242  0.00  0.00    +0.166 A 
ATOM     31  C   UNL     1      -0.544   5.118  24.211  0.00  0.00    +0.050 A 
ATOM     35  C   UNL     1      -2.934   4.996  26.793  0.00  0.00    +0.466 C 
ENDBRANCH  20  24
ENDBRANCH  14   8
BRANCH  15   3
ATOM      3  O   UNL     1      -4.323  -2.399  23.794  0.00  0.00    -0.442 OA
BRANCH   3  19
ATOM      4  O   UNL     1      -4.607  -0.937  25.530  0.00  0.00    -0.226 OA
ATOM     11  N   UNL     1      -4.184  -0.192  23.352  0.00  0.00    -0.251 N 
ATOM     19  C   UNL     1      -4.392  -1.134  24.340  0.00  0.00    +0.405 C 
ATOM     39  H   UNL     1      -4.019  -0.552  22.415  0.00  0.00    +0.158 HD
BRANCH  11  23
ATOM     23  C   UNL     1      -4.171   1.216  23.480  0.00  0.00    +0.037 A 
ATOM     26  C   UNL     1      -4.957   1.836  24.450  0.00  0.00    +0.034 A 
ATOM     27  C   UNL     1      -3.369   1.985  22.636  0.00  0.00    +0.023 A 
ATOM     32  C   UNL     1      -4.943   3.225  24.576  0.00  0.00    +0.019 A 
ATOM     33  C   UNL     1      -3.355   3.374  22.762  0.00  0.00    +0.002 A 
ATOM     34  C   UNL     1      -4.142   3.994  23.731  0.00  0.00    +0.011 A 
BRANCH  32  36
ATOM      7  O   UNL     1      -6.117   3.270  26.622  0.00  0.00    -0.292 OA
ATOM     36  C   UNL     1      -5.763   3.872  25.588  0.00  0.00    +0.160 C 
ATOM     37  C   UNL     1      -6.211   5.318  25.406  0.00  0.00    +0.091 C 
ENDBRANCH  32  36
ENDBRANCH  11  23
ENDBRANCH   3  19
ENDBRANCH  15   3
TORSDOF 6
ENDMDL
MODEL 5
REMARK VINA RESULT:       5.9      1.203      1.409
REMARK  Name = 11912770
REMARK  7 active torsions:
REMARK  status: ('A' for Active; 'I' for Inactive)
REMARK    1  A    between atoms: O_3  and  C_15
REMARK    2  A    between atoms: O_3  and  C_19
REMARK    3  A    between atoms: N_8  and  C_14
REMARK    4  A    between atoms: N_11  and  C_23
REMARK    5  A    between atoms: C_20  and  C_24
REMARK    6  A    between atoms: C_32  and  C_36
REMARK    7  A    between atoms: C_36  and  C_37
REMARK                            x       y       z     vdW  Elec       q    Type
REMARK                         _______ _______ _______ _____ _____    ______ ____
ROOT
ATOM      1  O   UNL     1      -2.339   2.761  26.248  0.00  0.00    -0.368 OA
ATOM      2  O   UNL     1      -1.279   5.216  24.745  0.00  0.00    -0.368 OA
ATOM     12  C   UNL     1      -2.562   4.556  24.715  0.00  0.00    +0.173 C 
ATOM     13  C   UNL     1      -2.293   3.070  24.846  0.00  0.00    +0.192 C 
ATOM     14  C   UNL     1      -3.348   4.896  25.959  0.00  0.00    +0.130 C 
ATOM     15  C   UNL     1      -0.895   2.938  24.290  0.00  0.00    +0.235 C 
ATOM     16  C   UNL     1      -2.788   3.915  26.975  0.00  0.00    +0.185 C 
ATOM     17  C   UNL     1      -0.245   4.220  24.759  0.00  0.00    +0.207 C 
ENDROOT
BRANCH  14   8
ATOM      8  N   UNL     1      -4.757   4.649  25.746  0.00  0.00    -0.306 N 
ATOM      9  N   UNL     1      -4.397   2.394  25.324  0.00  0.00    -0.214 NA
ATOM     10  N   UNL     1      -6.614   3.338  25.266  0.00  0.00    -0.223 NA
ATOM     18  C   UNL     1      -5.279   3.406  25.432  0.00  0.00    +0.216 A 
ATOM     20  C   UNL     1      -4.938   1.198  25.016  0.00  0.00    +0.076 A 
ATOM     21  C   UNL     1      -7.087   2.112  24.961  0.00  0.00    +0.116 A 
ATOM     22  C   UNL     1      -6.289   0.994  24.822  0.00  0.00    +0.048 A 
ATOM     38  H   UNL     1      -5.421   5.404  25.881  0.00  0.00    +0.149 HD
BRANCH  20  24
ATOM      5  O   UNL     1      -0.731  -1.053  26.103  0.00  0.00    -0.453 OA
ATOM      6  O   UNL     1      -1.233  -2.916  24.659  0.00  0.00    -0.453 OA
ATOM     24  C   UNL     1      -3.996   0.110  24.901  0.00  0.00    +0.004 A 
ATOM     25  C   UNL     1      -2.803   0.146  25.625  0.00  0.00    +0.059 A 
ATOM     28  C   UNL     1      -4.289  -0.977  24.058  0.00  0.00    +0.014 A 
ATOM     29  C   UNL     1      -1.934  -0.916  25.482  0.00  0.00    +0.167 A 
ATOM     30  C   UNL     1      -2.220  -1.980  24.657  0.00  0.00    +0.166 A 
ATOM     31  C   UNL     1      -3.392  -2.040  23.931  0.00  0.00    +0.050 A 
ATOM     35  C   UNL     1      -0.293  -2.323  25.577  0.00  0.00    +0.466 C 
ENDBRANCH  20  24
ENDBRANCH  14   8
BRANCH  15   3
ATOM      3  O   UNL     1      -0.211   1.796  24.752  0.00  0.00    -0.442 OA
BRANCH   3  19
ATOM      4  O   UNL     1       0.000   0.357  22.986  0.00  0.00    -0.226 OA
ATOM     11  N   UNL     1       1.866   1.346  23.996  0.00  0.00    -0.251 N 
ATOM     19  C   UNL     1       0.520   1.088  23.821  0.00  0.00    +0.405 C 
ATOM     39  H   UNL     1       2.106   1.988  24.748  0.00  0.00    +0.158 HD
BRANCH  11  23
ATOM     23  C   UNL     1       2.955   0.830  23.258  0.00  0.00    +0.037 A 
ATOM     26  C   UNL     1       4.118   0.433  23.916  0.00  0.00    +0.034 A 
ATOM     27  C   UNL     1       2.866   0.717  21.871  0.00  0.00    +0.023 A 
ATOM     32  C   UNL     1       5.193  -0.077  23.187  0.00  0.00    +0.019 A 
ATOM     33  C   UNL     1       3.940   0.206  21.142  0.00  0.00    +0.002 A 
ATOM     34  C   UNL     1       5.103  -0.190  21.800  0.00  0.00    +0.011 A 
BRANCH  32  36
ATOM      7  O   UNL     1       6.366  -1.033  24.997  0.00  0.00    -0.292 OA
ATOM     36  C   UNL     1       6.406  -0.492  23.874  0.00  0.00    +0.160 C 
ATOM     37  C   UNL     1       7.769  -0.273  23.226  0.00  0.00    +0.091 C 
ENDBRANCH  32  36
ENDBRANCH  11  23
ENDBRANCH   3  19
ENDBRANCH  15   3
TORSDOF 6
ENDMDL
MODEL 6
REMARK VINA RESULT:       6.5      3.079      5.879
REMARK  Name = 11912770
REMARK  7 active torsions:
REMARK  status: ('A' for Active; 'I' for Inactive)
REMARK    1  A    between atoms: O_3  and  C_15
REMARK    2  A    between atoms: O_3  and  C_19
REMARK    3  A    between atoms: N_8  and  C_14
REMARK    4  A    between atoms: N_11  and  C_23
REMARK    5  A    between atoms: C_20  and  C_24
REMARK    6  A    between atoms: C_32  and  C_36
REMARK    7  A    between atoms: C_36  and  C_37
REMARK                            x       y       z     vdW  Elec       q    Type
REMARK                         _______ _______ _______ _____ _____    ______ ____
ROOT
ATOM      1  O   UNL     1      -4.278   2.023  25.694  0.00  0.00    -0.368 OA
ATOM      2  O   UNL     1      -4.002   2.319  22.653  0.00  0.00    -0.368 OA
ATOM     12  C   UNL     1      -3.764   1.199  23.531  0.00  0.00    +0.173 C 
ATOM     13  C   UNL     1      -3.176   1.762  24.810  0.00  0.00    +0.192 C 
ATOM     14  C   UNL     1      -5.077   0.594  23.968  0.00  0.00    +0.130 C 
ATOM     15  C   UNL     1      -2.524   3.039  24.337  0.00  0.00    +0.235 C 
ATOM     16  C   UNL     1      -5.484   1.499  25.117  0.00  0.00    +0.185 C 
ATOM     17  C   UNL     1      -3.483   3.508  23.266  0.00  0.00    +0.207 C 
ENDROOT
BRANCH  14   8
ATOM      8  N   UNL     1      -4.876  -0.758  24.440  0.00  0.00    -0.306 N 
ATOM      9  N   UNL     1      -2.569  -0.587  24.239  0.00  0.00    -0.214 NA
ATOM     10  N   UNL     1      -3.608  -2.612  25.031  0.00  0.00    -0.223 NA
ATOM     18  C   UNL     1      -3.630  -1.345  24.576  0.00  0.00    +0.216 A 
ATOM     20  C   UNL     1      -1.370  -1.189  24.383  0.00  0.00    +0.076 A 
ATOM     21  C   UNL     1      -2.377  -3.152  25.152  0.00  0.00    +0.116 A 
ATOM     22  C   UNL     1      -1.212  -2.482  24.839  0.00  0.00    +0.048 A 
ATOM     38  H   UNL     1      -5.675  -1.304  24.742  0.00  0.00    +0.149 HD
BRANCH  20  24
ATOM      5  O   UNL     1       3.104  -0.560  22.503  0.00  0.00    -0.453 OA
ATOM      6  O   UNL     1       3.076   1.807  22.957  0.00  0.00    -0.453 OA
ATOM     24  C   UNL     1      -0.231  -0.380  24.024  0.00  0.00    +0.004 A 
ATOM     25  C   UNL     1       0.878  -0.974  23.418  0.00  0.00    +0.059 A 
ATOM     28  C   UNL     1      -0.247   1.001  24.289  0.00  0.00    +0.014 A 
ATOM     29  C   UNL     1       1.944  -0.160  23.093  0.00  0.00    +0.167 A 
ATOM     30  C   UNL     1       1.929   1.191  23.353  0.00  0.00    +0.166 A 
ATOM     31  C   UNL     1       0.845   1.802  23.951  0.00  0.00    +0.050 A 
ATOM     35  C   UNL     1       3.815   0.692  22.420  0.00  0.00    +0.466 C 
ENDBRANCH  20  24
ENDBRANCH  14   8
BRANCH  15   3
ATOM      3  O   UNL     1      -2.357   3.997  25.357  0.00  0.00    -0.442 OA
BRANCH   3  19
ATOM      4  O   UNL     1      -0.311   5.009  25.490  0.00  0.00    -0.226 OA
ATOM     11  N   UNL     1      -0.871   3.186  26.847  0.00  0.00    -0.251 N 
ATOM     19  C   UNL     1      -1.087   4.143  25.874  0.00  0.00    +0.405 C 
ATOM     39  H   UNL     1      -1.642   2.549  27.028  0.00  0.00    +0.158 HD
BRANCH  11  23
ATOM     23  C   UNL     1       0.291   2.982  27.625  0.00  0.00    +0.037 A 
ATOM     26  C   UNL     1       0.178   2.674  28.980  0.00  0.00    +0.034 A 
ATOM     27  C   UNL     1       1.551   3.089  27.036  0.00  0.00    +0.023 A 
ATOM     32  C   UNL     1       1.326   2.473  29.747  0.00  0.00    +0.019 A 
ATOM     33  C   UNL     1       2.699   2.887  27.803  0.00  0.00    +0.002 A 
ATOM     34  C   UNL     1       2.586   2.580  29.159  0.00  0.00    +0.011 A 
BRANCH  32  36
ATOM      7  O   UNL     1       2.066   1.458  31.744  0.00  0.00    -0.292 OA
ATOM     36  C   UNL     1       1.208   2.152  31.161  0.00  0.00    +0.160 C 
ATOM     37  C   UNL     1       0.021   2.663  31.970  0.00  0.00    +0.091 C 
ENDBRANCH  32  36
ENDBRANCH  11  23
ENDBRANCH   3  19
ENDBRANCH  15   3
TORSDOF 6
ENDMDL
