MODEL 1
REMARK VINA RESULT:      -2.7      0.000      0.000
REMARK  Name = 45783555
REMARK  11 active torsions:
REMARK  status: ('A' for Active; 'I' for Inactive)
REMARK    1  A    between atoms: O_2  and  C_22
REMARK    2  A    between atoms: O_2  and  C_23
REMARK    3  A    between atoms: O_3  and  C_24
REMARK    4  A    between atoms: O_3  and  C_25
REMARK    5  A    between atoms: N_4  and  C_12
REMARK    6  A    between atoms: C_8  and  C_14
REMARK    7  A    between atoms: C_12  and  C_13
REMARK    8  A    between atoms: C_13  and  C_15
REMARK    9  A    between atoms: C_13  and  C_16
REMARK   10  A    between atoms: C_17  and  C_18
REMARK   11  A    between atoms: C_23  and  C_24
REMARK                            x       y       z     vdW  Elec       q    Type
REMARK                         _______ _______ _______ _____ _____    ______ ____
ROOT
ATOM      1  O   UNL     1      -2.922  -0.581  24.865  0.00  0.00    -0.336 OA
ATOM      5  N   UNL     1      -1.792   1.345  24.689  0.00  0.00    -0.190 NA
ATOM      6  N   UNL     1      -1.696  -0.902  24.269  0.00  0.00    -0.056 NA
ATOM     14  C   UNL     1      -2.896   0.760  25.079  0.00  0.00    +0.245 A 
ATOM     17  C   UNL     1      -1.086   0.285  24.199  0.00  0.00    +0.204 A 
ENDROOT
BRANCH  17  18
ATOM      7  N   UNL     1       2.264   1.740  23.502  0.00  0.00    -0.221 NA
ATOM     18  C   UNL     1       0.227   0.447  23.643  0.00  0.00    +0.041 A 
ATOM     19  C   UNL     1       0.740  -0.476  22.738  0.00  0.00    +0.018 A 
ATOM     20  C   UNL     1       1.021   1.528  23.989  0.00  0.00    +0.126 A 
ATOM     21  C   UNL     1       2.016  -0.292  22.215  0.00  0.00    +0.068 A 
ATOM     22  C   UNL     1       2.730   0.822  22.625  0.00  0.00    +0.215 A 
BRANCH  22   2
ATOM      2  O   UNL     1       3.989   1.025  22.124  0.00  0.00    -0.474 OA
BRANCH   2  23
ATOM     23  C   UNL     1       4.989   0.088  22.505  0.00  0.00    +0.258 C 
BRANCH  23  24
ATOM     24  C   UNL     1       5.462   0.411  23.909  0.00  0.00    +0.200 C 
BRANCH  24   3
ATOM      3  O   UNL     1       5.494  -0.787  24.675  0.00  0.00    -0.380 OA
ATOM     25  C   UNL     1       4.780  -1.834  24.035  0.00  0.00    +0.194 C 
ENDBRANCH  24   3
ENDBRANCH  23  24
ENDBRANCH   2  23
ENDBRANCH  22   2
ENDBRANCH  17  18
BRANCH  14   8
ATOM      4  N   UNL     1      -4.352   2.765  25.317  0.00  0.00    -0.291 NA
ATOM      8  C   UNL     1      -4.126   1.364  25.725  0.00  0.00    +0.146 C 
ATOM      9  C   UNL     1      -5.423   0.629  25.336  0.00  0.00    +0.030 C 
ATOM     10  C   UNL     1      -5.797   2.987  25.383  0.00  0.00    +0.085 C 
ATOM     11  C   UNL     1      -6.338   1.708  24.776  0.00  0.00    +0.017 C 
BRANCH   4  12
ATOM     12  C   UNL     1      -3.612   3.725  26.126  0.00  0.00    +0.088 C 
BRANCH  12  13
ATOM     13  C   UNL     1      -2.786   4.701  25.271  0.00  0.00    -0.003 C 
ATOM     15  C   UNL     1      -1.295   4.409  25.449  0.00  0.00    +0.008 C 
ATOM     16  C   UNL     1      -3.151   4.631  23.785  0.00  0.00    +0.008 C 
ENDBRANCH  12  13
ENDBRANCH   4  12
ENDBRANCH  14   8
TORSDOF 8
ENDMDL
MODEL 2
REMARK VINA RESULT:      -2.7      1.523      2.822
REMARK  Name = 45783555
REMARK  11 active torsions:
REMARK  status: ('A' for Active; 'I' for Inactive)
REMARK    1  A    between atoms: O_2  and  C_22
REMARK    2  A    between atoms: O_2  and  C_23
REMARK    3  A    between atoms: O_3  and  C_24
REMARK    4  A    between atoms: O_3  and  C_25
REMARK    5  A    between atoms: N_4  and  C_12
REMARK    6  A    between atoms: C_8  and  C_14
REMARK    7  A    between atoms: C_12  and  C_13
REMARK    8  A    between atoms: C_13  and  C_15
REMARK    9  A    between atoms: C_13  and  C_16
REMARK   10  A    between atoms: C_17  and  C_18
REMARK   11  A    between atoms: C_23  and  C_24
REMARK                            x       y       z     vdW  Elec       q    Type
REMARK                         _______ _______ _______ _____ _____    ______ ____
ROOT
ATOM      1  O   UNL     1      -2.109   2.670  25.496  0.00  0.00    -0.336 OA
ATOM      5  N   UNL     1      -1.870   1.476  23.617  0.00  0.00    -0.190 NA
ATOM      6  N   UNL     1      -0.733   2.458  25.342  0.00  0.00    -0.056 NA
ATOM     14  C   UNL     1      -2.705   2.060  24.439  0.00  0.00    +0.245 A 
ATOM     17  C   UNL     1      -0.673   1.747  24.212  0.00  0.00    +0.204 A 
ENDROOT
BRANCH  17  18
ATOM      7  N   UNL     1       2.896   1.722  23.166  0.00  0.00    -0.221 NA
ATOM     18  C   UNL     1       0.568   1.291  23.652  0.00  0.00    +0.041 A 
ATOM     19  C   UNL     1       0.669   0.034  23.067  0.00  0.00    +0.018 A 
ATOM     20  C   UNL     1       1.699   2.090  23.676  0.00  0.00    +0.126 A 
ATOM     21  C   UNL     1       1.884  -0.380  22.531  0.00  0.00    +0.068 A 
ATOM     22  C   UNL     1       2.957   0.493  22.605  0.00  0.00    +0.215 A 
BRANCH  22   2
ATOM      2  O   UNL     1       4.164   0.108  22.084  0.00  0.00    -0.474 OA
BRANCH   2  23
ATOM     23  C   UNL     1       5.327   0.502  22.803  0.00  0.00    +0.258 C 
BRANCH  23  24
ATOM     24  C   UNL     1       5.144   0.157  24.268  0.00  0.00    +0.200 C 
BRANCH  24   3
ATOM      3  O   UNL     1       5.608  -1.168  24.495  0.00  0.00    -0.380 OA
ATOM     25  C   UNL     1       4.710  -2.133  23.964  0.00  0.00    +0.194 C 
ENDBRANCH  24   3
ENDBRANCH  23  24
ENDBRANCH   2  23
ENDBRANCH  22   2
ENDBRANCH  17  18
BRANCH  14   8
ATOM      4  N   UNL     1      -4.880   1.068  25.132  0.00  0.00    -0.291 NA
ATOM      8  C   UNL     1      -4.215   2.146  24.373  0.00  0.00    +0.146 C 
ATOM      9  C   UNL     1      -4.763   3.449  24.985  0.00  0.00    +0.030 C 
ATOM     10  C   UNL     1      -6.161   1.609  25.585  0.00  0.00    +0.085 C 
ATOM     11  C   UNL     1      -5.771   3.003  26.034  0.00  0.00    +0.017 C 
BRANCH   4  12
ATOM     12  C   UNL     1      -5.044  -0.159  24.363  0.00  0.00    +0.088 C 
BRANCH  12  13
ATOM     13  C   UNL     1      -3.839  -1.106  24.503  0.00  0.00    -0.003 C 
ATOM     15  C   UNL     1      -3.441  -1.221  25.976  0.00  0.00    +0.008 C 
ATOM     16  C   UNL     1      -4.119  -2.499  23.934  0.00  0.00    +0.008 C 
ENDBRANCH  12  13
ENDBRANCH   4  12
ENDBRANCH  14   8
TORSDOF 8
ENDMDL
