MODEL 1
REMARK VINA RESULT:       2.2      0.000      0.000
REMARK  Name = 7143176
REMARK  7 active torsions:
REMARK  status: ('A' for Active; 'I' for Inactive)
REMARK    1  A    between atoms: S_1  and  N_7
REMARK    2  A    between atoms: S_1  and  C_21
REMARK    3  A    between atoms: O_5  and  C_27
REMARK    4  A    between atoms: O_5  and  C_30
REMARK    5  A    between atoms: N_9  and  C_19
REMARK    6  A    between atoms: C_26  and  C_28
REMARK    7  A    between atoms: C_28  and  C_29
REMARK                            x       y       z     vdW  Elec       q    Type
REMARK                         _______ _______ _______ _____ _____    ______ ____
ROOT
ATOM      4  O   UNL     1       0.317   1.622  25.993  0.00  0.00    -0.266 OA
ATOM      7  N   UNL     1      -4.469   2.847  25.345  0.00  0.00    -0.176 NA
ATOM      8  N   UNL     1      -1.335   2.896  24.939  0.00  0.00    -0.310 N 
ATOM     10  C   UNL     1      -2.841   4.535  26.204  0.00  0.00    +0.025 C 
ATOM     11  C   UNL     1      -3.126   4.238  23.782  0.00  0.00    +0.052 C 
ATOM     12  C   UNL     1      -2.906   5.279  24.877  0.00  0.00    +0.017 C 
ATOM     13  C   UNL     1      -4.156   3.780  26.465  0.00  0.00    +0.114 C 
ATOM     14  C   UNL     1      -4.469   3.523  24.013  0.00  0.00    +0.119 C 
ATOM     15  C   UNL     1      -1.623   3.603  26.194  0.00  0.00    +0.130 C 
ATOM     16  C   UNL     1      -1.989   3.233  23.750  0.00  0.00    +0.026 A 
ATOM     17  C   UNL     1      -1.629   2.653  22.593  0.00  0.00    +0.024 A 
ATOM     18  C   UNL     1      -0.299   1.940  24.975  0.00  0.00    +0.273 A 
ATOM     19  C   UNL     1       0.056   1.300  23.667  0.00  0.00    +0.099 A 
ATOM     20  C   UNL     1      -0.587   1.667  22.554  0.00  0.00    +0.030 A 
ENDROOT
BRANCH  19   9
ATOM      6  O   UNL     1       0.886  -0.276  21.428  0.00  0.00    -0.275 OA
ATOM      9  N   UNL     1       1.044   0.361  23.663  0.00  0.00    -0.281 N 
ATOM     26  C   UNL     1       1.402  -0.375  22.539  0.00  0.00    +0.222 C 
ATOM     36  H   UNL     1       1.365   0.039  24.572  0.00  0.00    +0.155 HD
BRANCH  26  28
ATOM     28  C   UNL     1       2.533  -1.338  22.849  0.00  0.00    +0.131 C 
BRANCH  28  29
ATOM     29  C   UNL     1       3.805  -0.649  23.268  0.00  0.00    -0.039 A 
ATOM     31  C   UNL     1       4.011   0.679  22.917  0.00  0.00    +0.004 A 
ATOM     32  C   UNL     1       4.754  -1.350  23.998  0.00  0.00    +0.004 A 
ATOM     33  C   UNL     1       5.189   1.316  23.305  0.00  0.00    +0.000 A 
ATOM     34  C   UNL     1       5.932  -0.713  24.387  0.00  0.00    +0.000 A 
ATOM     35  C   UNL     1       6.149   0.621  24.039  0.00  0.00    +0.000 A 
ENDBRANCH  28  29
ENDBRANCH  26  28
ENDBRANCH  19   9
BRANCH   7   1
ATOM      1  S   UNL     1      -5.765   1.764  25.625  0.00  0.00    +0.061 S 
ATOM      2  O   UNL     1      -6.770   1.953  24.602  0.00  0.00    -0.153 OA
ATOM      3  O   UNL     1      -6.115   1.804  27.030  0.00  0.00    -0.153 OA
BRANCH   1  21
ATOM     21  C   UNL     1      -4.956   0.227  25.311  0.00  0.00    +0.106 A 
ATOM     22  C   UNL     1      -5.183  -0.425  24.109  0.00  0.00    +0.032 A 
ATOM     23  C   UNL     1      -4.108  -0.303  26.269  0.00  0.00    +0.032 A 
ATOM     24  C   UNL     1      -4.544  -1.640  23.860  0.00  0.00    +0.047 A 
ATOM     25  C   UNL     1      -3.469  -1.517  26.020  0.00  0.00    +0.047 A 
ATOM     27  C   UNL     1      -3.687  -2.186  24.816  0.00  0.00    +0.120 A 
BRANCH  27   5
ATOM      5  O   UNL     1      -3.063  -3.371  24.572  0.00  0.00    -0.495 OA
ATOM     30  C   UNL     1      -1.751  -3.312  24.016  0.00  0.00    +0.277 C 
ENDBRANCH  27   5
ENDBRANCH   1  21
ENDBRANCH   7   1
TORSDOF 6
ENDMDL
MODEL 2
REMARK VINA RESULT:       5.7      1.670      4.618
REMARK  Name = 7143176
REMARK  7 active torsions:
REMARK  status: ('A' for Active; 'I' for Inactive)
REMARK    1  A    between atoms: S_1  and  N_7
REMARK    2  A    between atoms: S_1  and  C_21
REMARK    3  A    between atoms: O_5  and  C_27
REMARK    4  A    between atoms: O_5  and  C_30
REMARK    5  A    between atoms: N_9  and  C_19
REMARK    6  A    between atoms: C_26  and  C_28
REMARK    7  A    between atoms: C_28  and  C_29
REMARK                            x       y       z     vdW  Elec       q    Type
REMARK                         _______ _______ _______ _____ _____    ______ ____
ROOT
ATOM      4  O   UNL     1      -0.768  -0.663  22.057  0.00  0.00    -0.266 OA
ATOM      7  N   UNL     1      -4.637   0.125  25.095  0.00  0.00    -0.176 NA
ATOM      8  N   UNL     1      -2.045  -1.253  23.923  0.00  0.00    -0.310 N 
ATOM     10  C   UNL     1      -4.495  -1.977  23.755  0.00  0.00    +0.025 C 
ATOM     11  C   UNL     1      -3.408  -1.859  25.954  0.00  0.00    +0.052 C 
ATOM     12  C   UNL     1      -4.201  -2.771  25.020  0.00  0.00    +0.017 C 
ATOM     13  C   UNL     1      -5.326  -0.724  24.082  0.00  0.00    +0.114 C 
ATOM     14  C   UNL     1      -4.262  -0.634  26.326  0.00  0.00    +0.119 C 
ATOM     15  C   UNL     1      -3.171  -1.636  23.060  0.00  0.00    +0.130 C 
ATOM     16  C   UNL     1      -2.106  -1.420  25.310  0.00  0.00    +0.026 A 
ATOM     17  C   UNL     1      -1.025  -1.172  26.068  0.00  0.00    +0.024 A 
ATOM     18  C   UNL     1      -0.874  -0.810  23.276  0.00  0.00    +0.273 A 
ATOM     19  C   UNL     1       0.301  -0.521  24.159  0.00  0.00    +0.099 A 
ATOM     20  C   UNL     1       0.201  -0.712  25.479  0.00  0.00    +0.030 A 
ENDROOT
BRANCH  19   9
ATOM      6  O   UNL     1       1.159   2.201  23.954  0.00  0.00    -0.275 OA
ATOM      9  N   UNL     1       1.449  -0.078  23.572  0.00  0.00    -0.281 N 
ATOM     26  C   UNL     1       1.812   1.262  23.503  0.00  0.00    +0.222 C 
ATOM     36  H   UNL     1       1.933  -0.739  22.970  0.00  0.00    +0.155 HD
BRANCH  26  28
ATOM     28  C   UNL     1       3.140   1.437  22.792  0.00  0.00    +0.131 C 
BRANCH  28  29
ATOM     29  C   UNL     1       4.198   0.471  23.256  0.00  0.00    -0.039 A 
ATOM     31  C   UNL     1       3.875  -0.870  23.416  0.00  0.00    +0.004 A 
ATOM     32  C   UNL     1       5.480   0.934  23.518  0.00  0.00    +0.004 A 
ATOM     33  C   UNL     1       4.855  -1.765  23.845  0.00  0.00    +0.000 A 
ATOM     34  C   UNL     1       6.460   0.039  23.947  0.00  0.00    +0.000 A 
ATOM     35  C   UNL     1       6.147  -1.311  24.111  0.00  0.00    +0.000 A 
ENDBRANCH  28  29
ENDBRANCH  26  28
ENDBRANCH  19   9
BRANCH   7   1
ATOM      1  S   UNL     1      -5.329   1.668  25.360  0.00  0.00    +0.061 S 
ATOM      2  O   UNL     1      -5.796   1.750  26.727  0.00  0.00    -0.153 OA
ATOM      3  O   UNL     1      -6.205   1.987  24.252  0.00  0.00    -0.153 OA
BRANCH   1  21
ATOM     21  C   UNL     1      -3.889   2.680  25.220  0.00  0.00    +0.106 A 
ATOM     22  C   UNL     1      -2.856   2.279  24.387  0.00  0.00    +0.032 A 
ATOM     23  C   UNL     1      -3.814   3.859  25.945  0.00  0.00    +0.032 A 
ATOM     24  C   UNL     1      -1.719   3.078  24.277  0.00  0.00    +0.047 A 
ATOM     25  C   UNL     1      -2.677   4.658  25.835  0.00  0.00    +0.047 A 
ATOM     27  C   UNL     1      -1.628   4.267  25.001  0.00  0.00    +0.120 A 
BRANCH  27   5
ATOM      5  O   UNL     1      -0.519   5.047  24.892  0.00  0.00    -0.495 OA
ATOM     30  C   UNL     1       0.067   5.168  23.597  0.00  0.00    +0.277 C 
ENDBRANCH  27   5
ENDBRANCH   1  21
ENDBRANCH   7   1
TORSDOF 6
ENDMDL
