MODEL 1
REMARK VINA RESULT:      -3.0      0.000      0.000
REMARK  Name = 28991009
REMARK  5 active torsions:
REMARK  status: ('A' for Active; 'I' for Inactive)
REMARK    1  A    between atoms: N_4  and  C_14
REMARK    2  A    between atoms: N_5  and  C_15
REMARK    3  A    between atoms: N_6  and  C_21
REMARK    4  A    between atoms: C_8  and  C_14
REMARK    5  A    between atoms: C_9  and  C_15
REMARK                            x       y       z     vdW  Elec       q    Type
REMARK                         _______ _______ _______ _____ _____    ______ ____
ROOT
ATOM      3  N   UNL     1      -5.018  -8.908  11.582  0.00  0.00    -0.298 NA
ATOM      7  C   UNL     1      -4.283  -9.663   9.203  0.00  0.00    -0.003 C 
ATOM      8  C   UNL     1      -5.164  -8.394   9.133  0.00  0.00    +0.020 C 
ATOM      9  C   UNL     1      -5.347 -10.345  11.380  0.00  0.00    +0.074 C 
ATOM     10  C   UNL     1      -5.058 -10.781   9.926  0.00  0.00    +0.024 C 
ATOM     11  C   UNL     1      -5.687  -8.078  10.552  0.00  0.00    +0.089 C 
ATOM     12  C   UNL     1      -3.065  -9.314  10.079  0.00  0.00    +0.019 C 
ATOM     13  C   UNL     1      -3.552  -8.748  11.425  0.00  0.00    +0.085 C 
ENDROOT
BRANCH   8  14
ATOM     14  C   UNL     1      -6.305  -8.509   8.124  0.00  0.00    +0.089 C 
BRANCH  14   4
ATOM      1  O   UNL     1     -10.427  -8.001   8.729  0.00  0.00    -0.377 OA
ATOM      4  N   UNL     1      -7.599  -8.319   8.777  0.00  0.00    -0.298 NA
ATOM     16  C   UNL     1      -8.494  -9.450   8.499  0.00  0.00    +0.112 C 
ATOM     17  C   UNL     1      -8.223  -7.063   8.340  0.00  0.00    +0.112 C 
ATOM     18  C   UNL     1      -9.842  -9.224   9.179  0.00  0.00    +0.175 C 
ATOM     19  C   UNL     1      -9.577  -6.892   9.026  0.00  0.00    +0.175 C 
ENDBRANCH  14   4
ENDBRANCH   8  14
BRANCH   9  15
ATOM     15  C   UNL     1      -6.779 -10.682  11.801  0.00  0.00    +0.124 C 
BRANCH  15   5
ATOM      2  O   UNL     1      -9.044  -9.710  13.260  0.00  0.00    -0.253 OA
ATOM      5  N   UNL     1      -6.920 -10.621  13.246  0.00  0.00    -0.298 N 
ATOM      6  N   UNL     1      -7.914 -10.194  15.260  0.00  0.00    -0.269 N 
ATOM     20  C   UNL     1      -8.064 -10.131  13.872  0.00  0.00    +0.304 C 
ATOM     27  H   UNL     1      -6.148 -10.947  13.819  0.00  0.00    +0.150 HD
ATOM     28  H   UNL     1      -7.036 -10.570  15.607  0.00  0.00    +0.156 HD
BRANCH   6  21
ATOM     21  C   UNL     1      -8.841  -9.798  16.252  0.00  0.00    +0.035 A 
ATOM     22  C   UNL     1      -9.158  -8.448  16.410  0.00  0.00    +0.023 A 
ATOM     23  C   UNL     1      -9.439 -10.755  17.072  0.00  0.00    +0.023 A 
ATOM     24  C   UNL     1     -10.072  -8.056  17.389  0.00  0.00    +0.002 A 
ATOM     25  C   UNL     1     -10.352 -10.362  18.050  0.00  0.00    +0.002 A 
ATOM     26  C   UNL     1     -10.669  -9.014  18.208  0.00  0.00    +0.000 A 
ENDBRANCH   6  21
ENDBRANCH  15   5
ENDBRANCH   9  15
TORSDOF 5
ENDMDL
MODEL 2
REMARK VINA RESULT:      -3.0     15.049     18.208
REMARK  Name = 28991009
REMARK  5 active torsions:
REMARK  status: ('A' for Active; 'I' for Inactive)
REMARK    1  A    between atoms: N_4  and  C_14
REMARK    2  A    between atoms: N_5  and  C_15
REMARK    3  A    between atoms: N_6  and  C_21
REMARK    4  A    between atoms: C_8  and  C_14
REMARK    5  A    between atoms: C_9  and  C_15
REMARK                            x       y       z     vdW  Elec       q    Type
REMARK                         _______ _______ _______ _____ _____    ______ ____
ROOT
ATOM      3  N   UNL     1      -1.761   2.705  24.662  0.00  0.00    -0.298 NA
ATOM      7  C   UNL     1      -4.307   3.043  24.246  0.00  0.00    -0.003 C 
ATOM      8  C   UNL     1      -4.063   2.126  25.468  0.00  0.00    +0.020 C 
ATOM      9  C   UNL     1      -2.091   2.389  23.246  0.00  0.00    +0.074 C 
ATOM     10  C   UNL     1      -3.618   2.437  23.009  0.00  0.00    +0.024 C 
ATOM     11  C   UNL     1      -2.548   1.845  25.578  0.00  0.00    +0.089 C 
ATOM     12  C   UNL     1      -3.607   4.383  24.546  0.00  0.00    +0.019 C 
ATOM     13  C   UNL     1      -2.138   4.117  24.915  0.00  0.00    +0.085 C 
ENDROOT
BRANCH   8  14
ATOM     14  C   UNL     1      -4.874   0.833  25.421  0.00  0.00    +0.089 C 
BRANCH  14   4
ATOM      1  O   UNL     1      -3.480  -3.062  24.711  0.00  0.00    -0.377 OA
ATOM      4  N   UNL     1      -4.047  -0.285  24.968  0.00  0.00    -0.298 NA
ATOM     16  C   UNL     1      -4.790  -1.136  24.029  0.00  0.00    +0.112 C 
ATOM     17  C   UNL     1      -3.579  -1.082  26.110  0.00  0.00    +0.112 C 
ATOM     18  C   UNL     1      -3.913  -2.302  23.581  0.00  0.00    +0.175 C 
ATOM     19  C   UNL     1      -2.729  -2.248  25.613  0.00  0.00    +0.175 C 
ENDBRANCH  14   4
ENDBRANCH   8  14
BRANCH   9  15
ATOM     15  C   UNL     1      -1.486   1.060  22.787  0.00  0.00    +0.124 C 
BRANCH  15   5
ATOM      2  O   UNL     1       0.591  -0.530  23.952  0.00  0.00    -0.253 OA
ATOM      5  N   UNL     1      -0.057   1.196  22.560  0.00  0.00    -0.298 N 
ATOM      6  N   UNL     1       2.173   0.736  22.767  0.00  0.00    -0.269 N 
ATOM     20  C   UNL     1       0.886   0.373  23.172  0.00  0.00    +0.304 C 
ATOM     27  H   UNL     1       0.263   1.926  21.930  0.00  0.00    +0.150 HD
ATOM     28  H   UNL     1       2.244   1.511  22.113  0.00  0.00    +0.156 HD
BRANCH   6  21
ATOM     21  C   UNL     1       3.402   0.153  23.155  0.00  0.00    +0.035 A 
ATOM     22  C   UNL     1       3.444  -1.184  23.553  0.00  0.00    +0.023 A 
ATOM     23  C   UNL     1       4.571   0.913  23.139  0.00  0.00    +0.023 A 
ATOM     24  C   UNL     1       4.655  -1.760  23.937  0.00  0.00    +0.002 A 
ATOM     25  C   UNL     1       5.782   0.336  23.523  0.00  0.00    +0.002 A 
ATOM     26  C   UNL     1       5.824  -0.999  23.920  0.00  0.00    +0.000 A 
ENDBRANCH   6  21
ENDBRANCH  15   5
ENDBRANCH   9  15
TORSDOF 5
ENDMDL
MODEL 3
REMARK VINA RESULT:      -2.5     15.077     18.290
REMARK  Name = 28991009
REMARK  5 active torsions:
REMARK  status: ('A' for Active; 'I' for Inactive)
REMARK    1  A    between atoms: N_4  and  C_14
REMARK    2  A    between atoms: N_5  and  C_15
REMARK    3  A    between atoms: N_6  and  C_21
REMARK    4  A    between atoms: C_8  and  C_14
REMARK    5  A    between atoms: C_9  and  C_15
REMARK                            x       y       z     vdW  Elec       q    Type
REMARK                         _______ _______ _______ _____ _____    ______ ____
ROOT
ATOM      3  N   UNL     1      -3.922   3.073  26.279  0.00  0.00    -0.298 NA
ATOM      7  C   UNL     1      -4.616   2.654  23.807  0.00  0.00    -0.003 C 
ATOM      8  C   UNL     1      -3.960   1.394  24.418  0.00  0.00    +0.020 C 
ATOM      9  C   UNL     1      -3.369   4.144  25.406  0.00  0.00    +0.074 C 
ATOM     10  C   UNL     1      -3.639   3.840  23.916  0.00  0.00    +0.024 C 
ATOM     11  C   UNL     1      -3.441   1.745  25.830  0.00  0.00    +0.089 C 
ATOM     12  C   UNL     1      -5.840   2.990  24.681  0.00  0.00    +0.019 C 
ATOM     13  C   UNL     1      -5.399   3.097  26.151  0.00  0.00    +0.085 C 
ENDROOT
BRANCH   8  14
ATOM     14  C   UNL     1      -2.857   0.804  23.542  0.00  0.00    +0.089 C 
BRANCH  14   4
ATOM      1  O   UNL     1      -3.223  -3.094  25.055  0.00  0.00    -0.377 OA
ATOM      4  N   UNL     1      -2.836  -0.654  23.641  0.00  0.00    -0.298 NA
ATOM     16  C   UNL     1      -4.181  -1.178  23.915  0.00  0.00    +0.112 C 
ATOM     17  C   UNL     1      -1.902  -1.092  24.687  0.00  0.00    +0.112 C 
ATOM     18  C   UNL     1      -4.133  -2.699  24.027  0.00  0.00    +0.175 C 
ATOM     19  C   UNL     1      -1.906  -2.616  24.779  0.00  0.00    +0.175 C 
ENDBRANCH  14   4
ENDBRANCH   8  14
BRANCH   9  15
ATOM     15  C   UNL     1      -1.885   4.407  25.672  0.00  0.00    +0.124 C 
BRANCH  15   5
ATOM      2  O   UNL     1      -0.154   3.766  23.483  0.00  0.00    -0.253 OA
ATOM      5  N   UNL     1      -1.108   3.190  25.507  0.00  0.00    -0.298 N 
ATOM      6  N   UNL     1       0.331   1.714  24.517  0.00  0.00    -0.269 N 
ATOM     20  C   UNL     1      -0.288   2.962  24.403  0.00  0.00    +0.304 C 
ATOM     27  H   UNL     1      -1.172   2.477  26.227  0.00  0.00    +0.150 HD
ATOM     28  H   UNL     1       0.110   1.169  25.346  0.00  0.00    +0.156 HD
BRANCH   6  21
ATOM     21  C   UNL     1       1.235   1.109  23.613  0.00  0.00    +0.035 A 
ATOM     22  C   UNL     1       0.790   0.110  22.747  0.00  0.00    +0.023 A 
ATOM     23  C   UNL     1       2.570   1.511  23.587  0.00  0.00    +0.023 A 
ATOM     24  C   UNL     1       1.681  -0.489  21.856  0.00  0.00    +0.002 A 
ATOM     25  C   UNL     1       3.461   0.913  22.696  0.00  0.00    +0.002 A 
ATOM     26  C   UNL     1       3.017  -0.086  21.830  0.00  0.00    +0.000 A 
ENDBRANCH   6  21
ENDBRANCH  15   5
ENDBRANCH   9  15
TORSDOF 5
ENDMDL
MODEL 4
REMARK VINA RESULT:      -1.8     15.616     18.384
REMARK  Name = 28991009
REMARK  5 active torsions:
REMARK  status: ('A' for Active; 'I' for Inactive)
REMARK    1  A    between atoms: N_4  and  C_14
REMARK    2  A    between atoms: N_5  and  C_15
REMARK    3  A    between atoms: N_6  and  C_21
REMARK    4  A    between atoms: C_8  and  C_14
REMARK    5  A    between atoms: C_9  and  C_15
REMARK                            x       y       z     vdW  Elec       q    Type
REMARK                         _______ _______ _______ _____ _____    ______ ____
ROOT
ATOM      3  N   UNL     1      -3.205  -1.505  23.825  0.00  0.00    -0.298 NA
ATOM      7  C   UNL     1      -3.608  -0.276  26.082  0.00  0.00    -0.003 C 
ATOM      8  C   UNL     1      -4.760   0.001  25.089  0.00  0.00    +0.020 C 
ATOM      9  C   UNL     1      -2.006  -0.702  24.188  0.00  0.00    +0.074 C 
ATOM     10  C   UNL     1      -2.273   0.154  25.446  0.00  0.00    +0.024 C 
ATOM     11  C   UNL     1      -4.398  -0.631  23.726  0.00  0.00    +0.089 C 
ATOM     12  C   UNL     1      -3.546  -1.803  26.281  0.00  0.00    +0.019 C 
ATOM     13  C   UNL     1      -3.442  -2.490  24.908  0.00  0.00    +0.085 C 
ENDROOT
BRANCH   8  14
ATOM     14  C   UNL     1      -5.092   1.485  24.952  0.00  0.00    +0.089 C 
BRANCH  14   4
ATOM      1  O   UNL     1      -2.479   4.769  24.982  0.00  0.00    -0.377 OA
ATOM      4  N   UNL     1      -3.896   2.306  25.134  0.00  0.00    -0.298 NA
ATOM     16  C   UNL     1      -4.153   3.399  26.081  0.00  0.00    +0.112 C 
ATOM     17  C   UNL     1      -3.436   2.849  23.849  0.00  0.00    +0.112 C 
ATOM     18  C   UNL     1      -2.897   4.249  26.245  0.00  0.00    +0.175 C 
ATOM     19  C   UNL     1      -2.195   3.711  24.066  0.00  0.00    +0.175 C 
ENDBRANCH  14   4
ENDBRANCH   8  14
BRANCH   9  15
ATOM     15  C   UNL     1      -1.495   0.146  23.021  0.00  0.00    +0.124 C 
BRANCH  15   5
ATOM      2  O   UNL     1       0.954   0.806  24.351  0.00  0.00    -0.253 OA
ATOM      5  N   UNL     1      -0.156  -0.267  22.632  0.00  0.00    -0.298 N 
ATOM      6  N   UNL     1       2.121  -0.437  22.737  0.00  0.00    -0.269 N 
ATOM     20  C   UNL     1       0.984   0.104  23.343  0.00  0.00    +0.304 C 
ATOM     27  H   UNL     1      -0.053  -0.845  21.804  0.00  0.00    +0.150 HD
ATOM     28  H   UNL     1       1.971  -0.998  21.903  0.00  0.00    +0.156 HD
BRANCH   6  21
ATOM     21  C   UNL     1       3.469  -0.300  23.144  0.00  0.00    +0.035 A 
ATOM     22  C   UNL     1       4.124  -1.369  23.757  0.00  0.00    +0.023 A 
ATOM     23  C   UNL     1       4.144   0.902  22.932  0.00  0.00    +0.023 A 
ATOM     24  C   UNL     1       5.453  -1.235  24.160  0.00  0.00    +0.002 A 
ATOM     25  C   UNL     1       5.472   1.036  23.335  0.00  0.00    +0.002 A 
ATOM     26  C   UNL     1       6.127  -0.032  23.947  0.00  0.00    +0.000 A 
ENDBRANCH   6  21
ENDBRANCH  15   5
ENDBRANCH   9  15
TORSDOF 5
ENDMDL
MODEL 5
REMARK VINA RESULT:      -1.7     15.033     18.024
REMARK  Name = 28991009
REMARK  5 active torsions:
REMARK  status: ('A' for Active; 'I' for Inactive)
REMARK    1  A    between atoms: N_4  and  C_14
REMARK    2  A    between atoms: N_5  and  C_15
REMARK    3  A    between atoms: N_6  and  C_21
REMARK    4  A    between atoms: C_8  and  C_14
REMARK    5  A    between atoms: C_9  and  C_15
REMARK                            x       y       z     vdW  Elec       q    Type
REMARK                         _______ _______ _______ _____ _____    ______ ____
ROOT
ATOM      3  N   UNL     1      -3.546   4.563  24.012  0.00  0.00    -0.298 NA
ATOM      7  C   UNL     1      -1.704   4.300  25.831  0.00  0.00    -0.003 C 
ATOM      8  C   UNL     1      -1.618   3.161  24.789  0.00  0.00    +0.020 C 
ATOM      9  C   UNL     1      -4.158   4.612  25.367  0.00  0.00    +0.074 C 
ATOM     10  C   UNL     1      -3.109   4.310  26.461  0.00  0.00    +0.024 C 
ATOM     11  C   UNL     1      -2.817   3.286  23.822  0.00  0.00    +0.089 C 
ATOM     12  C   UNL     1      -1.542   5.625  25.060  0.00  0.00    +0.019 C 
ATOM     13  C   UNL     1      -2.566   5.673  23.913  0.00  0.00    +0.085 C 
ENDROOT
BRANCH   8  14
ATOM     14  C   UNL     1      -1.545   1.773  25.420  0.00  0.00    +0.089 C 
BRANCH  14   4
ATOM      1  O   UNL     1       1.205  -0.025  22.808  0.00  0.00    -0.377 OA
ATOM      4  N   UNL     1      -0.391   1.030  24.915  0.00  0.00    -0.298 NA
ATOM     16  C   UNL     1       0.468   1.895  24.096  0.00  0.00    +0.112 C 
ATOM     17  C   UNL     1      -0.825  -0.136  24.133  0.00  0.00    +0.112 C 
ATOM     18  C   UNL     1       1.657   1.096  23.569  0.00  0.00    +0.175 C 
ATOM     19  C   UNL     1       0.395  -0.888  23.607  0.00  0.00    +0.175 C 
ENDBRANCH  14   4
ENDBRANCH   8  14
BRANCH   9  15
ATOM     15  C   UNL     1      -5.384   3.703  25.488  0.00  0.00    +0.124 C 
BRANCH  15   5
ATOM      2  O   UNL     1      -4.789   1.456  23.815  0.00  0.00    -0.253 OA
ATOM      5  N   UNL     1      -4.997   2.373  25.926  0.00  0.00    -0.298 N 
ATOM      6  N   UNL     1      -4.383   0.178  25.743  0.00  0.00    -0.269 N 
ATOM     20  C   UNL     1      -4.726   1.335  25.037  0.00  0.00    +0.304 C 
ATOM     27  H   UNL     1      -4.929   2.196  26.924  0.00  0.00    +0.150 HD
ATOM     28  H   UNL     1      -4.379   0.247  26.757  0.00  0.00    +0.156 HD
BRANCH   6  21
ATOM     21  C   UNL     1      -4.037  -1.089  25.217  0.00  0.00    +0.035 A 
ATOM     22  C   UNL     1      -4.496  -1.468  23.955  0.00  0.00    +0.023 A 
ATOM     23  C   UNL     1      -3.236  -1.957  25.958  0.00  0.00    +0.023 A 
ATOM     24  C   UNL     1      -4.156  -2.717  23.435  0.00  0.00    +0.002 A 
ATOM     25  C   UNL     1      -2.897  -3.206  25.439  0.00  0.00    +0.002 A 
ATOM     26  C   UNL     1      -3.355  -3.586  24.177  0.00  0.00    +0.000 A 
ENDBRANCH   6  21
ENDBRANCH  15   5
ENDBRANCH   9  15
TORSDOF 5
ENDMDL
MODEL 6
REMARK VINA RESULT:       0.4     16.490     19.009
REMARK  Name = 28991009
REMARK  5 active torsions:
REMARK  status: ('A' for Active; 'I' for Inactive)
REMARK    1  A    between atoms: N_4  and  C_14
REMARK    2  A    between atoms: N_5  and  C_15
REMARK    3  A    between atoms: N_6  and  C_21
REMARK    4  A    between atoms: C_8  and  C_14
REMARK    5  A    between atoms: C_9  and  C_15
REMARK                            x       y       z     vdW  Elec       q    Type
REMARK                         _______ _______ _______ _____ _____    ______ ____
ROOT
ATOM      3  N   UNL     1      -0.648   3.345  24.817  0.00  0.00    -0.298 NA
ATOM      7  C   UNL     1      -2.833   4.757  24.814  0.00  0.00    -0.003 C 
ATOM      8  C   UNL     1      -2.612   4.084  26.188  0.00  0.00    +0.020 C 
ATOM      9  C   UNL     1      -1.500   2.961  23.660  0.00  0.00    +0.074 C 
ATOM     10  C   UNL     1      -2.869   3.676  23.717  0.00  0.00    +0.024 C 
ATOM     11  C   UNL     1      -1.386   3.149  26.087  0.00  0.00    +0.089 C 
ATOM     12  C   UNL     1      -1.599   5.639  24.544  0.00  0.00    +0.019 C 
ATOM     13  C   UNL     1      -0.325   4.787  24.688  0.00  0.00    +0.085 C 
ENDROOT
BRANCH   8  14
ATOM     14  C   UNL     1      -3.845   3.343  26.700  0.00  0.00    +0.089 C 
BRANCH  14   4
ATOM      1  O   UNL     1      -6.180   0.515  24.660  0.00  0.00    -0.377 OA
ATOM      4  N   UNL     1      -4.482   2.585  25.625  0.00  0.00    -0.298 NA
ATOM     16  C   UNL     1      -5.945   2.691  25.707  0.00  0.00    +0.112 C 
ATOM     17  C   UNL     1      -4.076   1.174  25.671  0.00  0.00    +0.112 C 
ATOM     18  C   UNL     1      -6.588   1.882  24.584  0.00  0.00    +0.175 C 
ATOM     19  C   UNL     1      -4.761   0.401  24.548  0.00  0.00    +0.175 C 
ENDBRANCH  14   4
ENDBRANCH   8  14
BRANCH   9  15
ATOM     15  C   UNL     1      -1.657   1.444  23.528  0.00  0.00    +0.124 C 
BRANCH  15   5
ATOM      2  O   UNL     1       0.925   1.268  24.754  0.00  0.00    -0.253 OA
ATOM      5  N   UNL     1      -0.461   0.850  22.953  0.00  0.00    -0.298 N 
ATOM      6  N   UNL     1       1.722   0.182  22.831  0.00  0.00    -0.269 N 
ATOM     20  C   UNL     1       0.759   0.809  23.626  0.00  0.00    +0.304 C 
ATOM     27  H   UNL     1      -0.521   0.454  22.020  0.00  0.00    +0.150 HD
ATOM     28  H   UNL     1       1.418  -0.142  21.916  0.00  0.00    +0.156 HD
BRANCH   6  21
ATOM     21  C   UNL     1       3.080  -0.061  23.143  0.00  0.00    +0.035 A 
ATOM     22  C   UNL     1       4.023   0.956  22.989  0.00  0.00    +0.023 A 
ATOM     23  C   UNL     1       3.477  -1.315  23.605  0.00  0.00    +0.023 A 
ATOM     24  C   UNL     1       5.363   0.718  23.296  0.00  0.00    +0.002 A 
ATOM     25  C   UNL     1       4.816  -1.554  23.912  0.00  0.00    +0.002 A 
ATOM     26  C   UNL     1       5.759  -0.538  23.758  0.00  0.00    +0.000 A 
ENDBRANCH   6  21
ENDBRANCH  15   5
ENDBRANCH   9  15
TORSDOF 5
ENDMDL
