MODEL 1
REMARK VINA RESULT:       3.6      0.000      0.000
REMARK  Name = 40777224
REMARK  6 active torsions:
REMARK  status: ('A' for Active; 'I' for Inactive)
REMARK    1  A    between atoms: N_5  and  C_15
REMARK    2  A    between atoms: N_6  and  C_16
REMARK    3  A    between atoms: N_7  and  C_22
REMARK    4  A    between atoms: C_9  and  C_15
REMARK    5  A    between atoms: C_10  and  C_16
REMARK    6  A    between atoms: C_21  and  C_23
REMARK                            x       y       z     vdW  Elec       q    Type
REMARK                         _______ _______ _______ _____ _____    ______ ____
ROOT
ATOM      4  N   UNL     1      -3.419   5.004  24.677  0.00  0.00    -0.298 NA
ATOM      8  C   UNL     1      -1.087   3.939  25.118  0.00  0.00    -0.003 C 
ATOM      9  C   UNL     1      -1.704   3.395  23.809  0.00  0.00    +0.020 C 
ATOM     10  C   UNL     1      -3.370   4.436  26.052  0.00  0.00    +0.074 C 
ATOM     11  C   UNL     1      -2.051   3.667  26.288  0.00  0.00    +0.024 C 
ATOM     12  C   UNL     1      -3.140   3.948  23.675  0.00  0.00    +0.089 C 
ATOM     13  C   UNL     1      -0.981   5.468  24.960  0.00  0.00    +0.019 C 
ATOM     14  C   UNL     1      -2.358   6.034  24.571  0.00  0.00    +0.085 C 
ENDROOT
BRANCH   9  15
ATOM     15  C   UNL     1      -1.677   1.871  23.719  0.00  0.00    +0.089 C 
BRANCH  15   5
ATOM      5  N   UNL     1      -0.362   1.438  23.247  0.00  0.00    -0.299 NA
ATOM      7  N   UNL     1       2.270   0.356  23.490  0.00  0.00    -0.327 N 
ATOM     17  C   UNL     1      -0.168   0.006  23.505  0.00  0.00    +0.103 C 
ATOM     18  C   UNL     1       0.701   2.212  23.900  0.00  0.00    +0.103 C 
ATOM     19  C   UNL     1       1.181  -0.473  22.965  0.00  0.00    +0.120 C 
ATOM     20  C   UNL     1       2.079   1.807  23.371  0.00  0.00    +0.120 C 
BRANCH   7  22
ATOM     22  C   UNL     1       3.580  -0.136  23.490  0.00  0.00    +0.030 A 
ATOM     24  C   UNL     1       4.643   0.712  23.174  0.00  0.00    +0.023 A 
ATOM     25  C   UNL     1       3.824  -1.471  23.807  0.00  0.00    +0.023 A 
ATOM     28  C   UNL     1       5.949   0.222  23.177  0.00  0.00    +0.002 A 
ATOM     29  C   UNL     1       5.131  -1.961  23.810  0.00  0.00    +0.002 A 
ATOM     30  C   UNL     1       6.193  -1.114  23.494  0.00  0.00    +0.000 A 
ENDBRANCH   7  22
ENDBRANCH  15   5
ENDBRANCH   9  15
BRANCH  10  16
ATOM     16  C   UNL     1      -4.595   3.575  26.373  0.00  0.00    +0.123 C 
BRANCH  16   6
ATOM      1  O   UNL     1      -5.527   1.892  24.241  0.00  0.00    -0.270 OA
ATOM      6  N   UNL     1      -4.258   2.159  26.160  0.00  0.00    -0.310 N 
ATOM     21  C   UNL     1      -4.767   1.453  25.100  0.00  0.00    +0.244 C 
ATOM     35  H   UNL     1      -3.688   1.715  26.872  0.00  0.00    +0.149 HD
BRANCH  21  23
ATOM      2  O   UNL     1      -4.534  -2.971  22.933  0.00  0.00    -0.453 OA
ATOM      3  O   UNL     1      -3.266  -3.920  24.749  0.00  0.00    -0.453 OA
ATOM     23  C   UNL     1      -4.352   0.027  25.040  0.00  0.00    +0.040 A 
ATOM     26  C   UNL     1      -4.698  -0.750  23.933  0.00  0.00    +0.062 A 
ATOM     27  C   UNL     1      -3.612  -0.527  26.099  0.00  0.00    +0.017 A 
ATOM     31  C   UNL     1      -4.290  -2.068  23.921  0.00  0.00    +0.167 A 
ATOM     32  C   UNL     1      -3.210  -1.864  26.064  0.00  0.00    +0.050 A 
ATOM     33  C   UNL     1      -3.565  -2.609  24.959  0.00  0.00    +0.166 A 
ATOM     34  C   UNL     1      -3.881  -4.142  23.465  0.00  0.00    +0.466 C 
ENDBRANCH  21  23
ENDBRANCH  16   6
ENDBRANCH  10  16
TORSDOF 6
ENDMDL
MODEL 2
REMARK VINA RESULT:       5.3      2.163      5.141
REMARK  Name = 40777224
REMARK  6 active torsions:
REMARK  status: ('A' for Active; 'I' for Inactive)
REMARK    1  A    between atoms: N_5  and  C_15
REMARK    2  A    between atoms: N_6  and  C_16
REMARK    3  A    between atoms: N_7  and  C_22
REMARK    4  A    between atoms: C_9  and  C_15
REMARK    5  A    between atoms: C_10  and  C_16
REMARK    6  A    between atoms: C_21  and  C_23
REMARK                            x       y       z     vdW  Elec       q    Type
REMARK                         _______ _______ _______ _____ _____    ______ ____
ROOT
ATOM      4  N   UNL     1      -3.666  -1.281  26.013  0.00  0.00    -0.298 NA
ATOM      8  C   UNL     1      -3.265  -1.808  23.497  0.00  0.00    -0.003 C 
ATOM      9  C   UNL     1      -2.170  -0.865  24.044  0.00  0.00    +0.020 C 
ATOM     10  C   UNL     1      -4.902  -1.004  25.231  0.00  0.00    +0.074 C 
ATOM     11  C   UNL     1      -4.648  -1.165  23.716  0.00  0.00    +0.024 C 
ATOM     12  C   UNL     1      -2.537  -0.472  25.493  0.00  0.00    +0.089 C 
ATOM     13  C   UNL     1      -3.218  -3.090  24.349  0.00  0.00    +0.019 C 
ATOM     14  C   UNL     1      -3.327  -2.714  25.838  0.00  0.00    +0.085 C 
ENDROOT
BRANCH   9  15
ATOM     15  C   UNL     1      -1.942   0.364  23.169  0.00  0.00    +0.089 C 
BRANCH  15   5
ATOM      5  N   UNL     1      -0.508   0.532  22.935  0.00  0.00    -0.299 NA
ATOM      7  N   UNL     1       2.274  -0.013  23.290  0.00  0.00    -0.327 N 
ATOM     17  C   UNL     1       0.078  -0.710  22.416  0.00  0.00    +0.103 C 
ATOM     18  C   UNL     1       0.173   0.927  24.174  0.00  0.00    +0.103 C 
ATOM     19  C   UNL     1       1.568  -0.531  22.114  0.00  0.00    +0.120 C 
ATOM     20  C   UNL     1       1.666   1.161  23.930  0.00  0.00    +0.120 C 
BRANCH   7  22
ATOM     22  C   UNL     1       3.659  -0.175  23.396  0.00  0.00    +0.030 A 
ATOM     24  C   UNL     1       4.510   0.894  23.110  0.00  0.00    +0.023 A 
ATOM     25  C   UNL     1       4.191  -1.403  23.788  0.00  0.00    +0.023 A 
ATOM     28  C   UNL     1       5.892   0.733  23.219  0.00  0.00    +0.002 A 
ATOM     29  C   UNL     1       5.572  -1.563  23.897  0.00  0.00    +0.002 A 
ATOM     30  C   UNL     1       6.423  -0.495  23.611  0.00  0.00    +0.000 A 
ENDBRANCH   7  22
ENDBRANCH  15   5
ENDBRANCH   9  15
BRANCH  10  16
ATOM     16  C   UNL     1      -5.510   0.361  25.563  0.00  0.00    +0.123 C 
BRANCH  16   6
ATOM      1  O   UNL     1      -5.781   3.155  26.169  0.00  0.00    -0.270 OA
ATOM      6  N   UNL     1      -4.479   1.399  25.403  0.00  0.00    -0.310 N 
ATOM     21  C   UNL     1      -4.726   2.709  25.728  0.00  0.00    +0.244 C 
ATOM     35  H   UNL     1      -3.605   1.110  24.979  0.00  0.00    +0.149 HD
BRANCH  21  23
ATOM      2  O   UNL     1      -0.356   3.895  23.775  0.00  0.00    -0.453 OA
ATOM      3  O   UNL     1      -0.399   6.106  24.734  0.00  0.00    -0.453 OA
ATOM     23  C   UNL     1      -3.591   3.638  25.485  0.00  0.00    +0.040 A 
ATOM     26  C   UNL     1      -2.512   3.224  24.702  0.00  0.00    +0.062 A 
ATOM     27  C   UNL     1      -3.616   4.928  26.044  0.00  0.00    +0.017 A 
ATOM     31  C   UNL     1      -1.483   4.121  24.503  0.00  0.00    +0.167 A 
ATOM     32  C   UNL     1      -2.562   5.818  25.827  0.00  0.00    +0.050 A 
ATOM     33  C   UNL     1      -1.508   5.383  25.051  0.00  0.00    +0.166 A 
ATOM     34  C   UNL     1       0.326   5.157  23.925  0.00  0.00    +0.466 C 
ENDBRANCH  21  23
ENDBRANCH  16   6
ENDBRANCH  10  16
TORSDOF 6
ENDMDL
MODEL 3
REMARK VINA RESULT:       7.1      3.429      5.342
REMARK  Name = 40777224
REMARK  6 active torsions:
REMARK  status: ('A' for Active; 'I' for Inactive)
REMARK    1  A    between atoms: N_5  and  C_15
REMARK    2  A    between atoms: N_6  and  C_16
REMARK    3  A    between atoms: N_7  and  C_22
REMARK    4  A    between atoms: C_9  and  C_15
REMARK    5  A    between atoms: C_10  and  C_16
REMARK    6  A    between atoms: C_21  and  C_23
REMARK                            x       y       z     vdW  Elec       q    Type
REMARK                         _______ _______ _______ _____ _____    ______ ____
ROOT
ATOM      4  N   UNL     1      -4.277   2.648  25.892  0.00  0.00    -0.298 NA
ATOM      8  C   UNL     1      -5.556   1.395  24.004  0.00  0.00    -0.003 C 
ATOM      9  C   UNL     1      -4.651   0.424  24.796  0.00  0.00    +0.020 C 
ATOM     10  C   UNL     1      -4.074   3.343  24.592  0.00  0.00    +0.074 C 
ATOM     11  C   UNL     1      -4.698   2.538  23.430  0.00  0.00    +0.024 C 
ATOM     12  C   UNL     1      -3.812   1.243  25.803  0.00  0.00    +0.089 C 
ATOM     13  C   UNL     1      -6.532   2.023  25.017  0.00  0.00    +0.019 C 
ATOM     14  C   UNL     1      -5.732   2.635  26.181  0.00  0.00    +0.085 C 
ENDROOT
BRANCH   9  15
ATOM     15  C   UNL     1      -3.768  -0.441  23.900  0.00  0.00    +0.089 C 
BRANCH  15   5
ATOM      5  N   UNL     1      -2.367  -0.069  24.097  0.00  0.00    -0.299 NA
ATOM      7  N   UNL     1       0.435  -0.075  23.543  0.00  0.00    -0.327 N 
ATOM     17  C   UNL     1      -1.844   0.612  22.906  0.00  0.00    +0.103 C 
ATOM     18  C   UNL     1      -1.556  -1.256  24.391  0.00  0.00    +0.103 C 
ATOM     19  C   UNL     1      -0.395   1.057  23.120  0.00  0.00    +0.120 C 
ATOM     20  C   UNL     1      -0.097  -0.873  24.655  0.00  0.00    +0.120 C 
BRANCH   7  22
ATOM     22  C   UNL     1       1.823  -0.017  23.382  0.00  0.00    +0.030 A 
ATOM     24  C   UNL     1       2.425   1.159  22.932  0.00  0.00    +0.023 A 
ATOM     25  C   UNL     1       2.607  -1.133  23.674  0.00  0.00    +0.023 A 
ATOM     28  C   UNL     1       3.810   1.217  22.775  0.00  0.00    +0.002 A 
ATOM     29  C   UNL     1       3.992  -1.074  23.517  0.00  0.00    +0.002 A 
ATOM     30  C   UNL     1       4.593   0.102  23.066  0.00  0.00    +0.000 A 
ENDBRANCH   7  22
ENDBRANCH  15   5
ENDBRANCH   9  15
BRANCH  10  16
ATOM     16  C   UNL     1      -2.602   3.672  24.329  0.00  0.00    +0.123 C 
BRANCH  16   6
ATOM      1  O   UNL     1       0.254   3.439  24.510  0.00  0.00    -0.270 OA
ATOM      6  N   UNL     1      -1.819   3.380  25.541  0.00  0.00    -0.310 N 
ATOM     21  C   UNL     1      -0.451   3.293  25.505  0.00  0.00    +0.244 C 
ATOM     35  H   UNL     1      -2.345   3.181  26.384  0.00  0.00    +0.149 HD
BRANCH  21  23
ATOM      2  O   UNL     1       3.457   2.661  28.446  0.00  0.00    -0.453 OA
ATOM      3  O   UNL     1       2.082   2.090  30.341  0.00  0.00    -0.453 OA
ATOM     23  C   UNL     1       0.189   2.966  26.806  0.00  0.00    +0.040 A 
ATOM     26  C   UNL     1       1.581   2.995  26.920  0.00  0.00    +0.062 A 
ATOM     27  C   UNL     1      -0.612   2.633  27.911  0.00  0.00    +0.017 A 
ATOM     31  C   UNL     1       2.130   2.687  28.148  0.00  0.00    +0.167 A 
ATOM     32  C   UNL     1      -0.032   2.325  29.144  0.00  0.00    +0.050 A 
ATOM     33  C   UNL     1       1.344   2.360  29.230  0.00  0.00    +0.166 A 
ATOM     34  C   UNL     1       3.419   2.284  29.837  0.00  0.00    +0.466 C 
ENDBRANCH  21  23
ENDBRANCH  16   6
ENDBRANCH  10  16
TORSDOF 6
ENDMDL
MODEL 4
REMARK VINA RESULT:       7.3      1.643      2.419
REMARK  Name = 40777224
REMARK  6 active torsions:
REMARK  status: ('A' for Active; 'I' for Inactive)
REMARK    1  A    between atoms: N_5  and  C_15
REMARK    2  A    between atoms: N_6  and  C_16
REMARK    3  A    between atoms: N_7  and  C_22
REMARK    4  A    between atoms: C_9  and  C_15
REMARK    5  A    between atoms: C_10  and  C_16
REMARK    6  A    between atoms: C_21  and  C_23
REMARK                            x       y       z     vdW  Elec       q    Type
REMARK                         _______ _______ _______ _____ _____    ______ ____
ROOT
ATOM      4  N   UNL     1      -2.825   3.280  26.421  0.00  0.00    -0.298 NA
ATOM      8  C   UNL     1      -2.175   4.646  24.305  0.00  0.00    -0.003 C 
ATOM      9  C   UNL     1      -2.987   3.389  23.921  0.00  0.00    +0.020 C 
ATOM     10  C   UNL     1      -1.360   3.544  26.416  0.00  0.00    +0.074 C 
ATOM     11  C   UNL     1      -0.924   4.224  25.099  0.00  0.00    +0.024 C 
ATOM     12  C   UNL     1      -3.219   2.545  25.194  0.00  0.00    +0.089 C 
ATOM     13  C   UNL     1      -3.059   5.477  25.256  0.00  0.00    +0.019 C 
ATOM     14  C   UNL     1      -3.526   4.587  26.421  0.00  0.00    +0.085 C 
ENDROOT
BRANCH   9  15
ATOM     15  C   UNL     1      -2.335   2.567  22.812  0.00  0.00    +0.089 C 
BRANCH  15   5
ATOM      5  N   UNL     1      -1.136   1.913  23.336  0.00  0.00    -0.299 NA
ATOM      7  N   UNL     1       1.516   0.856  23.230  0.00  0.00    -0.327 N 
ATOM     17  C   UNL     1       0.020   2.814  23.254  0.00  0.00    +0.103 C 
ATOM     18  C   UNL     1      -0.859   0.676  22.595  0.00  0.00    +0.103 C 
ATOM     19  C   UNL     1       1.269   2.161  23.852  0.00  0.00    +0.120 C 
ATOM     20  C   UNL     1       0.360  -0.048  23.172  0.00  0.00    +0.120 C 
BRANCH   7  22
ATOM     22  C   UNL     1       2.792   0.288  23.293  0.00  0.00    +0.030 A 
ATOM     24  C   UNL     1       3.915   1.057  22.984  0.00  0.00    +0.023 A 
ATOM     25  C   UNL     1       2.944  -1.048  23.665  0.00  0.00    +0.023 A 
ATOM     28  C   UNL     1       5.188   0.490  23.049  0.00  0.00    +0.002 A 
ATOM     29  C   UNL     1       4.218  -1.614  23.731  0.00  0.00    +0.002 A 
ATOM     30  C   UNL     1       5.339  -0.845  23.422  0.00  0.00    +0.000 A 
ENDBRANCH   7  22
ENDBRANCH  15   5
ENDBRANCH   9  15
BRANCH  10  16
ATOM     16  C   UNL     1      -0.538   2.286  26.705  0.00  0.00    +0.123 C 
BRANCH  16   6
ATOM      1  O   UNL     1      -0.581  -0.452  27.571  0.00  0.00    -0.270 OA
ATOM      6  N   UNL     1      -1.132   1.146  25.987  0.00  0.00    -0.310 N 
ATOM     21  C   UNL     1      -1.091  -0.124  26.503  0.00  0.00    +0.244 C 
ATOM     35  H   UNL     1      -1.510   1.337  25.066  0.00  0.00    +0.149 HD
BRANCH  21  23
ATOM      2  O   UNL     1      -4.843  -2.063  23.956  0.00  0.00    -0.453 OA
ATOM      3  O   UNL     1      -3.542  -3.973  23.274  0.00  0.00    -0.453 OA
ATOM     23  C   UNL     1      -1.711  -1.167  25.645  0.00  0.00    +0.040 A 
ATOM     26  C   UNL     1      -3.041  -1.031  25.240  0.00  0.00    +0.062 A 
ATOM     27  C   UNL     1      -0.953  -2.282  25.247  0.00  0.00    +0.017 A 
ATOM     31  C   UNL     1      -3.573  -2.024  24.443  0.00  0.00    +0.167 A 
ATOM     32  C   UNL     1      -1.514  -3.274  24.439  0.00  0.00    +0.050 A 
ATOM     33  C   UNL     1      -2.829  -3.115  24.054  0.00  0.00    +0.166 A 
ATOM     34  C   UNL     1      -4.815  -3.300  23.215  0.00  0.00    +0.466 C 
ENDBRANCH  21  23
ENDBRANCH  16   6
ENDBRANCH  10  16
TORSDOF 6
ENDMDL
