MODEL 1
REMARK VINA RESULT:      -4.2      0.000      0.000
REMARK  Name = 45783275
REMARK  7 active torsions:
REMARK  status: ('A' for Active; 'I' for Inactive)
REMARK    1  A    between atoms: O_2  and  C_21
REMARK    2  A    between atoms: O_2  and  C_22
REMARK    3  A    between atoms: N_3  and  C_13
REMARK    4  A    between atoms: N_6  and  C_19
REMARK    5  A    between atoms: C_8  and  C_12
REMARK    6  A    between atoms: C_14  and  C_15
REMARK    7  A    between atoms: C_19  and  C_21
REMARK                            x       y       z     vdW  Elec       q    Type
REMARK                         _______ _______ _______ _____ _____    ______ ____
ROOT
ATOM      6  N   UNL     1      -4.951   1.279  24.698  0.00  0.00    -0.327 N 
ATOM      7  N   UNL     1      -4.222  -0.975  24.953  0.00  0.00    -0.240 NA
ATOM     15  C   UNL     1      -1.607  -0.175  24.368  0.00  0.00    +0.027 A 
ATOM     16  C   UNL     1      -2.637   0.760  24.386  0.00  0.00    +0.055 A 
ATOM     17  C   UNL     1      -1.884  -1.510  24.642  0.00  0.00    +0.031 A 
ATOM     18  C   UNL     1      -3.914   0.313  24.682  0.00  0.00    +0.119 A 
ATOM     20  C   UNL     1      -3.196  -1.856  24.927  0.00  0.00    +0.113 A 
ATOM     23  H   UNL     1      -5.881   0.938  24.912  0.00  0.00    +0.148 HD
ENDROOT
BRANCH  15  14
ATOM      1  O   UNL     1       1.497   1.419  23.838  0.00  0.00    -0.336 OA
ATOM      4  N   UNL     1       0.649  -0.633  23.549  0.00  0.00    -0.190 NA
ATOM      5  N   UNL     1       0.165   1.483  24.268  0.00  0.00    -0.056 NA
ATOM     12  C   UNL     1       1.700   0.139  23.432  0.00  0.00    +0.245 A 
ATOM     14  C   UNL     1      -0.266   0.235  24.066  0.00  0.00    +0.202 A 
BRANCH  12   8
ATOM      3  N   UNL     1       4.054   0.896  23.149  0.00  0.00    -0.294 NA
ATOM      8  C   UNL     1       3.083  -0.193  22.915  0.00  0.00    +0.146 C 
ATOM      9  C   UNL     1       3.700  -1.421  23.609  0.00  0.00    +0.030 C 
ATOM     10  C   UNL     1       5.039  -0.943  24.151  0.00  0.00    +0.017 C 
ATOM     11  C   UNL     1       5.364   0.260  23.287  0.00  0.00    +0.085 C 
ATOM     13  C   UNL     1       4.044   1.909  22.101  0.00  0.00    +0.105 C 
ENDBRANCH  12   8
ENDBRANCH  15  14
BRANCH   6  19
ATOM     19  C   UNL     1      -4.722   2.660  24.425  0.00  0.00    +0.131 C 
BRANCH  19  21
ATOM     21  C   UNL     1      -4.825   3.467  25.708  0.00  0.00    +0.178 C 
BRANCH  21   2
ATOM      2  O   UNL     1      -3.523   3.846  26.136  0.00  0.00    -0.381 OA
ATOM     22  C   UNL     1      -2.693   4.193  25.036  0.00  0.00    +0.194 C 
ENDBRANCH  21   2
ENDBRANCH  19  21
ENDBRANCH   6  19
TORSDOF 5
ENDMDL
MODEL 2
REMARK VINA RESULT:      -1.3      1.293      1.543
REMARK  Name = 45783275
REMARK  7 active torsions:
REMARK  status: ('A' for Active; 'I' for Inactive)
REMARK    1  A    between atoms: O_2  and  C_21
REMARK    2  A    between atoms: O_2  and  C_22
REMARK    3  A    between atoms: N_3  and  C_13
REMARK    4  A    between atoms: N_6  and  C_19
REMARK    5  A    between atoms: C_8  and  C_12
REMARK    6  A    between atoms: C_14  and  C_15
REMARK    7  A    between atoms: C_19  and  C_21
REMARK                            x       y       z     vdW  Elec       q    Type
REMARK                         _______ _______ _______ _____ _____    ______ ____
ROOT
ATOM      6  N   UNL     1      -4.250   2.718  24.535  0.00  0.00    -0.327 N 
ATOM      7  N   UNL     1      -4.821   0.407  24.637  0.00  0.00    -0.240 NA
ATOM     15  C   UNL     1      -2.113  -0.252  24.409  0.00  0.00    +0.027 A 
ATOM     16  C   UNL     1      -2.510   1.081  24.414  0.00  0.00    +0.055 A 
ATOM     17  C   UNL     1      -3.070  -1.256  24.517  0.00  0.00    +0.031 A 
ATOM     18  C   UNL     1      -3.863   1.355  24.529  0.00  0.00    +0.119 A 
ATOM     20  C   UNL     1      -4.398  -0.877  24.628  0.00  0.00    +0.113 A 
ATOM     23  H   UNL     1      -5.243   2.905  24.617  0.00  0.00    +0.148 HD
ENDROOT
BRANCH  15  14
ATOM      1  O   UNL     1       1.178  -1.516  24.587  0.00  0.00    -0.336 OA
ATOM      4  N   UNL     1       0.093   0.042  23.399  0.00  0.00    -0.190 NA
ATOM      5  N   UNL     1      -0.149  -1.536  25.038  0.00  0.00    -0.056 NA
ATOM     12  C   UNL     1       1.233  -0.560  23.624  0.00  0.00    +0.245 A 
ATOM     14  C   UNL     1      -0.725  -0.590  24.289  0.00  0.00    +0.202 A 
BRANCH  12   8
ATOM      3  N   UNL     1       3.241   0.897  23.430  0.00  0.00    -0.294 NA
ATOM      8  C   UNL     1       2.580  -0.341  22.969  0.00  0.00    +0.146 C 
ATOM      9  C   UNL     1       3.587  -1.462  23.286  0.00  0.00    +0.030 C 
ATOM     10  C   UNL     1       4.803  -0.753  23.866  0.00  0.00    +0.017 C 
ATOM     11  C   UNL     1       4.681   0.660  23.331  0.00  0.00    +0.085 C 
ATOM     13  C   UNL     1       2.828   2.081  22.685  0.00  0.00    +0.105 C 
ENDBRANCH  12   8
ENDBRANCH  15  14
BRANCH   6  19
ATOM     19  C   UNL     1      -3.311   3.786  24.428  0.00  0.00    +0.131 C 
BRANCH  19  21
ATOM     21  C   UNL     1      -2.822   4.190  25.809  0.00  0.00    +0.178 C 
BRANCH  21   2
ATOM      2  O   UNL     1      -1.403   4.110  25.852  0.00  0.00    -0.381 OA
ATOM     22  C   UNL     1      -0.803   4.943  24.870  0.00  0.00    +0.194 C 
ENDBRANCH  21   2
ENDBRANCH  19  21
ENDBRANCH   6  19
TORSDOF 5
ENDMDL
MODEL 3
REMARK VINA RESULT:      -0.8      1.822      7.360
REMARK  Name = 45783275
REMARK  7 active torsions:
REMARK  status: ('A' for Active; 'I' for Inactive)
REMARK    1  A    between atoms: O_2  and  C_21
REMARK    2  A    between atoms: O_2  and  C_22
REMARK    3  A    between atoms: N_3  and  C_13
REMARK    4  A    between atoms: N_6  and  C_19
REMARK    5  A    between atoms: C_8  and  C_12
REMARK    6  A    between atoms: C_14  and  C_15
REMARK    7  A    between atoms: C_19  and  C_21
REMARK                            x       y       z     vdW  Elec       q    Type
REMARK                         _______ _______ _______ _____ _____    ______ ____
ROOT
ATOM      6  N   UNL     1       2.186  -0.806  23.461  0.00  0.00    -0.327 N 
ATOM      7  N   UNL     1       1.214  -2.365  24.979  0.00  0.00    -0.240 NA
ATOM     15  C   UNL     1      -1.266  -1.118  24.642  0.00  0.00    +0.027 A 
ATOM     16  C   UNL     1      -0.148  -0.645  23.963  0.00  0.00    +0.055 A 
ATOM     17  C   UNL     1      -1.144  -2.212  25.491  0.00  0.00    +0.031 A 
ATOM     18  C   UNL     1       1.057  -1.298  24.163  0.00  0.00    +0.119 A 
ATOM     20  C   UNL     1       0.106  -2.796  25.624  0.00  0.00    +0.113 A 
ATOM     23  H   UNL     1       3.062  -1.290  23.620  0.00  0.00    +0.148 HD
ENDROOT
BRANCH  15  14
ATOM      1  O   UNL     1      -4.615  -0.142  24.102  0.00  0.00    -0.336 OA
ATOM      4  N   UNL     1      -2.683   0.873  24.605  0.00  0.00    -0.190 NA
ATOM      5  N   UNL     1      -3.649  -1.154  24.171  0.00  0.00    -0.056 NA
ATOM     12  C   UNL     1      -3.963   1.019  24.371  0.00  0.00    +0.245 A 
ATOM     14  C   UNL     1      -2.537  -0.476  24.471  0.00  0.00    +0.202 A 
BRANCH  12   8
ATOM      3  N   UNL     1      -5.257   2.671  25.707  0.00  0.00    -0.294 NA
ATOM      8  C   UNL     1      -4.799   2.281  24.359  0.00  0.00    +0.146 C 
ATOM      9  C   UNL     1      -4.022   3.506  23.841  0.00  0.00    +0.030 C 
ATOM     10  C   UNL     1      -4.149   4.552  24.939  0.00  0.00    +0.017 C 
ATOM     11  C   UNL     1      -5.394   4.128  25.693  0.00  0.00    +0.085 C 
ATOM     13  C   UNL     1      -6.492   2.009  26.109  0.00  0.00    +0.105 C 
ENDBRANCH  12   8
ENDBRANCH  15  14
BRANCH   6  19
ATOM     19  C   UNL     1       2.116   0.312  22.579  0.00  0.00    +0.131 C 
BRANCH  19  21
ATOM     21  C   UNL     1       3.514   0.831  22.285  0.00  0.00    +0.178 C 
BRANCH  21   2
ATOM      2  O   UNL     1       4.280   0.833  23.483  0.00  0.00    -0.381 OA
ATOM     22  C   UNL     1       5.469   0.067  23.343  0.00  0.00    +0.194 C 
ENDBRANCH  21   2
ENDBRANCH  19  21
ENDBRANCH   6  19
TORSDOF 5
ENDMDL
MODEL 4
REMARK VINA RESULT:      -0.7     16.608     18.014
REMARK  Name = 45783275
REMARK  7 active torsions:
REMARK  status: ('A' for Active; 'I' for Inactive)
REMARK    1  A    between atoms: O_2  and  C_21
REMARK    2  A    between atoms: O_2  and  C_22
REMARK    3  A    between atoms: N_3  and  C_13
REMARK    4  A    between atoms: N_6  and  C_19
REMARK    5  A    between atoms: C_8  and  C_12
REMARK    6  A    between atoms: C_14  and  C_15
REMARK    7  A    between atoms: C_19  and  C_21
REMARK                            x       y       z     vdW  Elec       q    Type
REMARK                         _______ _______ _______ _____ _____    ______ ____
ROOT
ATOM      6  N   UNL     1      -8.893  -6.114   8.124  0.00  0.00    -0.327 N 
ATOM      7  N   UNL     1     -10.185  -8.114   8.212  0.00  0.00    -0.240 NA
ATOM     15  C   UNL     1      -8.357  -9.193  10.031  0.00  0.00    +0.027 A 
ATOM     16  C   UNL     1      -8.166  -7.911   9.525  0.00  0.00    +0.055 A 
ATOM     17  C   UNL     1      -9.461  -9.936   9.626  0.00  0.00    +0.031 A 
ATOM     18  C   UNL     1      -9.101  -7.423   8.627  0.00  0.00    +0.119 A 
ATOM     20  C   UNL     1     -10.338  -9.356   8.723  0.00  0.00    +0.113 A 
ATOM     23  H   UNL     1      -9.582  -5.770   7.465  0.00  0.00    +0.148 HD
ENDROOT
BRANCH  15  14
ATOM      1  O   UNL     1      -5.664 -10.636  11.798  0.00  0.00    -0.336 OA
ATOM      4  N   UNL     1      -7.701  -9.846  12.292  0.00  0.00    -0.190 NA
ATOM      5  N   UNL     1      -6.217 -10.199  10.587  0.00  0.00    -0.056 NA
ATOM     12  C   UNL     1      -6.602 -10.392  12.749  0.00  0.00    +0.245 A 
ATOM     14  C   UNL     1      -7.417  -9.747  10.962  0.00  0.00    +0.202 A 
BRANCH  12   8
ATOM      3  N   UNL     1      -5.133  -9.972  14.714  0.00  0.00    -0.294 NA
ATOM      8  C   UNL     1      -6.241 -10.781  14.168  0.00  0.00    +0.146 C 
ATOM      9  C   UNL     1      -7.403 -10.570  15.157  0.00  0.00    +0.030 C 
ATOM     10  C   UNL     1      -6.835  -9.680  16.253  0.00  0.00    +0.017 C 
ATOM     11  C   UNL     1      -5.340  -9.909  16.160  0.00  0.00    +0.085 C 
ATOM     13  C   UNL     1      -3.816 -10.495  14.370  0.00  0.00    +0.105 C 
ENDBRANCH  12   8
ENDBRANCH  15  14
BRANCH   6  19
ATOM     19  C   UNL     1      -7.779  -5.309   8.505  0.00  0.00    +0.131 C 
BRANCH  19  21
ATOM     21  C   UNL     1      -8.224  -3.872   8.717  0.00  0.00    +0.178 C 
BRANCH  21   2
ATOM      2  O   UNL     1      -9.542  -3.857   9.249  0.00  0.00    -0.381 OA
ATOM     22  C   UNL     1     -10.391  -2.988   8.513  0.00  0.00    +0.194 C 
ENDBRANCH  21   2
ENDBRANCH  19  21
ENDBRANCH   6  19
TORSDOF 5
ENDMDL
MODEL 5
REMARK VINA RESULT:      -0.7      1.986      7.544
REMARK  Name = 45783275
REMARK  7 active torsions:
REMARK  status: ('A' for Active; 'I' for Inactive)
REMARK    1  A    between atoms: O_2  and  C_21
REMARK    2  A    between atoms: O_2  and  C_22
REMARK    3  A    between atoms: N_3  and  C_13
REMARK    4  A    between atoms: N_6  and  C_19
REMARK    5  A    between atoms: C_8  and  C_12
REMARK    6  A    between atoms: C_14  and  C_15
REMARK    7  A    between atoms: C_19  and  C_21
REMARK                            x       y       z     vdW  Elec       q    Type
REMARK                         _______ _______ _______ _____ _____    ______ ____
ROOT
ATOM      6  N   UNL     1       4.035   0.376  22.244  0.00  0.00    -0.327 N 
ATOM      7  N   UNL     1       2.112  -0.576  21.209  0.00  0.00    -0.240 NA
ATOM     15  C   UNL     1       0.502   0.573  23.186  0.00  0.00    +0.027 A 
ATOM     16  C   UNL     1       1.881   0.762  23.209  0.00  0.00    +0.055 A 
ATOM     17  C   UNL     1      -0.071  -0.191  22.175  0.00  0.00    +0.031 A 
ATOM     18  C   UNL     1       2.633   0.172  22.207  0.00  0.00    +0.119 A 
ATOM     20  C   UNL     1       0.770  -0.739  21.219  0.00  0.00    +0.113 A 
ATOM     23  H   UNL     1       4.575  -0.064  21.507  0.00  0.00    +0.148 HD
ENDROOT
BRANCH  15  14
ATOM      1  O   UNL     1      -0.962   2.186  25.963  0.00  0.00    -0.336 OA
ATOM      4  N   UNL     1      -1.684   1.109  24.137  0.00  0.00    -0.190 NA
ATOM      5  N   UNL     1       0.186   1.790  25.264  0.00  0.00    -0.056 NA
ATOM     12  C   UNL     1      -2.017   1.746  25.231  0.00  0.00    +0.245 A 
ATOM     14  C   UNL     1      -0.322   1.161  24.201  0.00  0.00    +0.202 A 
BRANCH  12   8
ATOM      3  N   UNL     1      -3.843   3.423  25.455  0.00  0.00    -0.294 NA
ATOM      8  C   UNL     1      -3.394   2.054  25.781  0.00  0.00    +0.146 C 
ATOM      9  C   UNL     1      -4.486   1.137  25.200  0.00  0.00    +0.030 C 
ATOM     10  C   UNL     1      -5.533   2.079  24.623  0.00  0.00    +0.017 C 
ATOM     11  C   UNL     1      -5.303   3.373  25.378  0.00  0.00    +0.085 C 
ATOM     13  C   UNL     1      -3.378   4.422  26.409  0.00  0.00    +0.105 C 
ENDBRANCH  12   8
ENDBRANCH  15  14
BRANCH   6  19
ATOM     19  C   UNL     1       4.674   1.152  23.256  0.00  0.00    +0.131 C 
BRANCH  19  21
ATOM     21  C   UNL     1       5.851   0.384  23.834  0.00  0.00    +0.178 C 
BRANCH  21   2
ATOM      2  O   UNL     1       5.372  -0.644  24.692  0.00  0.00    -0.381 OA
ATOM     22  C   UNL     1       4.943  -1.780  23.955  0.00  0.00    +0.194 C 
ENDBRANCH  21   2
ENDBRANCH  19  21
ENDBRANCH   6  19
TORSDOF 5
ENDMDL
MODEL 6
REMARK VINA RESULT:      -0.5      2.962      6.252
REMARK  Name = 45783275
REMARK  7 active torsions:
REMARK  status: ('A' for Active; 'I' for Inactive)
REMARK    1  A    between atoms: O_2  and  C_21
REMARK    2  A    between atoms: O_2  and  C_22
REMARK    3  A    between atoms: N_3  and  C_13
REMARK    4  A    between atoms: N_6  and  C_19
REMARK    5  A    between atoms: C_8  and  C_12
REMARK    6  A    between atoms: C_14  and  C_15
REMARK    7  A    between atoms: C_19  and  C_21
REMARK                            x       y       z     vdW  Elec       q    Type
REMARK                         _______ _______ _______ _____ _____    ______ ____
ROOT
ATOM      6  N   UNL     1      -0.912  -2.851  24.775  0.00  0.00    -0.327 N 
ATOM      7  N   UNL     1      -3.106  -3.435  24.051  0.00  0.00    -0.240 NA
ATOM     15  C   UNL     1      -3.909  -0.780  24.401  0.00  0.00    +0.027 A 
ATOM     16  C   UNL     1      -2.599  -1.157  24.680  0.00  0.00    +0.055 A 
ATOM     17  C   UNL     1      -4.817  -1.731  23.948  0.00  0.00    +0.031 A 
ATOM     18  C   UNL     1      -2.252  -2.484  24.489  0.00  0.00    +0.119 A 
ATOM     20  C   UNL     1      -4.370  -3.033  23.791  0.00  0.00    +0.113 A 
ATOM     23  H   UNL     1      -0.672  -3.826  24.636  0.00  0.00    +0.148 HD
ENDROOT
BRANCH  15  14
ATOM      1  O   UNL     1      -5.527   2.325  24.845  0.00  0.00    -0.336 OA
ATOM      4  N   UNL     1      -3.416   1.599  24.662  0.00  0.00    -0.190 NA
ATOM      5  N   UNL     1      -5.605   0.935  24.685  0.00  0.00    -0.056 NA
ATOM     12  C   UNL     1      -4.204   2.632  24.821  0.00  0.00    +0.245 A 
ATOM     14  C   UNL     1      -4.321   0.581  24.583  0.00  0.00    +0.202 A 
BRANCH  12   8
ATOM      3  N   UNL     1      -2.792   4.318  25.985  0.00  0.00    -0.294 NA
ATOM      8  C   UNL     1      -3.849   4.096  24.978  0.00  0.00    +0.146 C 
ATOM      9  C   UNL     1      -3.292   4.716  23.683  0.00  0.00    +0.030 C 
ATOM     10  C   UNL     1      -1.948   5.314  24.074  0.00  0.00    +0.017 C 
ATOM     11  C   UNL     1      -2.072   5.522  25.570  0.00  0.00    +0.085 C 
ATOM     13  C   UNL     1      -3.306   4.428  27.344  0.00  0.00    +0.105 C 
ENDBRANCH  12   8
ENDBRANCH  15  14
BRANCH   6  19
ATOM     19  C   UNL     1       0.059  -1.917  25.241  0.00  0.00    +0.131 C 
BRANCH  19  21
ATOM     21  C   UNL     1       0.170  -0.754  24.270  0.00  0.00    +0.178 C 
BRANCH  21   2
ATOM      2  O   UNL     1      -0.153   0.457  24.942  0.00  0.00    -0.381 OA
ATOM     22  C   UNL     1       0.251   1.594  24.191  0.00  0.00    +0.194 C 
ENDBRANCH  21   2
ENDBRANCH  19  21
ENDBRANCH   6  19
TORSDOF 5
ENDMDL
MODEL 7
REMARK VINA RESULT:      -0.3      2.611      4.447
REMARK  Name = 45783275
REMARK  7 active torsions:
REMARK  status: ('A' for Active; 'I' for Inactive)
REMARK    1  A    between atoms: O_2  and  C_21
REMARK    2  A    between atoms: O_2  and  C_22
REMARK    3  A    between atoms: N_3  and  C_13
REMARK    4  A    between atoms: N_6  and  C_19
REMARK    5  A    between atoms: C_8  and  C_12
REMARK    6  A    between atoms: C_14  and  C_15
REMARK    7  A    between atoms: C_19  and  C_21
REMARK                            x       y       z     vdW  Elec       q    Type
REMARK                         _______ _______ _______ _____ _____    ______ ____
ROOT
ATOM      6  N   UNL     1      -3.715   4.926  26.144  0.00  0.00    -0.327 N 
ATOM      7  N   UNL     1      -5.850   3.952  25.730  0.00  0.00    -0.240 NA
ATOM     15  C   UNL     1      -4.596   1.563  24.995  0.00  0.00    +0.027 A 
ATOM     16  C   UNL     1      -3.836   2.659  25.388  0.00  0.00    +0.055 A 
ATOM     17  C   UNL     1      -5.983   1.661  24.969  0.00  0.00    +0.031 A 
ATOM     18  C   UNL     1      -4.505   3.819  25.743  0.00  0.00    +0.119 A 
ATOM     20  C   UNL     1      -6.556   2.866  25.342  0.00  0.00    +0.113 A 
ATOM     23  H   UNL     1      -4.216   5.769  26.397  0.00  0.00    +0.148 HD
ENDROOT
BRANCH  15  14
ATOM      1  O   UNL     1      -3.620  -1.668  23.965  0.00  0.00    -0.336 OA
ATOM      4  N   UNL     1      -2.596   0.207  24.634  0.00  0.00    -0.190 NA
ATOM      5  N   UNL     1      -4.637  -0.741  24.226  0.00  0.00    -0.056 NA
ATOM     12  C   UNL     1      -2.451  -1.030  24.230  0.00  0.00    +0.245 A 
ATOM     14  C   UNL     1      -3.953   0.339  24.616  0.00  0.00    +0.202 A 
BRANCH  12   8
ATOM      3  N   UNL     1       0.037  -1.025  24.235  0.00  0.00    -0.294 NA
ATOM      8  C   UNL     1      -1.183  -1.830  24.021  0.00  0.00    +0.146 C 
ATOM      9  C   UNL     1      -1.052  -3.006  25.006  0.00  0.00    +0.030 C 
ATOM     10  C   UNL     1       0.297  -2.811  25.683  0.00  0.00    +0.017 C 
ATOM     11  C   UNL     1       1.068  -1.953  24.701  0.00  0.00    +0.085 C 
ATOM     13  C   UNL     1       0.456  -0.291  23.047  0.00  0.00    +0.105 C 
ENDBRANCH  12   8
ENDBRANCH  15  14
BRANCH   6  19
ATOM     19  C   UNL     1      -2.291   4.879  26.190  0.00  0.00    +0.131 C 
BRANCH  19  21
ATOM     21  C   UNL     1      -1.712   5.304  24.851  0.00  0.00    +0.178 C 
BRANCH  21   2
ATOM      2  O   UNL     1      -0.429   4.716  24.681  0.00  0.00    -0.381 OA
ATOM     22  C   UNL     1      -0.527   3.338  24.350  0.00  0.00    +0.194 C 
ENDBRANCH  21   2
ENDBRANCH  19  21
ENDBRANCH   6  19
TORSDOF 5
ENDMDL
