MODEL 1
REMARK VINA RESULT:       2.3      0.000      0.000
REMARK  Name = 40780211
REMARK  7 active torsions:
REMARK  status: ('A' for Active; 'I' for Inactive)
REMARK    1  A    between atoms: N_3  and  C_15
REMARK    2  A    between atoms: N_4  and  C_16
REMARK    3  A    between atoms: N_5  and  C_22
REMARK    4  A    between atoms: N_6  and  C_25
REMARK    5  A    between atoms: C_9  and  C_15
REMARK    6  A    between atoms: C_10  and  C_16
REMARK    7  A    between atoms: C_31  and  C_34
REMARK                            x       y       z     vdW  Elec       q    Type
REMARK                         _______ _______ _______ _____ _____    ______ ____
ROOT
ATOM      2  N   UNL     1      -3.933   5.054  24.154  0.00  0.00    -0.298 NA
ATOM      8  C   UNL     1      -1.848   4.096  25.380  0.00  0.00    -0.003 C 
ATOM      9  C   UNL     1      -1.955   3.527  23.947  0.00  0.00    +0.020 C 
ATOM     10  C   UNL     1      -4.332   4.485  25.469  0.00  0.00    +0.074 C 
ATOM     11  C   UNL     1      -3.142   3.777  26.153  0.00  0.00    +0.024 C 
ATOM     12  C   UNL     1      -3.281   4.015  23.321  0.00  0.00    +0.089 C 
ATOM     13  C   UNL     1      -1.763   5.629  25.248  0.00  0.00    +0.019 C 
ATOM     14  C   UNL     1      -2.946   6.132  24.403  0.00  0.00    +0.085 C 
ENDROOT
BRANCH   9  15
ATOM     15  C   UNL     1      -1.831   2.007  23.891  0.00  0.00    +0.089 C 
BRANCH  15   3
ATOM      3  N   UNL     1      -0.518   1.608  23.386  0.00  0.00    -0.299 NA
ATOM      5  N   UNL     1       2.103   0.484  23.537  0.00  0.00    -0.327 N 
ATOM     17  C   UNL     1      -0.338   0.156  23.510  0.00  0.00    +0.103 C 
ATOM     18  C   UNL     1       0.549   2.307  24.111  0.00  0.00    +0.103 C 
ATOM     19  C   UNL     1       1.010  -0.283  22.932  0.00  0.00    +0.120 C 
ATOM     20  C   UNL     1       1.925   1.941  23.552  0.00  0.00    +0.120 C 
BRANCH   5  22
ATOM     22  C   UNL     1       3.408  -0.019  23.496  0.00  0.00    +0.030 A 
ATOM     23  C   UNL     1       4.469   0.820  23.156  0.00  0.00    +0.023 A 
ATOM     24  C   UNL     1       3.650  -1.359  23.797  0.00  0.00    +0.023 A 
ATOM     26  C   UNL     1       5.770   0.320  23.116  0.00  0.00    +0.002 A 
ATOM     27  C   UNL     1       4.951  -1.860  23.757  0.00  0.00    +0.002 A 
ATOM     28  C   UNL     1       6.011  -1.021  23.418  0.00  0.00    +0.000 A 
ENDBRANCH   5  22
ENDBRANCH  15   3
ENDBRANCH   9  15
BRANCH  10  16
ATOM     16  C   UNL     1      -5.554   3.569  25.362  0.00  0.00    +0.124 C 
BRANCH  16   4
ATOM      1  O   UNL     1      -4.250   1.572  23.776  0.00  0.00    -0.253 OA
ATOM      4  N   UNL     1      -5.220   2.215  25.772  0.00  0.00    -0.298 N 
ATOM      6  N   UNL     1      -4.390   0.092  25.593  0.00  0.00    -0.269 N 
ATOM     21  C   UNL     1      -4.582   1.307  24.929  0.00  0.00    +0.304 C 
ATOM     35  H   UNL     1      -5.468   1.923  26.712  0.00  0.00    +0.150 HD
ATOM     36  H   UNL     1      -4.726   0.037  26.551  0.00  0.00    +0.156 HD
BRANCH   6  25
ATOM     25  C   UNL     1      -3.782  -1.084  25.094  0.00  0.00    +0.036 A 
ATOM     29  C   UNL     1      -2.452  -1.369  25.405  0.00  0.00    +0.042 A 
ATOM     30  C   UNL     1      -4.514  -1.958  24.289  0.00  0.00    +0.023 A 
ATOM     31  C   UNL     1      -1.855  -2.529  24.913  0.00  0.00    +0.054 A 
ATOM     32  C   UNL     1      -3.915  -3.119  23.797  0.00  0.00    +0.003 A 
ATOM     33  C   UNL     1      -2.586  -3.403  24.110  0.00  0.00    +0.019 A 
BRANCH  31  34
ATOM      7  N   UNL     1       0.614  -3.058  25.490  0.00  0.00    -0.191 NA
ATOM     34  C   UNL     1      -0.492  -2.821  25.232  0.00  0.00    +0.099 C 
ENDBRANCH  31  34
ENDBRANCH   6  25
ENDBRANCH  16   4
ENDBRANCH  10  16
TORSDOF 7
ENDMDL
MODEL 2
REMARK VINA RESULT:       4.3      3.165      5.001
REMARK  Name = 40780211
REMARK  7 active torsions:
REMARK  status: ('A' for Active; 'I' for Inactive)
REMARK    1  A    between atoms: N_3  and  C_15
REMARK    2  A    between atoms: N_4  and  C_16
REMARK    3  A    between atoms: N_5  and  C_22
REMARK    4  A    between atoms: N_6  and  C_25
REMARK    5  A    between atoms: C_9  and  C_15
REMARK    6  A    between atoms: C_10  and  C_16
REMARK    7  A    between atoms: C_31  and  C_34
REMARK                            x       y       z     vdW  Elec       q    Type
REMARK                         _______ _______ _______ _____ _____    ______ ____
ROOT
ATOM      2  N   UNL     1      -4.062   2.738  25.670  0.00  0.00    -0.298 NA
ATOM      8  C   UNL     1      -5.320   1.243  23.953  0.00  0.00    -0.003 C 
ATOM      9  C   UNL     1      -4.378   0.395  24.836  0.00  0.00    +0.020 C 
ATOM     10  C   UNL     1      -3.893   3.286  24.297  0.00  0.00    +0.074 C 
ATOM     11  C   UNL     1      -4.504   2.339  23.242  0.00  0.00    +0.024 C 
ATOM     12  C   UNL     1      -3.554   1.347  25.733  0.00  0.00    +0.089 C 
ATOM     13  C   UNL     1      -6.305   1.953  24.902  0.00  0.00    +0.019 C 
ATOM     14  C   UNL     1      -5.512   2.715  25.978  0.00  0.00    +0.085 C 
ENDROOT
BRANCH   9  15
ATOM     15  C   UNL     1      -3.479  -0.541  24.032  0.00  0.00    +0.089 C 
BRANCH  15   3
ATOM      3  N   UNL     1      -2.070  -0.183  24.197  0.00  0.00    -0.299 NA
ATOM      5  N   UNL     1       0.721  -0.235  23.597  0.00  0.00    -0.327 N 
ATOM     17  C   UNL     1      -1.558   0.469  22.986  0.00  0.00    +0.103 C 
ATOM     18  C   UNL     1      -1.268  -1.374  24.500  0.00  0.00    +0.103 C 
ATOM     19  C   UNL     1      -0.101   0.900  23.166  0.00  0.00    +0.120 C 
ATOM     20  C   UNL     1       0.198  -1.005  24.732  0.00  0.00    +0.120 C 
BRANCH   5  22
ATOM     22  C   UNL     1       2.108  -0.198  23.410  0.00  0.00    +0.030 A 
ATOM     23  C   UNL     1       2.708   0.938  22.867  0.00  0.00    +0.023 A 
ATOM     24  C   UNL     1       2.890  -1.295  23.770  0.00  0.00    +0.023 A 
ATOM     26  C   UNL     1       4.090   0.976  22.681  0.00  0.00    +0.002 A 
ATOM     27  C   UNL     1       4.272  -1.257  23.585  0.00  0.00    +0.002 A 
ATOM     28  C   UNL     1       4.872  -0.121  23.041  0.00  0.00    +0.000 A 
ENDBRANCH   5  22
ENDBRANCH  15   3
ENDBRANCH   9  15
BRANCH  10  16
ATOM     16  C   UNL     1      -2.435   3.628  23.980  0.00  0.00    +0.124 C 
BRANCH  16   4
ATOM      1  O   UNL     1      -0.868   4.592  26.175  0.00  0.00    -0.253 OA
ATOM      4  N   UNL     1      -1.532   2.850  24.810  0.00  0.00    -0.298 N 
ATOM      6  N   UNL     1      -0.027   2.422  26.479  0.00  0.00    -0.269 N 
ATOM     21  C   UNL     1      -0.806   3.406  25.863  0.00  0.00    +0.304 C 
ATOM     35  H   UNL     1      -1.425   1.860  24.608  0.00  0.00    +0.150 HD
ATOM     36  H   UNL     1      -0.090   1.482  26.094  0.00  0.00    +0.156 HD
BRANCH   6  25
ATOM     25  C   UNL     1       0.849   2.571  27.579  0.00  0.00    +0.036 A 
ATOM     29  C   UNL     1       0.382   2.359  28.877  0.00  0.00    +0.042 A 
ATOM     30  C   UNL     1       2.180   2.930  27.367  0.00  0.00    +0.023 A 
ATOM     31  C   UNL     1       1.247   2.505  29.961  0.00  0.00    +0.054 A 
ATOM     32  C   UNL     1       3.045   3.076  28.452  0.00  0.00    +0.003 A 
ATOM     33  C   UNL     1       2.577   2.864  29.749  0.00  0.00    +0.019 A 
BRANCH  31  34
ATOM      7  N   UNL     1       0.381   2.111  32.370  0.00  0.00    -0.191 NA
ATOM     34  C   UNL     1       0.769   2.288  31.291  0.00  0.00    +0.099 C 
ENDBRANCH  31  34
ENDBRANCH   6  25
ENDBRANCH  16   4
ENDBRANCH  10  16
TORSDOF 7
ENDMDL
