MODEL 1
REMARK VINA RESULT:      -3.0      0.000      0.000
REMARK  Name = 71694325
REMARK  6 active torsions:
REMARK  status: ('A' for Active; 'I' for Inactive)
REMARK    1  A    between atoms: S_1  and  N_9
REMARK    2  A    between atoms: S_1  and  C_17
REMARK    3  A    between atoms: O_8  and  C_25
REMARK    4  A    between atoms: O_8  and  C_26
REMARK    5  A    between atoms: C_12  and  C_15
REMARK    6  A    between atoms: C_18  and  C_20
REMARK                            x       y       z     vdW  Elec       q    Type
REMARK                         _______ _______ _______ _____ _____    ______ ____
ROOT
ATOM     10  N   UNL     1      -1.530   1.162  24.544  0.00  0.00    -0.340 N 
ATOM     11  N   UNL     1      -2.995  -0.498  24.375  0.00  0.00    -0.238 NA
ATOM     15  C   UNL     1      -2.805   0.733  24.792  0.00  0.00    +0.129 A 
ATOM     18  C   UNL     1      -0.866   0.138  23.930  0.00  0.00    +0.066 A 
ATOM     19  C   UNL     1      -1.791  -0.876  23.837  0.00  0.00    +0.139 A 
ATOM     27  H   UNL     1      -1.160   2.076  24.766  0.00  0.00    +0.167 HD
ENDROOT
BRANCH  15  12
ATOM      5  O   UNL     1      -6.218   1.972  25.785  0.00  0.00    -0.376 OA
ATOM      9  N   UNL     1      -3.686   3.097  25.119  0.00  0.00    -0.167 NA
ATOM     12  C   UNL     1      -3.821   1.631  25.471  0.00  0.00    +0.171 C 
ATOM     13  C   UNL     1      -4.775   3.903  25.761  0.00  0.00    +0.138 C 
ATOM     14  C   UNL     1      -5.244   1.169  25.116  0.00  0.00    +0.188 C 
ATOM     16  C   UNL     1      -6.125   3.333  25.367  0.00  0.00    +0.177 C 
BRANCH   9   1
ATOM      1  S   UNL     1      -2.119   3.793  25.298  0.00  0.00    +0.030 S 
ATOM      6  O   UNL     1      -1.468   3.785  24.011  0.00  0.00    -0.158 OA
ATOM      7  O   UNL     1      -1.505   3.228  26.475  0.00  0.00    -0.158 OA
ATOM     17  C   UNL     1      -2.602   5.457  25.668  0.00  0.00    +0.215 C 
ENDBRANCH   9   1
ENDBRANCH  15  12
BRANCH  18  20
ATOM     20  C   UNL     1       0.510   0.221  23.514  0.00  0.00    +0.000 A 
ATOM     21  C   UNL     1       1.282   1.324  23.879  0.00  0.00    +0.013 A 
ATOM     22  C   UNL     1       1.070  -0.799  22.748  0.00  0.00    +0.013 A 
ATOM     23  C   UNL     1       2.615   1.405  23.478  0.00  0.00    +0.046 A 
ATOM     24  C   UNL     1       2.403  -0.719  22.345  0.00  0.00    +0.046 A 
ATOM     25  C   UNL     1       3.176   0.383  22.710  0.00  0.00    +0.130 A 
BRANCH  25   8
ATOM      8  O   UNL     1       4.477   0.461  22.321  0.00  0.00    -0.406 OA
BRANCH   8  26
ATOM      2  F   UNL     1       6.622  -0.280  22.602  0.00  0.00    -0.133 F 
ATOM      3  F   UNL     1       5.047  -1.028  23.919  0.00  0.00    -0.133 F 
ATOM      4  F   UNL     1       5.736   1.034  24.142  0.00  0.00    -0.133 F 
ATOM     26  C   UNL     1       5.483   0.059  23.243  0.00  0.00    +0.575 C 
ENDBRANCH   8  26
ENDBRANCH  25   8
ENDBRANCH  18  20
TORSDOF 5
ENDMDL
MODEL 2
REMARK VINA RESULT:      -2.1      1.931      2.829
REMARK  Name = 71694325
REMARK  6 active torsions:
REMARK  status: ('A' for Active; 'I' for Inactive)
REMARK    1  A    between atoms: S_1  and  N_9
REMARK    2  A    between atoms: S_1  and  C_17
REMARK    3  A    between atoms: O_8  and  C_25
REMARK    4  A    between atoms: O_8  and  C_26
REMARK    5  A    between atoms: C_12  and  C_15
REMARK    6  A    between atoms: C_18  and  C_20
REMARK                            x       y       z     vdW  Elec       q    Type
REMARK                         _______ _______ _______ _____ _____    ______ ____
ROOT
ATOM     10  N   UNL     1      -1.588   1.933  24.091  0.00  0.00    -0.340 N 
ATOM     11  N   UNL     1      -1.803   3.980  24.923  0.00  0.00    -0.238 NA
ATOM     15  C   UNL     1      -2.442   2.888  24.570  0.00  0.00    +0.129 A 
ATOM     18  C   UNL     1      -0.325   2.450  24.142  0.00  0.00    +0.066 A 
ATOM     19  C   UNL     1      -0.483   3.715  24.660  0.00  0.00    +0.139 A 
ATOM     27  H   UNL     1      -1.852   1.011  23.771  0.00  0.00    +0.167 HD
ENDROOT
BRANCH  15  12
ATOM      5  O   UNL     1      -5.994   3.465  25.676  0.00  0.00    -0.376 OA
ATOM      9  N   UNL     1      -4.309   1.242  25.093  0.00  0.00    -0.167 NA
ATOM     12  C   UNL     1      -3.936   2.640  24.653  0.00  0.00    +0.171 C 
ATOM     13  C   UNL     1      -5.796   1.103  25.231  0.00  0.00    +0.138 C 
ATOM     14  C   UNL     1      -4.578   3.648  25.621  0.00  0.00    +0.188 C 
ATOM     16  C   UNL     1      -6.316   2.169  26.179  0.00  0.00    +0.177 C 
BRANCH   9   1
ATOM      1  S   UNL     1      -3.575  -0.060  24.233  0.00  0.00    +0.030 S 
ATOM      6  O   UNL     1      -2.475  -0.561  25.020  0.00  0.00    -0.158 OA
ATOM      7  O   UNL     1      -3.419   0.339  22.855  0.00  0.00    -0.158 OA
ATOM     17  C   UNL     1      -4.903  -1.230  24.325  0.00  0.00    +0.215 C 
ENDBRANCH   9   1
ENDBRANCH  15  12
BRANCH  18  20
ATOM     20  C   UNL     1       0.846   1.728  23.718  0.00  0.00    +0.000 A 
ATOM     21  C   UNL     1       2.030   2.414  23.452  0.00  0.00    +0.013 A 
ATOM     22  C   UNL     1       0.795   0.342  23.573  0.00  0.00    +0.013 A 
ATOM     23  C   UNL     1       3.165   1.714  23.041  0.00  0.00    +0.046 A 
ATOM     24  C   UNL     1       1.929  -0.359  23.162  0.00  0.00    +0.046 A 
ATOM     25  C   UNL     1       3.114   0.327  22.896  0.00  0.00    +0.130 A 
BRANCH  25   8
ATOM      8  O   UNL     1       4.221  -0.356  22.499  0.00  0.00    -0.406 OA
BRANCH   8  26
ATOM      2  F   UNL     1       6.500  -0.446  22.679  0.00  0.00    -0.133 F 
ATOM      3  F   UNL     1       5.265  -1.506  24.138  0.00  0.00    -0.133 F 
ATOM      4  F   UNL     1       5.352   0.677  24.197  0.00  0.00    -0.133 F 
ATOM     26  C   UNL     1       5.343  -0.392  23.374  0.00  0.00    +0.575 C 
ENDBRANCH   8  26
ENDBRANCH  25   8
ENDBRANCH  18  20
TORSDOF 5
ENDMDL
MODEL 3
REMARK VINA RESULT:      -2.0     16.321     17.584
REMARK  Name = 71694325
REMARK  6 active torsions:
REMARK  status: ('A' for Active; 'I' for Inactive)
REMARK    1  A    between atoms: S_1  and  N_9
REMARK    2  A    between atoms: S_1  and  C_17
REMARK    3  A    between atoms: O_8  and  C_25
REMARK    4  A    between atoms: O_8  and  C_26
REMARK    5  A    between atoms: C_12  and  C_15
REMARK    6  A    between atoms: C_18  and  C_20
REMARK                            x       y       z     vdW  Elec       q    Type
REMARK                         _______ _______ _______ _____ _____    ______ ____
ROOT
ATOM     10  N   UNL     1      -5.645  -9.460  11.622  0.00  0.00    -0.340 N 
ATOM     11  N   UNL     1      -6.619 -10.781  10.127  0.00  0.00    -0.238 NA
ATOM     15  C   UNL     1      -6.816 -10.002  11.166  0.00  0.00    +0.129 A 
ATOM     18  C   UNL     1      -4.640  -9.924  10.823  0.00  0.00    +0.066 A 
ATOM     19  C   UNL     1      -5.266 -10.737   9.907  0.00  0.00    +0.139 A 
ATOM     27  H   UNL     1      -5.553  -8.822  12.402  0.00  0.00    +0.167 HD
ENDROOT
BRANCH  15  12
ATOM      5  O   UNL     1      -9.607 -10.366  13.665  0.00  0.00    -0.376 OA
ATOM      9  N   UNL     1      -9.331  -9.738  10.899  0.00  0.00    -0.167 NA
ATOM     12  C   UNL     1      -8.142  -9.691  11.833  0.00  0.00    +0.171 C 
ATOM     13  C   UNL     1     -10.609  -9.503  11.648  0.00  0.00    +0.138 C 
ATOM     14  C   UNL     1      -8.386 -10.673  12.991  0.00  0.00    +0.188 C 
ATOM     16  C   UNL     1     -10.720 -10.506  12.783  0.00  0.00    +0.177 C 
BRANCH   9   1
ATOM      1  S   UNL     1      -9.209  -8.819   9.446  0.00  0.00    +0.030 S 
ATOM      6  O   UNL     1      -9.384  -9.713   8.327  0.00  0.00    -0.158 OA
ATOM      7  O   UNL     1      -8.070  -7.941   9.560  0.00  0.00    -0.158 OA
ATOM     17  C   UNL     1     -10.680  -7.846   9.615  0.00  0.00    +0.215 C 
ENDBRANCH   9   1
ENDBRANCH  15  12
BRANCH  18  20
ATOM     20  C   UNL     1      -3.257  -9.565  10.999  0.00  0.00    +0.000 A 
ATOM     21  C   UNL     1      -2.592  -9.912  12.175  0.00  0.00    +0.013 A 
ATOM     22  C   UNL     1      -2.582  -8.873   9.995  0.00  0.00    +0.013 A 
ATOM     23  C   UNL     1      -1.252  -9.565  12.346  0.00  0.00    +0.046 A 
ATOM     24  C   UNL     1      -1.242  -8.525  10.165  0.00  0.00    +0.046 A 
ATOM     25  C   UNL     1      -0.577  -8.872  11.341  0.00  0.00    +0.130 A 
BRANCH  25   8
ATOM      8  O   UNL     1       0.731  -8.536  11.507  0.00  0.00    -0.406 OA
BRANCH   8  26
ATOM      2  F   UNL     1       1.344  -7.827  13.593  0.00  0.00    -0.133 F 
ATOM      3  F   UNL     1      -0.038  -6.616  12.410  0.00  0.00    -0.133 F 
ATOM      4  F   UNL     1       2.067  -6.709  11.830  0.00  0.00    -0.133 F 
ATOM     26  C   UNL     1       1.043  -7.425  12.339  0.00  0.00    +0.575 C 
ENDBRANCH   8  26
ENDBRANCH  25   8
ENDBRANCH  18  20
TORSDOF 5
ENDMDL
