MODEL 1
REMARK VINA RESULT:       2.1      0.000      0.000
REMARK  Name = 40586239
REMARK  7 active torsions:
REMARK  status: ('A' for Active; 'I' for Inactive)
REMARK    1  A    between atoms: O_3  and  C_13
REMARK    2  A    between atoms: O_3  and  C_22
REMARK    3  A    between atoms: N_7  and  C_12
REMARK    4  A    between atoms: N_8  and  C_16
REMARK    5  A    between atoms: N_9  and  C_24
REMARK    6  A    between atoms: C_29  and  C_30
REMARK    7  A    between atoms: C_30  and  C_31
REMARK                            x       y       z     vdW  Elec       q    Type
REMARK                         _______ _______ _______ _____ _____    ______ ____
ROOT
ATOM      1  O   UNL     1      -2.985   0.763  25.597  0.00  0.00    -0.368 OA
ATOM      2  O   UNL     1      -5.176  -0.833  24.162  0.00  0.00    -0.368 OA
ATOM     10  C   UNL     1      -3.915  -0.309  23.697  0.00  0.00    +0.173 C 
ATOM     11  C   UNL     1      -3.713   1.026  24.386  0.00  0.00    +0.192 C 
ATOM     12  C   UNL     1      -2.777  -1.158  24.213  0.00  0.00    +0.131 C 
ATOM     13  C   UNL     1      -5.130   1.464  24.669  0.00  0.00    +0.235 C 
ATOM     14  C   UNL     1      -2.579  -0.614  25.617  0.00  0.00    +0.185 C 
ATOM     15  C   UNL     1      -5.812   0.153  24.987  0.00  0.00    +0.207 C 
ENDROOT
BRANCH  12   7
ATOM      5  O   UNL     1      -0.101  -0.782  25.169  0.00  0.00    -0.252 OA
ATOM      7  N   UNL     1      -1.590  -0.985  23.411  0.00  0.00    -0.292 N 
ATOM      9  N   UNL     1       0.637  -0.665  22.943  0.00  0.00    -0.269 N 
ATOM     23  C   UNL     1      -0.314  -0.806  23.958  0.00  0.00    +0.304 C 
ATOM     32  H   UNL     1      -1.674  -1.060  22.401  0.00  0.00    +0.151 HD
ATOM     34  H   UNL     1       0.293  -0.707  21.987  0.00  0.00    +0.156 HD
BRANCH   9  24
ATOM     24  C   UNL     1       2.030  -0.467  23.079  0.00  0.00    +0.035 A 
ATOM     25  C   UNL     1       2.826  -1.470  23.632  0.00  0.00    +0.024 A 
ATOM     26  C   UNL     1       2.608   0.732  22.663  0.00  0.00    +0.024 A 
ATOM     27  C   UNL     1       4.201  -1.274  23.767  0.00  0.00    +0.013 A 
ATOM     28  C   UNL     1       3.982   0.928  22.798  0.00  0.00    +0.013 A 
ATOM     29  C   UNL     1       4.779  -0.075  23.351  0.00  0.00    +0.017 A 
BRANCH  29  30
ATOM      6  O   UNL     1       6.672   1.016  24.239  0.00  0.00    -0.292 OA
ATOM     30  C   UNL     1       6.212   0.129  23.493  0.00  0.00    +0.160 C 
ATOM     31  C   UNL     1       7.193  -0.748  22.723  0.00  0.00    +0.091 C 
ENDBRANCH  29  30
ENDBRANCH   9  24
ENDBRANCH  12   7
BRANCH  13   3
ATOM      3  O   UNL     1      -5.232   2.388  25.728  0.00  0.00    -0.442 OA
BRANCH   3  22
ATOM      4  O   UNL     1      -4.789   4.616  25.391  0.00  0.00    -0.226 OA
ATOM      8  N   UNL     1      -3.107   3.130  25.980  0.00  0.00    -0.278 N 
ATOM     22  C   UNL     1      -4.404   3.486  25.675  0.00  0.00    +0.401 C 
ATOM     33  H   UNL     1      -2.921   2.146  26.151  0.00  0.00    +0.152 HD
BRANCH   8  16
ATOM     16  C   UNL     1      -2.004   4.063  26.006  0.00  0.00    +0.076 C 
ATOM     17  C   UNL     1      -0.795   3.466  26.736  0.00  0.00    +0.022 C 
ATOM     18  C   UNL     1      -1.630   4.517  24.591  0.00  0.00    +0.022 C 
ATOM     19  C   UNL     1      -0.110   2.365  25.928  0.00  0.00    +0.002 C 
ATOM     20  C   UNL     1      -0.942   3.413  23.786  0.00  0.00    +0.002 C 
ATOM     21  C   UNL     1       0.262   2.843  24.528  0.00  0.00    +0.000 C 
ENDBRANCH   8  16
ENDBRANCH   3  22
ENDBRANCH  13   3
TORSDOF 6
ENDMDL
MODEL 2
REMARK VINA RESULT:       3.9      1.777      3.626
REMARK  Name = 40586239
REMARK  7 active torsions:
REMARK  status: ('A' for Active; 'I' for Inactive)
REMARK    1  A    between atoms: O_3  and  C_13
REMARK    2  A    between atoms: O_3  and  C_22
REMARK    3  A    between atoms: N_7  and  C_12
REMARK    4  A    between atoms: N_8  and  C_16
REMARK    5  A    between atoms: N_9  and  C_24
REMARK    6  A    between atoms: C_29  and  C_30
REMARK    7  A    between atoms: C_30  and  C_31
REMARK                            x       y       z     vdW  Elec       q    Type
REMARK                         _______ _______ _______ _____ _____    ______ ____
ROOT
ATOM      1  O   UNL     1      -3.947   2.392  23.692  0.00  0.00    -0.368 OA
ATOM      2  O   UNL     1      -2.494   4.713  25.073  0.00  0.00    -0.368 OA
ATOM     10  C   UNL     1      -2.043   3.399  24.684  0.00  0.00    +0.173 C 
ATOM     11  C   UNL     1      -3.200   2.450  24.920  0.00  0.00    +0.192 C 
ATOM     12  C   UNL     1      -1.829   3.345  23.189  0.00  0.00    +0.131 C 
ATOM     13  C   UNL     1      -3.974   3.144  26.014  0.00  0.00    +0.235 C 
ATOM     14  C   UNL     1      -3.235   3.106  22.670  0.00  0.00    +0.185 C 
ATOM     15  C   UNL     1      -3.802   4.602  25.650  0.00  0.00    +0.207 C 
ENDROOT
BRANCH  12   7
ATOM      5  O   UNL     1       0.852   2.939  24.117  0.00  0.00    -0.252 OA
ATOM      7  N   UNL     1      -0.944   2.264  22.826  0.00  0.00    -0.292 N 
ATOM      9  N   UNL     1       0.973   0.998  22.801  0.00  0.00    -0.269 N 
ATOM     23  C   UNL     1       0.357   2.137  23.327  0.00  0.00    +0.304 C 
ATOM     32  H   UNL     1      -1.304   1.525  22.230  0.00  0.00    +0.151 HD
ATOM     34  H   UNL     1       0.423   0.440  22.154  0.00  0.00    +0.156 HD
BRANCH   9  24
ATOM     24  C   UNL     1       2.280   0.522  23.056  0.00  0.00    +0.035 A 
ATOM     25  C   UNL     1       2.473  -0.793  23.480  0.00  0.00    +0.024 A 
ATOM     26  C   UNL     1       3.376   1.367  22.884  0.00  0.00    +0.024 A 
ATOM     27  C   UNL     1       3.762  -1.262  23.732  0.00  0.00    +0.013 A 
ATOM     28  C   UNL     1       4.665   0.898  23.136  0.00  0.00    +0.013 A 
ATOM     29  C   UNL     1       4.858  -0.417  23.561  0.00  0.00    +0.017 A 
BRANCH  29  30
ATOM      6  O   UNL     1       6.466  -1.558  24.856  0.00  0.00    -0.292 OA
ATOM     30  C   UNL     1       6.202  -0.907  23.824  0.00  0.00    +0.160 C 
ATOM     31  C   UNL     1       7.328  -0.632  22.835  0.00  0.00    +0.091 C 
ENDBRANCH  29  30
ENDBRANCH   9  24
ENDBRANCH  12   7
BRANCH  13   3
ATOM      3  O   UNL     1      -5.331   2.767  26.070  0.00  0.00    -0.442 OA
BRANCH   3  22
ATOM      4  O   UNL     1      -6.739   1.152  25.243  0.00  0.00    -0.226 OA
ATOM      8  N   UNL     1      -4.537   0.665  25.789  0.00  0.00    -0.278 N 
ATOM     22  C   UNL     1      -5.635   1.489  25.660  0.00  0.00    +0.401 C 
ATOM     33  H   UNL     1      -3.697   1.066  26.193  0.00  0.00    +0.152 HD
BRANCH   8  16
ATOM     16  C   UNL     1      -4.541  -0.739  25.441  0.00  0.00    +0.076 C 
ATOM     17  C   UNL     1      -4.294  -0.935  23.941  0.00  0.00    +0.022 C 
ATOM     18  C   UNL     1      -3.522  -1.518  26.279  0.00  0.00    +0.022 C 
ATOM     19  C   UNL     1      -2.850  -0.631  23.542  0.00  0.00    +0.002 C 
ATOM     20  C   UNL     1      -2.078  -1.213  25.875  0.00  0.00    +0.002 C 
ATOM     21  C   UNL     1      -1.855  -1.426  24.382  0.00  0.00    +0.000 C 
ENDBRANCH   8  16
ENDBRANCH   3  22
ENDBRANCH  13   3
TORSDOF 6
ENDMDL
