MODEL 1
REMARK VINA RESULT:      -5.3      0.000      0.000
REMARK  Name = 51137387
REMARK  4 active torsions:
REMARK  status: ('A' for Active; 'I' for Inactive)
REMARK    1  A    between atoms: N_2  and  C_5
REMARK    2  A    between atoms: C_7  and  C_15
REMARK    3  A    between atoms: C_16  and  C_17
REMARK    4  A    between atoms: C_17  and  C_18
REMARK                            x       y       z     vdW  Elec       q    Type
REMARK                         _______ _______ _______ _____ _____    ______ ____
ROOT
ATOM      1  O   UNL     1      -8.536 -10.129  15.074  0.00  0.00    -0.424 OA
ATOM      3  N   UNL     1      -9.991  -8.665  14.212  0.00  0.00    -0.112 NA
ATOM      4  N   UNL     1      -9.863  -8.396  15.561  0.00  0.00    -0.112 NA
ATOM     15  C   UNL     1      -9.199  -9.684  13.972  0.00  0.00    +0.222 A 
ATOM     16  C   UNL     1      -9.005  -9.274  16.024  0.00  0.00    +0.222 A 
ENDROOT
BRANCH  15   7
ATOM      2  N   UNL     1      -7.323 -10.683  10.988  0.00  0.00    -0.299 NA
ATOM      6  C   UNL     1      -7.437 -10.693  12.448  0.00  0.00    +0.097 C 
ATOM      7  C   UNL     1      -8.929 -10.410  12.675  0.00  0.00    +0.092 C 
ATOM      8  C   UNL     1      -8.124  -9.539  10.555  0.00  0.00    +0.085 C 
ATOM     11  C   UNL     1      -9.379  -9.661  11.409  0.00  0.00    +0.029 C 
BRANCH   2   5
ATOM      5  C   UNL     1      -5.935 -10.592  10.539  0.00  0.00    +0.057 C 
ATOM      9  C   UNL     1      -5.789  -9.455   9.522  0.00  0.00    +0.019 C 
ATOM     10  C   UNL     1      -5.010 -10.378  11.743  0.00  0.00    +0.019 C 
ATOM     12  C   UNL     1      -4.335  -9.279   9.087  0.00  0.00    +0.002 C 
ATOM     13  C   UNL     1      -3.557 -10.202  11.305  0.00  0.00    +0.002 C 
ATOM     14  C   UNL     1      -3.410  -9.078  10.283  0.00  0.00    +0.000 C 
ENDBRANCH   2   5
ENDBRANCH  15   7
BRANCH  16  17
ATOM     17  C   UNL     1      -8.494  -9.454  17.388  0.00  0.00    +0.132 C 
BRANCH  17  18
ATOM     18  C   UNL     1      -7.024  -9.853  17.471  0.00  0.00    -0.038 A 
ATOM     19  C   UNL     1      -6.185  -9.658  16.373  0.00  0.00    +0.004 A 
ATOM     20  C   UNL     1      -6.519 -10.415  18.644  0.00  0.00    +0.004 A 
ATOM     21  C   UNL     1      -4.841 -10.025  16.449  0.00  0.00    +0.000 A 
ATOM     22  C   UNL     1      -5.175 -10.780  18.719  0.00  0.00    +0.000 A 
ATOM     23  C   UNL     1      -4.336 -10.584  17.622  0.00  0.00    +0.000 A 
ENDBRANCH  17  18
ENDBRANCH  16  17
TORSDOF 4
ENDMDL
MODEL 2
REMARK VINA RESULT:      -5.0      1.344      2.225
REMARK  Name = 51137387
REMARK  4 active torsions:
REMARK  status: ('A' for Active; 'I' for Inactive)
REMARK    1  A    between atoms: N_2  and  C_5
REMARK    2  A    between atoms: C_7  and  C_15
REMARK    3  A    between atoms: C_16  and  C_17
REMARK    4  A    between atoms: C_17  and  C_18
REMARK                            x       y       z     vdW  Elec       q    Type
REMARK                         _______ _______ _______ _____ _____    ______ ____
ROOT
ATOM      1  O   UNL     1      -7.737  -9.530  13.524  0.00  0.00    -0.424 OA
ATOM      3  N   UNL     1      -9.515 -10.549  12.627  0.00  0.00    -0.112 NA
ATOM      4  N   UNL     1      -9.816 -10.243  13.940  0.00  0.00    -0.112 NA
ATOM     15  C   UNL     1      -8.292 -10.116  12.427  0.00  0.00    +0.222 A 
ATOM     16  C   UNL     1      -8.751  -9.650  14.425  0.00  0.00    +0.222 A 
ENDROOT
BRANCH  15   7
ATOM      2  N   UNL     1      -5.219 -10.109  10.433  0.00  0.00    -0.299 NA
ATOM      6  C   UNL     1      -6.053 -10.780  11.433  0.00  0.00    +0.097 C 
ATOM      7  C   UNL     1      -7.441 -10.174  11.181  0.00  0.00    +0.092 C 
ATOM      8  C   UNL     1      -5.638  -8.709  10.471  0.00  0.00    +0.085 C 
ATOM     11  C   UNL     1      -7.157  -8.811  10.527  0.00  0.00    +0.029 C 
BRANCH   2   5
ATOM      5  C   UNL     1      -3.791 -10.270  10.701  0.00  0.00    +0.057 C 
ATOM      9  C   UNL     1      -3.048  -8.972  10.364  0.00  0.00    +0.019 C 
ATOM     10  C   UNL     1      -3.577 -10.664  12.167  0.00  0.00    +0.019 C 
ATOM     12  C   UNL     1      -1.562  -9.076  10.704  0.00  0.00    +0.002 C 
ATOM     13  C   UNL     1      -2.090 -10.767  12.504  0.00  0.00    +0.002 C 
ATOM     14  C   UNL     1      -1.345  -9.481  12.159  0.00  0.00    +0.000 C 
ENDBRANCH   2   5
ENDBRANCH  15   7
BRANCH  16  17
ATOM     17  C   UNL     1      -8.510  -9.110  15.769  0.00  0.00    +0.132 C 
BRANCH  17  18
ATOM     18  C   UNL     1      -7.284  -9.681  16.475  0.00  0.00    -0.038 A 
ATOM     19  C   UNL     1      -7.329  -9.948  17.844  0.00  0.00    +0.004 A 
ATOM     20  C   UNL     1      -6.118  -9.934  15.752  0.00  0.00    +0.004 A 
ATOM     21  C   UNL     1      -6.207 -10.468  18.489  0.00  0.00    +0.000 A 
ATOM     22  C   UNL     1      -4.997 -10.455  16.398  0.00  0.00    +0.000 A 
ATOM     23  C   UNL     1      -5.042 -10.723  17.767  0.00  0.00    +0.000 A 
ENDBRANCH  17  18
ENDBRANCH  16  17
TORSDOF 4
ENDMDL
MODEL 3
REMARK VINA RESULT:      -5.0     14.202     16.574
REMARK  Name = 51137387
REMARK  4 active torsions:
REMARK  status: ('A' for Active; 'I' for Inactive)
REMARK    1  A    between atoms: N_2  and  C_5
REMARK    2  A    between atoms: C_7  and  C_15
REMARK    3  A    between atoms: C_16  and  C_17
REMARK    4  A    between atoms: C_17  and  C_18
REMARK                            x       y       z     vdW  Elec       q    Type
REMARK                         _______ _______ _______ _____ _____    ______ ____
ROOT
ATOM      1  O   UNL     1      -3.328   1.980  24.870  0.00  0.00    -0.424 OA
ATOM      3  N   UNL     1      -3.904   4.133  25.067  0.00  0.00    -0.112 NA
ATOM      4  N   UNL     1      -5.060   3.377  25.102  0.00  0.00    -0.112 NA
ATOM     15  C   UNL     1      -2.919   3.278  24.930  0.00  0.00    +0.222 A 
ATOM     16  C   UNL     1      -4.677   2.127  24.983  0.00  0.00    +0.222 A 
ENDROOT
BRANCH  15   7
ATOM      2  N   UNL     1       0.623   2.456  24.478  0.00  0.00    -0.299 NA
ATOM      6  C   UNL     1      -0.718   2.544  23.897  0.00  0.00    +0.097 C 
ATOM      7  C   UNL     1      -1.432   3.528  24.835  0.00  0.00    +0.092 C 
ATOM      8  C   UNL     1       0.404   2.365  25.921  0.00  0.00    +0.085 C 
ATOM     11  C   UNL     1      -0.671   3.416  26.167  0.00  0.00    +0.029 C 
BRANCH   2   5
ATOM      5  C   UNL     1       1.381   1.320  23.958  0.00  0.00    +0.057 C 
ATOM      9  C   UNL     1       0.487   0.467  23.052  0.00  0.00    +0.019 C 
ATOM     10  C   UNL     1       2.617   1.820  23.200  0.00  0.00    +0.019 C 
ATOM     12  C   UNL     1       1.266  -0.689  22.428  0.00  0.00    +0.002 C 
ATOM     13  C   UNL     1       3.394   0.663  22.576  0.00  0.00    +0.002 C 
ATOM     14  C   UNL     1       2.503  -0.196  21.683  0.00  0.00    +0.000 C 
ENDBRANCH   2   5
ENDBRANCH  15   7
BRANCH  16  17
ATOM     17  C   UNL     1      -5.481   0.899  24.959  0.00  0.00    +0.132 C 
BRANCH  17  18
ATOM     18  C   UNL     1      -4.672  -0.392  24.895  0.00  0.00    -0.038 A 
ATOM     19  C   UNL     1      -3.833  -0.743  25.953  0.00  0.00    +0.004 A 
ATOM     20  C   UNL     1      -4.771  -1.222  23.777  0.00  0.00    +0.004 A 
ATOM     21  C   UNL     1      -3.093  -1.924  25.893  0.00  0.00    +0.000 A 
ATOM     22  C   UNL     1      -4.031  -2.403  23.719  0.00  0.00    +0.000 A 
ATOM     23  C   UNL     1      -3.192  -2.754  24.777  0.00  0.00    +0.000 A 
ENDBRANCH  17  18
ENDBRANCH  16  17
TORSDOF 4
ENDMDL
MODEL 4
REMARK VINA RESULT:      -4.1      2.679      3.966
REMARK  Name = 51137387
REMARK  4 active torsions:
REMARK  status: ('A' for Active; 'I' for Inactive)
REMARK    1  A    between atoms: N_2  and  C_5
REMARK    2  A    between atoms: C_7  and  C_15
REMARK    3  A    between atoms: C_16  and  C_17
REMARK    4  A    between atoms: C_17  and  C_18
REMARK                            x       y       z     vdW  Elec       q    Type
REMARK                         _______ _______ _______ _____ _____    ______ ____
ROOT
ATOM      1  O   UNL     1      -7.653 -10.058  12.373  0.00  0.00    -0.424 OA
ATOM      3  N   UNL     1      -9.267  -9.404  10.969  0.00  0.00    -0.112 NA
ATOM      4  N   UNL     1      -9.835  -9.595  12.214  0.00  0.00    -0.112 NA
ATOM     15  C   UNL     1      -7.993  -9.687  11.108  0.00  0.00    +0.222 A 
ATOM     16  C   UNL     1      -8.857  -9.976  13.002  0.00  0.00    +0.222 A 
ENDROOT
BRANCH  15   7
ATOM      2  N   UNL     1      -4.548  -9.689   9.862  0.00  0.00    -0.299 NA
ATOM      6  C   UNL     1      -5.626 -10.410  10.541  0.00  0.00    +0.097 C 
ATOM      7  C   UNL     1      -6.882  -9.654  10.085  0.00  0.00    +0.092 C 
ATOM      8  C   UNL     1      -4.884  -8.274  10.015  0.00  0.00    +0.085 C 
ATOM     11  C   UNL     1      -6.379  -8.247   9.721  0.00  0.00    +0.029 C 
BRANCH   2   5
ATOM      5  C   UNL     1      -3.232 -10.011  10.409  0.00  0.00    +0.057 C 
ATOM      9  C   UNL     1      -2.321  -8.780  10.336  0.00  0.00    +0.019 C 
ATOM     10  C   UNL     1      -3.375 -10.507  11.852  0.00  0.00    +0.019 C 
ATOM     12  C   UNL     1      -0.959  -9.056  10.969  0.00  0.00    +0.002 C 
ATOM     13  C   UNL     1      -2.011 -10.781  12.484  0.00  0.00    +0.002 C 
ATOM     14  C   UNL     1      -1.097  -9.562  12.402  0.00  0.00    +0.000 C 
ENDBRANCH   2   5
ENDBRANCH  15   7
BRANCH  16  17
ATOM     17  C   UNL     1      -8.883 -10.314  14.430  0.00  0.00    +0.132 C 
BRANCH  17  18
ATOM     18  C   UNL     1      -9.532  -9.261  15.323  0.00  0.00    -0.038 A 
ATOM     19  C   UNL     1      -9.944  -9.599  16.613  0.00  0.00    +0.004 A 
ATOM     20  C   UNL     1      -9.714  -7.961  14.850  0.00  0.00    +0.004 A 
ATOM     21  C   UNL     1     -10.539  -8.636  17.429  0.00  0.00    +0.000 A 
ATOM     22  C   UNL     1     -10.308  -6.999  15.667  0.00  0.00    +0.000 A 
ATOM     23  C   UNL     1     -10.719  -7.337  16.957  0.00  0.00    +0.000 A 
ENDBRANCH  17  18
ENDBRANCH  16  17
TORSDOF 4
ENDMDL
MODEL 5
REMARK VINA RESULT:      -3.3     15.169     16.721
REMARK  Name = 51137387
REMARK  4 active torsions:
REMARK  status: ('A' for Active; 'I' for Inactive)
REMARK    1  A    between atoms: N_2  and  C_5
REMARK    2  A    between atoms: C_7  and  C_15
REMARK    3  A    between atoms: C_16  and  C_17
REMARK    4  A    between atoms: C_17  and  C_18
REMARK                            x       y       z     vdW  Elec       q    Type
REMARK                         _______ _______ _______ _____ _____    ______ ____
ROOT
ATOM      1  O   UNL     1      -2.389   0.255  24.077  0.00  0.00    -0.424 OA
ATOM      3  N   UNL     1      -1.117  -1.523  24.551  0.00  0.00    -0.112 NA
ATOM      4  N   UNL     1      -2.334  -1.687  25.187  0.00  0.00    -0.112 NA
ATOM     15  C   UNL     1      -1.194  -0.377  23.917  0.00  0.00    +0.222 A 
ATOM     16  C   UNL     1      -3.044  -0.626  24.883  0.00  0.00    +0.222 A 
ENDROOT
BRANCH  15   7
ATOM      2  N   UNL     1       2.139   0.460  22.645  0.00  0.00    -0.299 NA
ATOM      6  C   UNL     1       1.082  -0.541  22.803  0.00  0.00    +0.097 C 
ATOM      7  C   UNL     1      -0.166   0.316  23.053  0.00  0.00    +0.092 C 
ATOM      8  C   UNL     1       1.887   1.443  23.697  0.00  0.00    +0.085 C 
ATOM     11  C   UNL     1       0.377   1.635  23.629  0.00  0.00    +0.029 C 
BRANCH   2   5
ATOM      5  C   UNL     1       3.476  -0.122  22.735  0.00  0.00    +0.057 C 
ATOM      9  C   UNL     1       4.478   0.941  23.197  0.00  0.00    +0.019 C 
ATOM     10  C   UNL     1       3.459  -1.319  23.692  0.00  0.00    +0.019 C 
ATOM     12  C   UNL     1       5.875   0.350  23.377  0.00  0.00    +0.002 C 
ATOM     13  C   UNL     1       4.858  -1.908  23.871  0.00  0.00    +0.002 C 
ATOM     14  C   UNL     1       5.861  -0.849  24.320  0.00  0.00    +0.000 C 
ENDBRANCH   2   5
ENDBRANCH  15   7
BRANCH  16  17
ATOM     17  C   UNL     1      -4.412  -0.270  25.279  0.00  0.00    +0.132 C 
BRANCH  17  18
ATOM     18  C   UNL     1      -4.692   1.229  25.330  0.00  0.00    -0.038 A 
ATOM     19  C   UNL     1      -3.687   2.137  24.997  0.00  0.00    +0.004 A 
ATOM     20  C   UNL     1      -5.953   1.690  25.710  0.00  0.00    +0.004 A 
ATOM     21  C   UNL     1      -3.943   3.508  25.045  0.00  0.00    +0.000 A 
ATOM     22  C   UNL     1      -6.208   3.060  25.756  0.00  0.00    +0.000 A 
ATOM     23  C   UNL     1      -5.204   3.969  25.423  0.00  0.00    +0.000 A 
ENDBRANCH  17  18
ENDBRANCH  16  17
TORSDOF 4
ENDMDL
MODEL 6
REMARK VINA RESULT:      -3.1     14.767     17.605
REMARK  Name = 51137387
REMARK  4 active torsions:
REMARK  status: ('A' for Active; 'I' for Inactive)
REMARK    1  A    between atoms: N_2  and  C_5
REMARK    2  A    between atoms: C_7  and  C_15
REMARK    3  A    between atoms: C_16  and  C_17
REMARK    4  A    between atoms: C_17  and  C_18
REMARK                            x       y       z     vdW  Elec       q    Type
REMARK                         _______ _______ _______ _____ _____    ______ ____
ROOT
ATOM      1  O   UNL     1      -0.400   0.761  24.753  0.00  0.00    -0.424 OA
ATOM      3  N   UNL     1       1.369   1.830  23.896  0.00  0.00    -0.112 NA
ATOM      4  N   UNL     1       1.422   0.514  23.479  0.00  0.00    -0.112 NA
ATOM     15  C   UNL     1       0.290   1.929  24.638  0.00  0.00    +0.222 A 
ATOM     16  C   UNL     1       0.371  -0.073  24.003  0.00  0.00    +0.222 A 
ENDROOT
BRANCH  15   7
ATOM      2  N   UNL     1      -2.292   4.159  25.973  0.00  0.00    -0.299 NA
ATOM      6  C   UNL     1      -1.638   2.849  26.009  0.00  0.00    +0.097 C 
ATOM      7  C   UNL     1      -0.277   3.130  25.358  0.00  0.00    +0.092 C 
ATOM      8  C   UNL     1      -1.994   4.693  24.645  0.00  0.00    +0.085 C 
ATOM     11  C   UNL     1      -0.517   4.363  24.471  0.00  0.00    +0.029 C 
BRANCH   2   5
ATOM      5  C   UNL     1      -3.729   4.071  26.227  0.00  0.00    +0.057 C 
ATOM      9  C   UNL     1      -4.486   4.994  25.267  0.00  0.00    +0.019 C 
ATOM     10  C   UNL     1      -4.196   2.618  26.080  0.00  0.00    +0.019 C 
ATOM     12  C   UNL     1      -5.998   4.872  25.451  0.00  0.00    +0.002 C 
ATOM     13  C   UNL     1      -5.708   2.499  26.264  0.00  0.00    +0.002 C 
ATOM     14  C   UNL     1      -6.465   3.426  25.318  0.00  0.00    +0.000 C 
ENDBRANCH   2   5
ENDBRANCH  15   7
BRANCH  16  17
ATOM     17  C   UNL     1      -0.076  -1.467  23.891  0.00  0.00    +0.132 C 
BRANCH  17  18
ATOM     18  C   UNL     1      -1.579  -1.669  24.051  0.00  0.00    -0.038 A 
ATOM     19  C   UNL     1      -2.083  -2.933  24.361  0.00  0.00    +0.004 A 
ATOM     20  C   UNL     1      -2.449  -0.591  23.888  0.00  0.00    +0.004 A 
ATOM     21  C   UNL     1      -3.458  -3.118  24.507  0.00  0.00    +0.000 A 
ATOM     22  C   UNL     1      -3.824  -0.777  24.035  0.00  0.00    +0.000 A 
ATOM     23  C   UNL     1      -4.328  -2.041  24.345  0.00  0.00    +0.000 A 
ENDBRANCH  17  18
ENDBRANCH  16  17
TORSDOF 4
ENDMDL
MODEL 7
REMARK VINA RESULT:      -2.4      3.254      5.001
REMARK  Name = 51137387
REMARK  4 active torsions:
REMARK  status: ('A' for Active; 'I' for Inactive)
REMARK    1  A    between atoms: N_2  and  C_5
REMARK    2  A    between atoms: C_7  and  C_15
REMARK    3  A    between atoms: C_16  and  C_17
REMARK    4  A    between atoms: C_17  and  C_18
REMARK                            x       y       z     vdW  Elec       q    Type
REMARK                         _______ _______ _______ _____ _____    ______ ____
ROOT
ATOM      1  O   UNL     1      -5.843 -10.344  13.366  0.00  0.00    -0.424 OA
ATOM      3  N   UNL     1      -4.499 -10.277  15.153  0.00  0.00    -0.112 NA
ATOM      4  N   UNL     1      -5.788 -10.016  15.578  0.00  0.00    -0.112 NA
ATOM     15  C   UNL     1      -4.578 -10.462  13.857  0.00  0.00    +0.222 A 
ATOM     16  C   UNL     1      -6.539 -10.065  14.503  0.00  0.00    +0.222 A 
ENDROOT
BRANCH  15   7
ATOM      2  N   UNL     1      -1.739  -9.814  11.633  0.00  0.00    -0.299 NA
ATOM      6  C   UNL     1      -2.264  -9.865  12.999  0.00  0.00    +0.097 C 
ATOM      7  C   UNL     1      -3.488 -10.781  12.861  0.00  0.00    +0.092 C 
ATOM      8  C   UNL     1      -2.918  -9.662  10.781  0.00  0.00    +0.085 C 
ATOM     11  C   UNL     1      -3.903 -10.655  11.385  0.00  0.00    +0.029 C 
BRANCH   2   5
ATOM      5  C   UNL     1      -0.775  -8.732  11.446  0.00  0.00    +0.057 C 
ATOM      9  C   UNL     1      -0.453  -8.082  12.796  0.00  0.00    +0.019 C 
ATOM     10  C   UNL     1       0.494  -9.275  10.778  0.00  0.00    +0.019 C 
ATOM     12  C   UNL     1       0.611  -6.996  12.653  0.00  0.00    +0.002 C 
ATOM     13  C   UNL     1       1.557  -8.187  10.637  0.00  0.00    +0.002 C 
ATOM     14  C   UNL     1       1.871  -7.529  11.977  0.00  0.00    +0.000 C 
ENDBRANCH   2   5
ENDBRANCH  15   7
BRANCH  16  17
ATOM     17  C   UNL     1      -7.986  -9.868  14.362  0.00  0.00    +0.132 C 
BRANCH  17  18
ATOM     18  C   UNL     1      -8.733  -9.659  15.676  0.00  0.00    -0.038 A 
ATOM     19  C   UNL     1      -9.189  -8.387  16.024  0.00  0.00    +0.004 A 
ATOM     20  C   UNL     1      -8.958 -10.740  16.529  0.00  0.00    +0.004 A 
ATOM     21  C   UNL     1      -9.871  -8.196  17.226  0.00  0.00    +0.000 A 
ATOM     22  C   UNL     1      -9.641 -10.548  17.731  0.00  0.00    +0.000 A 
ATOM     23  C   UNL     1     -10.097  -9.276  18.078  0.00  0.00    +0.000 A 
ENDBRANCH  17  18
ENDBRANCH  16  17
TORSDOF 4
ENDMDL
MODEL 8
REMARK VINA RESULT:      -2.4      3.465      6.641
REMARK  Name = 51137387
REMARK  4 active torsions:
REMARK  status: ('A' for Active; 'I' for Inactive)
REMARK    1  A    between atoms: N_2  and  C_5
REMARK    2  A    between atoms: C_7  and  C_15
REMARK    3  A    between atoms: C_16  and  C_17
REMARK    4  A    between atoms: C_17  and  C_18
REMARK                            x       y       z     vdW  Elec       q    Type
REMARK                         _______ _______ _______ _____ _____    ______ ____
ROOT
ATOM      1  O   UNL     1      -3.552 -10.160  11.556  0.00  0.00    -0.424 OA
ATOM      3  N   UNL     1      -3.270 -10.715  13.705  0.00  0.00    -0.112 NA
ATOM      4  N   UNL     1      -2.033 -10.388  13.182  0.00  0.00    -0.112 NA
ATOM     15  C   UNL     1      -4.127 -10.568  12.721  0.00  0.00    +0.222 A 
ATOM     16  C   UNL     1      -2.245 -10.071  11.926  0.00  0.00    +0.222 A 
ENDROOT
BRANCH  15   7
ATOM      2  N   UNL     1      -7.578 -10.206  11.547  0.00  0.00    -0.299 NA
ATOM      6  C   UNL     1      -6.223 -10.701  11.296  0.00  0.00    +0.097 C 
ATOM      7  C   UNL     1      -5.622 -10.781  12.706  0.00  0.00    +0.092 C 
ATOM      8  C   UNL     1      -7.415  -9.150  12.545  0.00  0.00    +0.085 C 
ATOM     11  C   UNL     1      -6.429  -9.764  13.531  0.00  0.00    +0.029 C 
BRANCH   2   5
ATOM      5  C   UNL     1      -8.231  -9.727  10.330  0.00  0.00    +0.057 C 
ATOM      9  C   UNL     1      -9.671  -9.306  10.642  0.00  0.00    +0.019 C 
ATOM     10  C   UNL     1      -7.431  -8.562   9.735  0.00  0.00    +0.019 C 
ATOM     12  C   UNL     1     -10.362  -8.726   9.409  0.00  0.00    +0.002 C 
ATOM     13  C   UNL     1      -8.125  -7.984   8.502  0.00  0.00    +0.002 C 
ATOM     14  C   UNL     1      -9.563  -7.575   8.806  0.00  0.00    +0.000 C 
ENDBRANCH   2   5
ENDBRANCH  15   7
BRANCH  16  17
ATOM     17  C   UNL     1      -1.292  -9.643  10.896  0.00  0.00    +0.132 C 
BRANCH  17  18
ATOM     18  C   UNL     1      -0.218  -8.675  11.382  0.00  0.00    -0.038 A 
ATOM     19  C   UNL     1       1.043  -8.677  10.786  0.00  0.00    +0.004 A 
ATOM     20  C   UNL     1      -0.497  -7.790  12.423  0.00  0.00    +0.004 A 
ATOM     21  C   UNL     1       2.026  -7.792  11.232  0.00  0.00    +0.000 A 
ATOM     22  C   UNL     1       0.485  -6.905  12.868  0.00  0.00    +0.000 A 
ATOM     23  C   UNL     1       1.747  -6.906  12.272  0.00  0.00    +0.000 A 
ENDBRANCH  17  18
ENDBRANCH  16  17
TORSDOF 4
ENDMDL
MODEL 9
REMARK VINA RESULT:      -2.3     14.293     16.781
REMARK  Name = 51137387
REMARK  4 active torsions:
REMARK  status: ('A' for Active; 'I' for Inactive)
REMARK    1  A    between atoms: N_2  and  C_5
REMARK    2  A    between atoms: C_7  and  C_15
REMARK    3  A    between atoms: C_16  and  C_17
REMARK    4  A    between atoms: C_17  and  C_18
REMARK                            x       y       z     vdW  Elec       q    Type
REMARK                         _______ _______ _______ _____ _____    ______ ____
ROOT
ATOM      1  O   UNL     1      -2.896  -0.606  24.365  0.00  0.00    -0.424 OA
ATOM      3  N   UNL     1      -4.608  -2.041  24.243  0.00  0.00    -0.112 NA
ATOM      4  N   UNL     1      -3.439  -2.775  24.308  0.00  0.00    -0.112 NA
ATOM     15  C   UNL     1      -4.244  -0.781  24.279  0.00  0.00    +0.222 A 
ATOM     16  C   UNL     1      -2.465  -1.897  24.378  0.00  0.00    +0.222 A 
ENDROOT
BRANCH  15   7
ATOM      2  N   UNL     1      -5.059   2.764  24.720  0.00  0.00    -0.299 NA
ATOM      6  C   UNL     1      -4.268   1.745  24.026  0.00  0.00    +0.097 C 
ATOM      7  C   UNL     1      -5.093   0.468  24.241  0.00  0.00    +0.092 C 
ATOM      8  C   UNL     1      -5.475   2.131  25.970  0.00  0.00    +0.085 C 
ATOM     11  C   UNL     1      -5.903   0.739  25.520  0.00  0.00    +0.029 C 
BRANCH   2   5
ATOM      5  C   UNL     1      -4.306   3.996  24.944  0.00  0.00    +0.057 C 
ATOM      9  C   UNL     1      -3.419   3.847  26.185  0.00  0.00    +0.019 C 
ATOM     10  C   UNL     1      -3.469   4.328  23.703  0.00  0.00    +0.019 C 
ATOM     12  C   UNL     1      -2.558   5.089  26.407  0.00  0.00    +0.002 C 
ATOM     13  C   UNL     1      -2.608   5.570  23.929  0.00  0.00    +0.002 C 
ATOM     14  C   UNL     1      -1.733   5.430  25.171  0.00  0.00    +0.000 C 
ENDBRANCH   2   5
ENDBRANCH  15   7
BRANCH  16  17
ATOM     17  C   UNL     1      -1.016  -2.111  24.468  0.00  0.00    +0.132 C 
BRANCH  17  18
ATOM     18  C   UNL     1      -0.170  -0.870  24.201  0.00  0.00    -0.038 A 
ATOM     19  C   UNL     1      -0.407   0.302  24.919  0.00  0.00    +0.004 A 
ATOM     20  C   UNL     1       0.840  -0.909  23.240  0.00  0.00    +0.004 A 
ATOM     21  C   UNL     1       0.366   1.438  24.674  0.00  0.00    +0.000 A 
ATOM     22  C   UNL     1       1.613   0.226  22.996  0.00  0.00    +0.000 A 
ATOM     23  C   UNL     1       1.377   1.399  23.714  0.00  0.00    +0.000 A 
ENDBRANCH  17  18
ENDBRANCH  16  17
TORSDOF 4
ENDMDL
MODEL 10
REMARK VINA RESULT:      -2.1     14.326     16.961
REMARK  Name = 51137387
REMARK  4 active torsions:
REMARK  status: ('A' for Active; 'I' for Inactive)
REMARK    1  A    between atoms: N_2  and  C_5
REMARK    2  A    between atoms: C_7  and  C_15
REMARK    3  A    between atoms: C_16  and  C_17
REMARK    4  A    between atoms: C_17  and  C_18
REMARK                            x       y       z     vdW  Elec       q    Type
REMARK                         _______ _______ _______ _____ _____    ______ ____
ROOT
ATOM      1  O   UNL     1      -1.399   2.989  24.792  0.00  0.00    -0.424 OA
ATOM      3  N   UNL     1      -2.177   5.012  25.345  0.00  0.00    -0.112 NA
ATOM      4  N   UNL     1      -0.874   5.160  24.910  0.00  0.00    -0.112 NA
ATOM     15  C   UNL     1      -2.441   3.729  25.260  0.00  0.00    +0.222 A 
ATOM     16  C   UNL     1      -0.459   3.954  24.598  0.00  0.00    +0.222 A 
ENDROOT
BRANCH  15   7
ATOM      2  N   UNL     1      -4.746   0.886  25.424  0.00  0.00    -0.299 NA
ATOM      6  C   UNL     1      -3.477   1.485  25.842  0.00  0.00    +0.097 C 
ATOM      7  C   UNL     1      -3.710   2.983  25.598  0.00  0.00    +0.092 C 
ATOM      8  C   UNL     1      -5.101   1.577  24.186  0.00  0.00    +0.085 C 
ATOM     11  C   UNL     1      -4.800   3.035  24.514  0.00  0.00    +0.029 C 
BRANCH   2   5
ATOM      5  C   UNL     1      -4.645  -0.561  25.245  0.00  0.00    +0.057 C 
ATOM      9  C   UNL     1      -4.536  -0.895  23.753  0.00  0.00    +0.019 C 
ATOM     10  C   UNL     1      -3.439  -1.101  26.021  0.00  0.00    +0.019 C 
ATOM     12  C   UNL     1      -4.352  -2.395  23.529  0.00  0.00    +0.002 C 
ATOM     13  C   UNL     1      -3.256  -2.601  25.795  0.00  0.00    +0.002 C 
ATOM     14  C   UNL     1      -3.159  -2.938  24.310  0.00  0.00    +0.000 C 
ENDBRANCH   2   5
ENDBRANCH  15   7
BRANCH  16  17
ATOM     17  C   UNL     1       0.843   3.517  24.080  0.00  0.00    +0.132 C 
BRANCH  17  18
ATOM     18  C   UNL     1       0.932   2.030  23.751  0.00  0.00    -0.038 A 
ATOM     19  C   UNL     1      -0.136   1.184  24.052  0.00  0.00    +0.004 A 
ATOM     20  C   UNL     1       2.080   1.517  23.148  0.00  0.00    +0.004 A 
ATOM     21  C   UNL     1      -0.054  -0.176  23.752  0.00  0.00    +0.000 A 
ATOM     22  C   UNL     1       2.161   0.157  22.846  0.00  0.00    +0.000 A 
ATOM     23  C   UNL     1       1.093  -0.688  23.148  0.00  0.00    +0.000 A 
ENDBRANCH  17  18
ENDBRANCH  16  17
TORSDOF 4
ENDMDL
