MODEL 1
REMARK VINA RESULT:      -5.0      0.000      0.000
REMARK  Name = 11885944
REMARK  6 active torsions:
REMARK  status: ('A' for Active; 'I' for Inactive)
REMARK    1  A    between atoms: O_3  and  C_12
REMARK    2  A    between atoms: O_3  and  C_16
REMARK    3  A    between atoms: N_6  and  C_11
REMARK    4  A    between atoms: N_7  and  C_18
REMARK    5  A    between atoms: C_15  and  C_17
REMARK    6  A    between atoms: C_18  and  C_21
REMARK                            x       y       z     vdW  Elec       q    Type
REMARK                         _______ _______ _______ _____ _____    ______ ____
ROOT
ATOM      1  O   UNL     1      -1.477   1.568  25.583  0.00  0.00    -0.368 OA
ATOM      2  O   UNL     1      -2.316   1.903  22.653  0.00  0.00    -0.368 OA
ATOM      9  C   UNL     1      -1.017   1.895  23.280  0.00  0.00    +0.173 C 
ATOM     10  C   UNL     1      -1.170   2.588  24.618  0.00  0.00    +0.192 C 
ATOM     11  C   UNL     1      -0.626   0.482  23.646  0.00  0.00    +0.130 C 
ATOM     12  C   UNL     1      -2.349   3.502  24.380  0.00  0.00    +0.235 C 
ATOM     13  C   UNL     1      -1.355   0.277  24.963  0.00  0.00    +0.185 C 
ATOM     14  C   UNL     1      -3.218   2.669  23.465  0.00  0.00    +0.207 C 
ENDROOT
BRANCH  11   6
ATOM      4  O   UNL     1       1.267  -0.347  21.653  0.00  0.00    -0.269 OA
ATOM      6  N   UNL     1       0.802   0.360  23.811  0.00  0.00    -0.302 N 
ATOM     15  C   UNL     1       1.640  -0.050  22.784  0.00  0.00    +0.263 C 
ATOM     24  H   UNL     1       1.200   0.536  24.730  0.00  0.00    +0.150 HD
BRANCH  15  17
ATOM      8  N   UNL     1       3.459  -1.341  23.605  0.00  0.00    -0.250 NA
ATOM     17  C   UNL     1       3.083  -0.150  23.124  0.00  0.00    +0.125 A 
ATOM     19  C   UNL     1       3.888   0.941  22.928  0.00  0.00    +0.033 A 
ATOM     20  C   UNL     1       5.230   0.796  23.263  0.00  0.00    +0.004 A 
ATOM     22  C   UNL     1       4.769  -1.444  23.919  0.00  0.00    +0.111 A 
ATOM     23  C   UNL     1       5.687  -0.417  23.768  0.00  0.00    +0.020 A 
ENDBRANCH  15  17
ENDBRANCH  11   6
BRANCH  12   3
ATOM      3  O   UNL     1      -3.023   3.873  25.561  0.00  0.00    -0.442 OA
BRANCH   3  16
ATOM      5  O   UNL     1      -5.213   4.528  25.350  0.00  0.00    -0.226 OA
ATOM      7  N   UNL     1      -4.658   2.350  25.923  0.00  0.00    -0.281 N 
ATOM     16  C   UNL     1      -4.382   3.659  25.590  0.00  0.00    +0.401 C 
ATOM     25  H   UNL     1      -3.877   1.726  26.099  0.00  0.00    +0.152 HD
BRANCH   7  18
ATOM     18  C   UNL     1      -5.996   1.816  26.035  0.00  0.00    +0.104 C 
ATOM     21  C   UNL     1      -6.585   1.505  24.675  0.00  0.00    +0.024 C 
ENDBRANCH   7  18
ENDBRANCH   3  16
ENDBRANCH  12   3
TORSDOF 5
ENDMDL
MODEL 2
REMARK VINA RESULT:      -3.5     16.385     17.619
REMARK  Name = 11885944
REMARK  6 active torsions:
REMARK  status: ('A' for Active; 'I' for Inactive)
REMARK    1  A    between atoms: O_3  and  C_12
REMARK    2  A    between atoms: O_3  and  C_16
REMARK    3  A    between atoms: N_6  and  C_11
REMARK    4  A    between atoms: N_7  and  C_18
REMARK    5  A    between atoms: C_15  and  C_17
REMARK    6  A    between atoms: C_18  and  C_21
REMARK                            x       y       z     vdW  Elec       q    Type
REMARK                         _______ _______ _______ _____ _____    ______ ____
ROOT
ATOM      1  O   UNL     1      -5.376  -8.723  10.999  0.00  0.00    -0.368 OA
ATOM      2  O   UNL     1      -5.160 -10.651   8.625  0.00  0.00    -0.368 OA
ATOM      9  C   UNL     1      -4.273  -9.617   9.101  0.00  0.00    +0.173 C 
ATOM     10  C   UNL     1      -5.146  -8.484   9.600  0.00  0.00    +0.192 C 
ATOM     11  C   UNL     1      -3.545 -10.088  10.338  0.00  0.00    +0.130 C 
ATOM     12  C   UNL     1      -6.407  -8.661   8.789  0.00  0.00    +0.235 C 
ATOM     13  C   UNL     1      -4.568  -9.829  11.431  0.00  0.00    +0.185 C 
ATOM     14  C   UNL     1      -6.509 -10.166   8.684  0.00  0.00    +0.207 C 
ENDROOT
BRANCH  11   6
ATOM      4  O   UNL     1      -1.501 -10.633  12.280  0.00  0.00    -0.269 OA
ATOM      6  N   UNL     1      -2.339  -9.327  10.557  0.00  0.00    -0.302 N 
ATOM     15  C   UNL     1      -1.405  -9.670  11.524  0.00  0.00    +0.263 C 
ATOM     24  H   UNL     1      -2.194  -8.480  10.012  0.00  0.00    +0.150 HD
BRANCH  15  17
ATOM      8  N   UNL     1       0.755  -9.025  10.771  0.00  0.00    -0.250 NA
ATOM     17  C   UNL     1      -0.229  -8.769  11.641  0.00  0.00    +0.125 A 
ATOM     19  C   UNL     1      -0.239  -7.784  12.593  0.00  0.00    +0.033 A 
ATOM     20  C   UNL     1       0.886  -6.970  12.662  0.00  0.00    +0.004 A 
ATOM     22  C   UNL     1       1.831  -8.213  10.867  0.00  0.00    +0.111 A 
ATOM     23  C   UNL     1       1.945  -7.181  11.786  0.00  0.00    +0.020 A 
ENDBRANCH  15  17
ENDBRANCH  11   6
BRANCH  12   3
ATOM      3  O   UNL     1      -7.549  -8.093   9.390  0.00  0.00    -0.442 OA
BRANCH   3  16
ATOM      5  O   UNL     1      -7.524  -6.177   8.124  0.00  0.00    -0.226 OA
ATOM      7  N   UNL     1      -9.519  -7.138   8.815  0.00  0.00    -0.281 N 
ATOM     16  C   UNL     1      -8.146  -7.051   8.718  0.00  0.00    +0.401 C 
ATOM     25  H   UNL     1      -9.914  -7.914   9.338  0.00  0.00    +0.152 HD
BRANCH   7  18
ATOM     18  C   UNL     1     -10.427  -6.190   8.213  0.00  0.00    +0.104 C 
ATOM     21  C   UNL     1     -10.571  -4.943   9.063  0.00  0.00    +0.024 C 
ENDBRANCH   7  18
ENDBRANCH   3  16
ENDBRANCH  12   3
TORSDOF 5
ENDMDL
MODEL 3
REMARK VINA RESULT:      -3.3      1.440      1.712
REMARK  Name = 11885944
REMARK  6 active torsions:
REMARK  status: ('A' for Active; 'I' for Inactive)
REMARK    1  A    between atoms: O_3  and  C_12
REMARK    2  A    between atoms: O_3  and  C_16
REMARK    3  A    between atoms: N_6  and  C_11
REMARK    4  A    between atoms: N_7  and  C_18
REMARK    5  A    between atoms: C_15  and  C_17
REMARK    6  A    between atoms: C_18  and  C_21
REMARK                            x       y       z     vdW  Elec       q    Type
REMARK                         _______ _______ _______ _____ _____    ______ ____
ROOT
ATOM      1  O   UNL     1      -1.593   0.591  25.010  0.00  0.00    -0.368 OA
ATOM      2  O   UNL     1      -1.981   1.946  22.287  0.00  0.00    -0.368 OA
ATOM      9  C   UNL     1      -0.810   1.779  23.113  0.00  0.00    +0.173 C 
ATOM     10  C   UNL     1      -1.264   1.914  24.552  0.00  0.00    +0.192 C 
ATOM     11  C   UNL     1      -0.309   0.356  23.022  0.00  0.00    +0.130 C 
ATOM     12  C   UNL     1      -2.493   2.782  24.427  0.00  0.00    +0.235 C 
ATOM     13  C   UNL     1      -1.211  -0.366  24.009  0.00  0.00    +0.185 C 
ATOM     14  C   UNL     1      -3.091   2.302  23.124  0.00  0.00    +0.207 C 
ENDROOT
BRANCH  11   6
ATOM      4  O   UNL     1       1.908  -0.310  21.324  0.00  0.00    -0.269 OA
ATOM      6  N   UNL     1       1.076   0.263  23.412  0.00  0.00    -0.302 N 
ATOM     15  C   UNL     1       2.083  -0.067  22.515  0.00  0.00    +0.263 C 
ATOM     24  H   UNL     1       1.314   0.398  24.391  0.00  0.00    +0.150 HD
BRANCH  15  17
ATOM      8  N   UNL     1       4.131   1.007  23.060  0.00  0.00    -0.250 NA
ATOM     17  C   UNL     1       3.455  -0.148  23.080  0.00  0.00    +0.125 A 
ATOM     19  C   UNL     1       3.907  -1.349  23.558  0.00  0.00    +0.033 A 
ATOM     20  C   UNL     1       5.199  -1.370  24.073  0.00  0.00    +0.004 A 
ATOM     22  C   UNL     1       5.382   0.947  23.570  0.00  0.00    +0.111 A 
ATOM     23  C   UNL     1       5.957  -0.204  24.084  0.00  0.00    +0.020 A 
ENDBRANCH  15  17
ENDBRANCH  11   6
BRANCH  12   3
ATOM      3  O   UNL     1      -3.391   2.647  25.505  0.00  0.00    -0.442 OA
BRANCH   3  16
ATOM      5  O   UNL     1      -5.654   2.277  25.374  0.00  0.00    -0.226 OA
ATOM      7  N   UNL     1      -4.131   0.575  24.972  0.00  0.00    -0.281 N 
ATOM     16  C   UNL     1      -4.503   1.864  25.289  0.00  0.00    +0.401 C 
ATOM     25  H   UNL     1      -3.140   0.358  24.934  0.00  0.00    +0.152 HD
BRANCH   7  18
ATOM     18  C   UNL     1      -5.071  -0.485  24.689  0.00  0.00    +0.104 C 
ATOM     21  C   UNL     1      -4.395  -1.662  24.017  0.00  0.00    +0.024 C 
ENDBRANCH   7  18
ENDBRANCH   3  16
ENDBRANCH  12   3
TORSDOF 5
ENDMDL
MODEL 4
REMARK VINA RESULT:      -3.2      1.618      2.429
REMARK  Name = 11885944
REMARK  6 active torsions:
REMARK  status: ('A' for Active; 'I' for Inactive)
REMARK    1  A    between atoms: O_3  and  C_12
REMARK    2  A    between atoms: O_3  and  C_16
REMARK    3  A    between atoms: N_6  and  C_11
REMARK    4  A    between atoms: N_7  and  C_18
REMARK    5  A    between atoms: C_15  and  C_17
REMARK    6  A    between atoms: C_18  and  C_21
REMARK                            x       y       z     vdW  Elec       q    Type
REMARK                         _______ _______ _______ _____ _____    ______ ____
ROOT
ATOM      1  O   UNL     1      -1.779   0.754  25.939  0.00  0.00    -0.368 OA
ATOM      2  O   UNL     1      -3.010  -0.341  23.353  0.00  0.00    -0.368 OA
ATOM      9  C   UNL     1      -1.690   0.162  23.645  0.00  0.00    +0.173 C 
ATOM     10  C   UNL     1      -1.862   1.311  24.617  0.00  0.00    +0.192 C 
ATOM     11  C   UNL     1      -0.905  -0.863  24.430  0.00  0.00    +0.130 C 
ATOM     12  C   UNL     1      -3.257   1.798  24.304  0.00  0.00    +0.235 C 
ATOM     13  C   UNL     1      -1.399  -0.629  25.848  0.00  0.00    +0.185 C 
ATOM     14  C   UNL     1      -3.980   0.509  23.983  0.00  0.00    +0.207 C 
ENDROOT
BRANCH  11   6
ATOM      4  O   UNL     1       0.580  -0.403  22.016  0.00  0.00    -0.269 OA
ATOM      6  N   UNL     1       0.514  -0.630  24.323  0.00  0.00    -0.302 N 
ATOM     15  C   UNL     1       1.146  -0.416  23.106  0.00  0.00    +0.263 C 
ATOM     24  H   UNL     1       1.077  -0.673  25.169  0.00  0.00    +0.150 HD
BRANCH  15  17
ATOM      8  N   UNL     1       3.298  -1.259  23.656  0.00  0.00    -0.250 NA
ATOM     17  C   UNL     1       2.617  -0.218  23.163  0.00  0.00    +0.125 A 
ATOM     19  C   UNL     1       3.145   0.968  22.726  0.00  0.00    +0.033 A 
ATOM     20  C   UNL     1       4.527   1.103  22.803  0.00  0.00    +0.004 A 
ATOM     22  C   UNL     1       4.638  -1.092  23.715  0.00  0.00    +0.111 A 
ATOM     23  C   UNL     1       5.295   0.057  23.305  0.00  0.00    +0.020 A 
ENDBRANCH  15  17
ENDBRANCH  11   6
BRANCH  12   3
ATOM      3  O   UNL     1      -3.863   2.496  25.368  0.00  0.00    -0.442 OA
BRANCH   3  16
ATOM      5  O   UNL     1      -3.170   3.961  26.995  0.00  0.00    -0.226 OA
ATOM      7  N   UNL     1      -2.639   4.300  24.762  0.00  0.00    -0.281 N 
ATOM     16  C   UNL     1      -3.214   3.624  25.816  0.00  0.00    +0.401 C 
ATOM     25  H   UNL     1      -2.748   3.916  23.829  0.00  0.00    +0.152 HD
BRANCH   7  18
ATOM     18  C   UNL     1      -1.887   5.525  24.910  0.00  0.00    +0.104 C 
ATOM     21  C   UNL     1      -0.397   5.282  24.774  0.00  0.00    +0.024 C 
ENDBRANCH   7  18
ENDBRANCH   3  16
ENDBRANCH  12   3
TORSDOF 5
ENDMDL
MODEL 5
REMARK VINA RESULT:      -2.7     16.450     17.679
REMARK  Name = 11885944
REMARK  6 active torsions:
REMARK  status: ('A' for Active; 'I' for Inactive)
REMARK    1  A    between atoms: O_3  and  C_12
REMARK    2  A    between atoms: O_3  and  C_16
REMARK    3  A    between atoms: N_6  and  C_11
REMARK    4  A    between atoms: N_7  and  C_18
REMARK    5  A    between atoms: C_15  and  C_17
REMARK    6  A    between atoms: C_18  and  C_21
REMARK                            x       y       z     vdW  Elec       q    Type
REMARK                         _______ _______ _______ _____ _____    ______ ____
ROOT
ATOM      1  O   UNL     1      -5.542  -8.853  11.039  0.00  0.00    -0.368 OA
ATOM      2  O   UNL     1      -5.344 -10.525   8.476  0.00  0.00    -0.368 OA
ATOM      9  C   UNL     1      -4.466  -9.527   9.036  0.00  0.00    +0.173 C 
ATOM     10  C   UNL     1      -5.348  -8.469   9.667  0.00  0.00    +0.192 C 
ATOM     11  C   UNL     1      -3.701 -10.106  10.204  0.00  0.00    +0.130 C 
ATOM     12  C   UNL     1      -6.624  -8.589   8.869  0.00  0.00    +0.235 C 
ATOM     13  C   UNL     1      -4.704  -9.980  11.339  0.00  0.00    +0.185 C 
ATOM     14  C   UNL     1      -6.701 -10.077   8.612  0.00  0.00    +0.207 C 
ENDROOT
BRANCH  11   6
ATOM      4  O   UNL     1      -1.631 -10.775  12.078  0.00  0.00    -0.269 OA
ATOM      6  N   UNL     1      -2.505  -9.346  10.474  0.00  0.00    -0.302 N 
ATOM     15  C   UNL     1      -1.557  -9.752  11.403  0.00  0.00    +0.263 C 
ATOM     24  H   UNL     1      -2.378  -8.457   9.999  0.00  0.00    +0.150 HD
BRANCH  15  17
ATOM      8  N   UNL     1       0.598  -9.034  10.704  0.00  0.00    -0.250 NA
ATOM     17  C   UNL     1      -0.394  -8.845  11.583  0.00  0.00    +0.125 A 
ATOM     19  C   UNL     1      -0.421  -7.923  12.595  0.00  0.00    +0.033 A 
ATOM     20  C   UNL     1       0.693  -7.100  12.722  0.00  0.00    +0.004 A 
ATOM     22  C   UNL     1       1.662  -8.215  10.857  0.00  0.00    +0.111 A 
ATOM     23  C   UNL     1       1.759  -7.243  11.840  0.00  0.00    +0.020 A 
ENDBRANCH  15  17
ENDBRANCH  11   6
BRANCH  12   3
ATOM      3  O   UNL     1      -7.761  -8.107   9.548  0.00  0.00    -0.442 OA
BRANCH   3  16
ATOM      5  O   UNL     1      -9.638  -9.335   9.055  0.00  0.00    -0.226 OA
ATOM      7  N   UNL     1      -8.575  -9.533  11.107  0.00  0.00    -0.281 N 
ATOM     16  C   UNL     1      -8.744  -9.027   9.836  0.00  0.00    +0.401 C 
ATOM     25  H   UNL     1      -7.792  -9.195  11.657  0.00  0.00    +0.152 HD
BRANCH   7  18
ATOM     18  C   UNL     1      -9.447 -10.520  11.700  0.00  0.00    +0.104 C 
ATOM     21  C   UNL     1     -10.516  -9.872  12.556  0.00  0.00    +0.024 C 
ENDBRANCH   7  18
ENDBRANCH   3  16
ENDBRANCH  12   3
TORSDOF 5
ENDMDL
MODEL 6
REMARK VINA RESULT:      -1.2      1.520      2.194
REMARK  Name = 11885944
REMARK  6 active torsions:
REMARK  status: ('A' for Active; 'I' for Inactive)
REMARK    1  A    between atoms: O_3  and  C_12
REMARK    2  A    between atoms: O_3  and  C_16
REMARK    3  A    between atoms: N_6  and  C_11
REMARK    4  A    between atoms: N_7  and  C_18
REMARK    5  A    between atoms: C_15  and  C_17
REMARK    6  A    between atoms: C_18  and  C_21
REMARK                            x       y       z     vdW  Elec       q    Type
REMARK                         _______ _______ _______ _____ _____    ______ ____
ROOT
ATOM      1  O   UNL     1      -1.012  -0.092  23.837  0.00  0.00    -0.368 OA
ATOM      2  O   UNL     1      -1.369   2.779  24.856  0.00  0.00    -0.368 OA
ATOM      9  C   UNL     1      -0.261   1.860  24.955  0.00  0.00    +0.173 C 
ATOM     10  C   UNL     1      -0.852   0.478  25.147  0.00  0.00    +0.192 C 
ATOM     11  C   UNL     1       0.457   1.767  23.629  0.00  0.00    +0.130 C 
ATOM     12  C   UNL     1      -2.184   0.779  25.792  0.00  0.00    +0.235 C 
ATOM     13  C   UNL     1      -0.405   0.775  22.866  0.00  0.00    +0.185 C 
ATOM     14  C   UNL     1      -2.588   2.063  25.104  0.00  0.00    +0.207 C 
ENDROOT
BRANCH  11   6
ATOM      4  O   UNL     1       1.819  -0.108  21.934  0.00  0.00    -0.269 OA
ATOM      6  N   UNL     1       1.802   1.274  23.796  0.00  0.00    -0.302 N 
ATOM     15  C   UNL     1       2.378   0.364  22.920  0.00  0.00    +0.263 C 
ATOM     24  H   UNL     1       2.329   1.569  24.614  0.00  0.00    +0.150 HD
BRANCH  15  17
ATOM      8  N   UNL     1       3.868  -1.337  23.649  0.00  0.00    -0.250 NA
ATOM     17  C   UNL     1       3.762  -0.066  23.245  0.00  0.00    +0.125 A 
ATOM     19  C   UNL     1       4.785   0.836  23.115  0.00  0.00    +0.033 A 
ATOM     20  C   UNL     1       6.061   0.384  23.434  0.00  0.00    +0.004 A 
ATOM     22  C   UNL     1       5.122  -1.741  23.949  0.00  0.00    +0.111 A 
ATOM     23  C   UNL     1       6.241  -0.928  23.860  0.00  0.00    +0.020 A 
ENDBRANCH  15  17
ENDBRANCH  11   6
BRANCH  12   3
ATOM      3  O   UNL     1      -3.139  -0.242  25.614  0.00  0.00    -0.442 OA
BRANCH   3  16
ATOM      5  O   UNL     1      -4.743  -0.426  23.981  0.00  0.00    -0.226 OA
ATOM      7  N   UNL     1      -4.926   1.147  25.676  0.00  0.00    -0.281 N 
ATOM     16  C   UNL     1      -4.317   0.114  24.996  0.00  0.00    +0.401 C 
ATOM     25  H   UNL     1      -4.469   1.508  26.508  0.00  0.00    +0.152 HD
BRANCH   7  18
ATOM     18  C   UNL     1      -6.179   1.743  25.275  0.00  0.00    +0.104 C 
ATOM     21  C   UNL     1      -6.161   3.247  25.457  0.00  0.00    +0.024 C 
ENDBRANCH   7  18
ENDBRANCH   3  16
ENDBRANCH  12   3
TORSDOF 5
ENDMDL
MODEL 7
REMARK VINA RESULT:      -1.1      2.131      3.057
REMARK  Name = 11885944
REMARK  6 active torsions:
REMARK  status: ('A' for Active; 'I' for Inactive)
REMARK    1  A    between atoms: O_3  and  C_12
REMARK    2  A    between atoms: O_3  and  C_16
REMARK    3  A    between atoms: N_6  and  C_11
REMARK    4  A    between atoms: N_7  and  C_18
REMARK    5  A    between atoms: C_15  and  C_17
REMARK    6  A    between atoms: C_18  and  C_21
REMARK                            x       y       z     vdW  Elec       q    Type
REMARK                         _______ _______ _______ _____ _____    ______ ____
ROOT
ATOM      1  O   UNL     1      -1.544   0.613  23.710  0.00  0.00    -0.368 OA
ATOM      2  O   UNL     1      -1.640   3.466  24.831  0.00  0.00    -0.368 OA
ATOM      9  C   UNL     1      -0.632   2.437  24.919  0.00  0.00    +0.173 C 
ATOM     10  C   UNL     1      -1.362   1.116  25.044  0.00  0.00    +0.192 C 
ATOM     11  C   UNL     1       0.107   2.321  23.606  0.00  0.00    +0.130 C 
ATOM     12  C   UNL     1      -2.673   1.525  25.670  0.00  0.00    +0.235 C 
ATOM     13  C   UNL     1      -0.829   1.449  22.786  0.00  0.00    +0.185 C 
ATOM     14  C   UNL     1      -2.930   2.867  25.025  0.00  0.00    +0.207 C 
ENDROOT
BRANCH  11   6
ATOM      4  O   UNL     1       1.176   0.147  22.064  0.00  0.00    -0.269 OA
ATOM      6  N   UNL     1       1.392   1.690  23.783  0.00  0.00    -0.302 N 
ATOM     15  C   UNL     1       1.824   0.640  22.984  0.00  0.00    +0.263 C 
ATOM     24  H   UNL     1       1.981   1.996  24.553  0.00  0.00    +0.150 HD
BRANCH  15  17
ATOM      8  N   UNL     1       4.159   0.972  23.270  0.00  0.00    -0.250 NA
ATOM     17  C   UNL     1       3.162   0.082  23.311  0.00  0.00    +0.125 A 
ATOM     19  C   UNL     1       3.269  -1.249  23.617  0.00  0.00    +0.033 A 
ATOM     20  C   UNL     1       4.543  -1.721  23.914  0.00  0.00    +0.004 A 
ATOM     22  C   UNL     1       5.382   0.478  23.565  0.00  0.00    +0.111 A 
ATOM     23  C   UNL     1       5.625  -0.847  23.890  0.00  0.00    +0.020 A 
ENDBRANCH  15  17
ENDBRANCH  11   6
BRANCH  12   3
ATOM      3  O   UNL     1      -3.721   0.612  25.432  0.00  0.00    -0.442 OA
BRANCH   3  16
ATOM      5  O   UNL     1      -3.243  -1.251  26.686  0.00  0.00    -0.226 OA
ATOM      7  N   UNL     1      -3.370  -1.357  24.373  0.00  0.00    -0.281 N 
ATOM     16  C   UNL     1      -3.427  -0.723  25.595  0.00  0.00    +0.401 C 
ATOM     25  H   UNL     1      -3.542  -0.806  23.538  0.00  0.00    +0.152 HD
BRANCH   7  18
ATOM     18  C   UNL     1      -3.082  -2.764  24.212  0.00  0.00    +0.104 C 
ATOM     21  C   UNL     1      -4.287  -3.522  23.694  0.00  0.00    +0.024 C 
ENDBRANCH   7  18
ENDBRANCH   3  16
ENDBRANCH  12   3
TORSDOF 5
ENDMDL
