MODEL 1
REMARK VINA RESULT:      -1.0      0.000      0.000
REMARK  Name = 45361190
REMARK  8 active torsions:
REMARK  status: ('A' for Active; 'I' for Inactive)
REMARK    1  A    between atoms: O_3  and  C_24
REMARK    2  A    between atoms: O_3  and  C_25
REMARK    3  A    between atoms: N_4  and  C_16
REMARK    4  A    between atoms: N_5  and  C_19
REMARK    5  A    between atoms: C_11  and  C_14
REMARK    6  A    between atoms: C_14  and  C_17
REMARK    7  A    between atoms: C_17  and  C_23
REMARK    8  A    between atoms: C_18  and  C_24
REMARK                            x       y       z     vdW  Elec       q    Type
REMARK                         _______ _______ _______ _____ _____    ______ ____
ROOT
ATOM      1  O   UNL     1      -3.779   0.528  23.863  0.00  0.00    -0.274 OA
ATOM      4  N   UNL     1      -3.231   3.693  26.025  0.00  0.00    -0.296 NA
ATOM      5  N   UNL     1      -6.007   1.536  25.008  0.00  0.00    -0.293 NA
ATOM      6  N   UNL     1      -2.852   2.567  23.394  0.00  0.00    -0.312 N 
ATOM      8  C   UNL     1      -4.657   3.412  25.750  0.00  0.00    +0.084 C 
ATOM      9  C   UNL     1      -5.015   2.516  24.527  0.00  0.00    +0.160 C 
ATOM     10  C   UNL     1      -5.385   2.691  26.900  0.00  0.00    +0.036 C 
ATOM     11  C   UNL     1      -2.538   4.466  24.955  0.00  0.00    +0.074 C 
ATOM     12  C   UNL     1      -6.597   2.084  26.224  0.00  0.00    +0.086 C 
ATOM     13  C   UNL     1      -2.857   4.011  23.517  0.00  0.00    +0.123 C 
ATOM     15  C   UNL     1      -3.840   1.755  23.919  0.00  0.00    +0.232 C 
ATOM     16  C   UNL     1      -3.070   4.365  27.325  0.00  0.00    +0.105 C 
ATOM     19  C   UNL     1      -7.016   1.200  24.013  0.00  0.00    +0.105 C 
ATOM     26  H   UNL     1      -2.081   2.124  22.906  0.00  0.00    +0.149 HD
ENDROOT
BRANCH  11  14
ATOM     14  C   UNL     1      -1.008   4.386  25.139  0.00  0.00    +0.029 C 
BRANCH  14  17
ATOM     17  C   UNL     1      -0.567   3.027  25.644  0.00  0.00    +0.097 C 
BRANCH  17  23
ATOM      2  O   UNL     1       0.528   2.665  23.561  0.00  0.00    -0.276 OA
ATOM      7  N   UNL     1      -0.318   0.805  24.646  0.00  0.00    -0.296 N 
ATOM     18  C   UNL     1       0.014  -0.164  23.599  0.00  0.00    +0.102 C 
ATOM     20  C   UNL     1      -0.815  -1.398  23.969  0.00  0.00    +0.026 C 
ATOM     21  C   UNL     1      -1.016   0.164  25.758  0.00  0.00    +0.108 C 
ATOM     22  C   UNL     1      -0.891  -1.329  25.490  0.00  0.00    +0.021 C 
ATOM     23  C   UNL     1      -0.066   2.160  24.515  0.00  0.00    +0.216 C 
BRANCH  18  24
ATOM     24  C   UNL     1       1.511  -0.464  23.570  0.00  0.00    +0.181 C 
BRANCH  24   3
ATOM      3  O   UNL     1       2.057   0.093  22.388  0.00  0.00    -0.381 OA
ATOM     25  C   UNL     1       3.380   0.575  22.595  0.00  0.00    +0.194 C 
ENDBRANCH  24   3
ENDBRANCH  18  24
ENDBRANCH  17  23
ENDBRANCH  14  17
ENDBRANCH  11  14
TORSDOF 5
ENDMDL
MODEL 2
REMARK VINA RESULT:      -0.9     15.451     16.854
REMARK  Name = 45361190
REMARK  8 active torsions:
REMARK  status: ('A' for Active; 'I' for Inactive)
REMARK    1  A    between atoms: O_3  and  C_24
REMARK    2  A    between atoms: O_3  and  C_25
REMARK    3  A    between atoms: N_4  and  C_16
REMARK    4  A    between atoms: N_5  and  C_19
REMARK    5  A    between atoms: C_11  and  C_14
REMARK    6  A    between atoms: C_14  and  C_17
REMARK    7  A    between atoms: C_17  and  C_23
REMARK    8  A    between atoms: C_18  and  C_24
REMARK                            x       y       z     vdW  Elec       q    Type
REMARK                         _______ _______ _______ _____ _____    ______ ____
ROOT
ATOM      1  O   UNL     1      -7.138  -8.547  16.467  0.00  0.00    -0.274 OA
ATOM      4  N   UNL     1      -8.899  -9.774  13.245  0.00  0.00    -0.296 NA
ATOM      5  N   UNL     1      -9.338 -10.061  16.866  0.00  0.00    -0.293 NA
ATOM      6  N   UNL     1      -6.389  -9.749  14.670  0.00  0.00    -0.312 N 
ATOM      8  C   UNL     1      -9.389 -10.443  14.470  0.00  0.00    +0.084 C 
ATOM      9  C   UNL     1      -8.476 -10.442  15.732  0.00  0.00    +0.160 C 
ATOM     10  C   UNL     1     -10.700  -9.853  15.022  0.00  0.00    +0.036 C 
ATOM     11  C   UNL     1      -7.677 -10.390  12.653  0.00  0.00    +0.074 C 
ATOM     12  C   UNL     1     -10.716 -10.317  16.463  0.00  0.00    +0.086 C 
ATOM     13  C   UNL     1      -6.589 -10.781  13.673  0.00  0.00    +0.123 C 
ATOM     15  C   UNL     1      -7.298  -9.474  15.675  0.00  0.00    +0.232 C 
ATOM     16  C   UNL     1      -9.965  -9.684  12.233  0.00  0.00    +0.105 C 
ATOM     19  C   UNL     1      -8.995 -10.742  18.107  0.00  0.00    +0.105 C 
ATOM     26  H   UNL     1      -5.543  -9.190  14.627  0.00  0.00    +0.149 HD
ENDROOT
BRANCH  11  14
ATOM     14  C   UNL     1      -7.032  -9.432  11.630  0.00  0.00    +0.029 C 
BRANCH  14  17
ATOM     17  C   UNL     1      -5.776  -8.780  12.176  0.00  0.00    +0.097 C 
BRANCH  17  23
ATOM      2  O   UNL     1      -4.744  -8.529  10.045  0.00  0.00    -0.276 OA
ATOM      7  N   UNL     1      -3.475  -9.486  11.727  0.00  0.00    -0.296 N 
ATOM     18  C   UNL     1      -2.300  -9.779  10.904  0.00  0.00    +0.102 C 
ATOM     20  C   UNL     1      -1.495 -10.764  11.755  0.00  0.00    +0.026 C 
ATOM     21  C   UNL     1      -3.292  -9.958  13.098  0.00  0.00    +0.108 C 
ATOM     22  C   UNL     1      -1.822 -10.345  13.184  0.00  0.00    +0.021 C 
ATOM     23  C   UNL     1      -4.626  -8.917  11.209  0.00  0.00    +0.216 C 
BRANCH  18  24
ATOM     24  C   UNL     1      -1.509  -8.511  10.588  0.00  0.00    +0.181 C 
BRANCH  24   3
ATOM      3  O   UNL     1      -0.157  -8.724  10.950  0.00  0.00    -0.381 OA
ATOM     25  C   UNL     1       0.298  -7.752  11.886  0.00  0.00    +0.194 C 
ENDBRANCH  24   3
ENDBRANCH  18  24
ENDBRANCH  17  23
ENDBRANCH  14  17
ENDBRANCH  11  14
TORSDOF 5
ENDMDL
MODEL 3
REMARK VINA RESULT:      -0.2      1.723      2.626
REMARK  Name = 45361190
REMARK  8 active torsions:
REMARK  status: ('A' for Active; 'I' for Inactive)
REMARK    1  A    between atoms: O_3  and  C_24
REMARK    2  A    between atoms: O_3  and  C_25
REMARK    3  A    between atoms: N_4  and  C_16
REMARK    4  A    between atoms: N_5  and  C_19
REMARK    5  A    between atoms: C_11  and  C_14
REMARK    6  A    between atoms: C_14  and  C_17
REMARK    7  A    between atoms: C_17  and  C_23
REMARK    8  A    between atoms: C_18  and  C_24
REMARK                            x       y       z     vdW  Elec       q    Type
REMARK                         _______ _______ _______ _____ _____    ______ ____
ROOT
ATOM      1  O   UNL     1      -4.026   0.209  25.148  0.00  0.00    -0.274 OA
ATOM      4  N   UNL     1      -2.533   3.768  24.840  0.00  0.00    -0.296 NA
ATOM      5  N   UNL     1      -5.826   2.221  25.234  0.00  0.00    -0.293 NA
ATOM      6  N   UNL     1      -2.704   1.188  23.558  0.00  0.00    -0.312 N 
ATOM      8  C   UNL     1      -4.006   3.739  24.708  0.00  0.00    +0.084 C 
ATOM      9  C   UNL     1      -4.689   2.396  24.311  0.00  0.00    +0.160 C 
ATOM     10  C   UNL     1      -4.758   4.111  25.999  0.00  0.00    +0.036 C 
ATOM     11  C   UNL     1      -1.795   3.493  23.575  0.00  0.00    +0.074 C 
ATOM     12  C   UNL     1      -6.141   3.535  25.781  0.00  0.00    +0.086 C 
ATOM     13  C   UNL     1      -2.359   2.330  22.735  0.00  0.00    +0.123 C 
ATOM     15  C   UNL     1      -3.794   1.164  24.408  0.00  0.00    +0.232 C 
ATOM     16  C   UNL     1      -2.085   5.043  25.425  0.00  0.00    +0.105 C 
ATOM     19  C   UNL     1      -6.984   1.594  24.611  0.00  0.00    +0.105 C 
ATOM     26  H   UNL     1      -2.113   0.365  23.517  0.00  0.00    +0.149 HD
ENDROOT
BRANCH  11  14
ATOM     14  C   UNL     1      -0.315   3.174  23.874  0.00  0.00    +0.029 C 
BRANCH  14  17
ATOM     17  C   UNL     1      -0.118   2.667  25.288  0.00  0.00    +0.097 C 
BRANCH  17  23
ATOM      2  O   UNL     1      -1.044   0.716  26.291  0.00  0.00    -0.276 OA
ATOM      7  N   UNL     1       0.214   0.421  24.371  0.00  0.00    -0.296 N 
ATOM     18  C   UNL     1       0.155  -1.043  24.357  0.00  0.00    +0.102 C 
ATOM     20  C   UNL     1       1.257  -1.441  23.370  0.00  0.00    +0.026 C 
ATOM     21  C   UNL     1       1.026   0.929  23.268  0.00  0.00    +0.108 C 
ATOM     22  C   UNL     1       1.281  -0.281  22.381  0.00  0.00    +0.021 C 
ATOM     23  C   UNL     1      -0.363   1.181  25.375  0.00  0.00    +0.216 C 
BRANCH  18  24
ATOM     24  C   UNL     1      -1.220  -1.542  23.918  0.00  0.00    +0.181 C 
BRANCH  24   3
ATOM      3  O   UNL     1      -1.762  -2.332  24.959  0.00  0.00    -0.381 OA
ATOM     25  C   UNL     1      -3.052  -2.834  24.624  0.00  0.00    +0.194 C 
ENDBRANCH  24   3
ENDBRANCH  18  24
ENDBRANCH  17  23
ENDBRANCH  14  17
ENDBRANCH  11  14
TORSDOF 5
ENDMDL
MODEL 4
REMARK VINA RESULT:      -0.2     15.664     18.036
REMARK  Name = 45361190
REMARK  8 active torsions:
REMARK  status: ('A' for Active; 'I' for Inactive)
REMARK    1  A    between atoms: O_3  and  C_24
REMARK    2  A    between atoms: O_3  and  C_25
REMARK    3  A    between atoms: N_4  and  C_16
REMARK    4  A    between atoms: N_5  and  C_19
REMARK    5  A    between atoms: C_11  and  C_14
REMARK    6  A    between atoms: C_14  and  C_17
REMARK    7  A    between atoms: C_17  and  C_23
REMARK    8  A    between atoms: C_18  and  C_24
REMARK                            x       y       z     vdW  Elec       q    Type
REMARK                         _______ _______ _______ _____ _____    ______ ____
ROOT
ATOM      1  O   UNL     1      -1.899  -8.509  15.842  0.00  0.00    -0.274 OA
ATOM      4  N   UNL     1      -4.341  -9.881  13.169  0.00  0.00    -0.296 NA
ATOM      5  N   UNL     1      -3.861 -10.103  16.790  0.00  0.00    -0.293 NA
ATOM      6  N   UNL     1      -1.561  -9.719  13.929  0.00  0.00    -0.312 N 
ATOM      8  C   UNL     1      -4.483 -10.541  14.485  0.00  0.00    +0.084 C 
ATOM      9  C   UNL     1      -3.288 -10.473  15.482  0.00  0.00    +0.160 C 
ATOM     10  C   UNL     1      -5.643  -9.994  15.337  0.00  0.00    +0.036 C 
ATOM     11  C   UNL     1      -3.275 -10.459  12.301  0.00  0.00    +0.074 C 
ATOM     12  C   UNL     1      -5.283 -10.426  16.743  0.00  0.00    +0.086 C 
ATOM     13  C   UNL     1      -1.953 -10.781  13.025  0.00  0.00    +0.123 C 
ATOM     15  C   UNL     1      -2.206  -9.459  15.125  0.00  0.00    +0.232 C 
ATOM     16  C   UNL     1      -5.626  -9.859  12.452  0.00  0.00    +0.105 C 
ATOM     19  C   UNL     1      -3.191 -10.741  17.915  0.00  0.00    +0.105 C 
ATOM     26  H   UNL     1      -0.778  -9.127  13.672  0.00  0.00    +0.149 HD
ENDROOT
BRANCH  11  14
ATOM     14  C   UNL     1      -2.947  -9.498  11.140  0.00  0.00    +0.029 C 
BRANCH  14  17
ATOM     17  C   UNL     1      -3.813  -9.759   9.924  0.00  0.00    +0.097 C 
BRANCH  17  23
ATOM      2  O   UNL     1      -4.873  -7.653  10.255  0.00  0.00    -0.276 OA
ATOM      7  N   UNL     1      -6.173  -9.366   9.403  0.00  0.00    -0.296 N 
ATOM     18  C   UNL     1      -7.436  -8.624   9.386  0.00  0.00    +0.102 C 
ATOM     20  C   UNL     1      -8.497  -9.715   9.212  0.00  0.00    +0.026 C 
ATOM     21  C   UNL     1      -6.362 -10.743   8.951  0.00  0.00    +0.108 C 
ATOM     22  C   UNL     1      -7.777 -10.779   8.392  0.00  0.00    +0.021 C 
ATOM     23  C   UNL     1      -4.994  -8.821   9.883  0.00  0.00    +0.216 C 
BRANCH  18  24
ATOM     24  C   UNL     1      -7.468  -7.603   8.250  0.00  0.00    +0.181 C 
BRANCH  24   3
ATOM      3  O   UNL     1      -8.787  -7.103   8.134  0.00  0.00    -0.381 OA
ATOM     25  C   UNL     1      -8.829  -5.688   8.285  0.00  0.00    +0.194 C 
ENDBRANCH  24   3
ENDBRANCH  18  24
ENDBRANCH  17  23
ENDBRANCH  14  17
ENDBRANCH  11  14
TORSDOF 5
ENDMDL
MODEL 5
REMARK VINA RESULT:       0.4      2.279      5.430
REMARK  Name = 45361190
REMARK  8 active torsions:
REMARK  status: ('A' for Active; 'I' for Inactive)
REMARK    1  A    between atoms: O_3  and  C_24
REMARK    2  A    between atoms: O_3  and  C_25
REMARK    3  A    between atoms: N_4  and  C_16
REMARK    4  A    between atoms: N_5  and  C_19
REMARK    5  A    between atoms: C_11  and  C_14
REMARK    6  A    between atoms: C_14  and  C_17
REMARK    7  A    between atoms: C_17  and  C_23
REMARK    8  A    between atoms: C_18  and  C_24
REMARK                            x       y       z     vdW  Elec       q    Type
REMARK                         _______ _______ _______ _____ _____    ______ ____
ROOT
ATOM      1  O   UNL     1      -1.875  -1.348  26.790  0.00  0.00    -0.274 OA
ATOM      4  N   UNL     1      -1.602   0.777  23.565  0.00  0.00    -0.296 NA
ATOM      5  N   UNL     1      -3.509  -2.101  24.777  0.00  0.00    -0.293 NA
ATOM      6  N   UNL     1      -0.105  -0.835  25.433  0.00  0.00    -0.312 N 
ATOM      8  C   UNL     1      -2.380  -0.467  23.381  0.00  0.00    +0.084 C 
ATOM      9  C   UNL     1      -2.165  -1.633  24.391  0.00  0.00    +0.160 C 
ATOM     10  C   UNL     1      -3.906  -0.266  23.445  0.00  0.00    +0.036 C 
ATOM     11  C   UNL     1      -0.128   0.610  23.421  0.00  0.00    +0.074 C 
ATOM     12  C   UNL     1      -4.433  -1.655  23.740  0.00  0.00    +0.086 C 
ATOM     13  C   UNL     1       0.453  -0.641  24.110  0.00  0.00    +0.123 C 
ATOM     15  C   UNL     1      -1.402  -1.257  25.659  0.00  0.00    +0.232 C 
ATOM     16  C   UNL     1      -2.086   1.836  22.664  0.00  0.00    +0.105 C 
ATOM     19  C   UNL     1      -3.580  -3.541  24.990  0.00  0.00    +0.105 C 
ATOM     26  H   UNL     1       0.480  -0.645  26.240  0.00  0.00    +0.149 HD
ENDROOT
BRANCH  11  14
ATOM     14  C   UNL     1       0.612   1.839  23.989  0.00  0.00    +0.029 C 
BRANCH  14  17
ATOM     17  C   UNL     1       0.249   2.101  25.437  0.00  0.00    +0.097 C 
BRANCH  17  23
ATOM      2  O   UNL     1      -2.018   1.586  25.953  0.00  0.00    -0.276 OA
ATOM      7  N   UNL     1      -1.555   3.749  25.275  0.00  0.00    -0.296 N 
ATOM     18  C   UNL     1      -2.941   4.221  25.269  0.00  0.00    +0.102 C 
ATOM     20  C   UNL     1      -2.877   5.528  24.473  0.00  0.00    +0.026 C 
ATOM     21  C   UNL     1      -0.637   4.795  24.831  0.00  0.00    +0.108 C 
ATOM     22  C   UNL     1      -1.482   6.060  24.781  0.00  0.00    +0.021 C 
ATOM     23  C   UNL     1      -1.214   2.442  25.580  0.00  0.00    +0.216 C 
BRANCH  18  24
ATOM     24  C   UNL     1      -3.464   4.436  26.688  0.00  0.00    +0.181 C 
BRANCH  24   3
ATOM      3  O   UNL     1      -4.635   3.658  26.856  0.00  0.00    -0.381 OA
ATOM     25  C   UNL     1      -5.143   3.192  25.610  0.00  0.00    +0.194 C 
ENDBRANCH  24   3
ENDBRANCH  18  24
ENDBRANCH  17  23
ENDBRANCH  14  17
ENDBRANCH  11  14
TORSDOF 5
ENDMDL
MODEL 6
REMARK VINA RESULT:       1.1      2.321      5.047
REMARK  Name = 45361190
REMARK  8 active torsions:
REMARK  status: ('A' for Active; 'I' for Inactive)
REMARK    1  A    between atoms: O_3  and  C_24
REMARK    2  A    between atoms: O_3  and  C_25
REMARK    3  A    between atoms: N_4  and  C_16
REMARK    4  A    between atoms: N_5  and  C_19
REMARK    5  A    between atoms: C_11  and  C_14
REMARK    6  A    between atoms: C_14  and  C_17
REMARK    7  A    between atoms: C_17  and  C_23
REMARK    8  A    between atoms: C_18  and  C_24
REMARK                            x       y       z     vdW  Elec       q    Type
REMARK                         _______ _______ _______ _____ _____    ______ ____
ROOT
ATOM      1  O   UNL     1      -2.017  -1.138  26.867  0.00  0.00    -0.274 OA
ATOM      4  N   UNL     1      -1.626   0.781  23.527  0.00  0.00    -0.296 NA
ATOM      5  N   UNL     1      -3.535  -2.055  24.830  0.00  0.00    -0.293 NA
ATOM      6  N   UNL     1      -0.193  -0.674  25.566  0.00  0.00    -0.312 N 
ATOM      8  C   UNL     1      -2.370  -0.489  23.387  0.00  0.00    +0.084 C 
ATOM      9  C   UNL     1      -2.182  -1.583  24.480  0.00  0.00    +0.160 C 
ATOM     10  C   UNL     1      -3.900  -0.319  23.364  0.00  0.00    +0.036 C 
ATOM     11  C   UNL     1      -0.144   0.638  23.465  0.00  0.00    +0.074 C 
ATOM     12  C   UNL     1      -4.415  -1.697  23.723  0.00  0.00    +0.086 C 
ATOM     13  C   UNL     1       0.426  -0.552  24.261  0.00  0.00    +0.123 C 
ATOM     15  C   UNL     1      -1.491  -1.109  25.755  0.00  0.00    +0.232 C 
ATOM     16  C   UNL     1      -2.085   1.769  22.536  0.00  0.00    +0.105 C 
ATOM     19  C   UNL     1      -3.589  -3.479  25.134  0.00  0.00    +0.105 C 
ATOM     26  H   UNL     1       0.348  -0.419  26.385  0.00  0.00    +0.149 HD
ENDROOT
BRANCH  11  14
ATOM     14  C   UNL     1       0.543   1.917  23.986  0.00  0.00    +0.029 C 
BRANCH  14  17
ATOM     17  C   UNL     1       0.030   2.320  25.354  0.00  0.00    +0.097 C 
BRANCH  17  23
ATOM      2  O   UNL     1      -0.309   4.652  25.010  0.00  0.00    -0.276 OA
ATOM      7  N   UNL     1      -2.174   3.375  25.507  0.00  0.00    -0.296 N 
ATOM     18  C   UNL     1      -3.127   4.487  25.561  0.00  0.00    +0.102 C 
ATOM     20  C   UNL     1      -4.350   3.884  26.258  0.00  0.00    +0.026 C 
ATOM     21  C   UNL     1      -2.824   2.106  25.821  0.00  0.00    +0.108 C 
ATOM     22  C   UNL     1      -4.313   2.421  25.831  0.00  0.00    +0.021 C 
ATOM     23  C   UNL     1      -0.822   3.563  25.274  0.00  0.00    +0.216 C 
BRANCH  18  24
ATOM     24  C   UNL     1      -3.458   5.008  24.164  0.00  0.00    +0.181 C 
BRANCH  24   3
ATOM      3  O   UNL     1      -4.490   4.206  23.620  0.00  0.00    -0.381 OA
ATOM     25  C   UNL     1      -4.072   3.542  22.433  0.00  0.00    +0.194 C 
ENDBRANCH  24   3
ENDBRANCH  18  24
ENDBRANCH  17  23
ENDBRANCH  14  17
ENDBRANCH  11  14
TORSDOF 5
ENDMDL
MODEL 7
REMARK VINA RESULT:       1.1      1.933      3.507
REMARK  Name = 45361190
REMARK  8 active torsions:
REMARK  status: ('A' for Active; 'I' for Inactive)
REMARK    1  A    between atoms: O_3  and  C_24
REMARK    2  A    between atoms: O_3  and  C_25
REMARK    3  A    between atoms: N_4  and  C_16
REMARK    4  A    between atoms: N_5  and  C_19
REMARK    5  A    between atoms: C_11  and  C_14
REMARK    6  A    between atoms: C_14  and  C_17
REMARK    7  A    between atoms: C_17  and  C_23
REMARK    8  A    between atoms: C_18  and  C_24
REMARK                            x       y       z     vdW  Elec       q    Type
REMARK                         _______ _______ _______ _____ _____    ______ ____
ROOT
ATOM      1  O   UNL     1      -4.096   1.385  24.009  0.00  0.00    -0.274 OA
ATOM      4  N   UNL     1      -0.740   2.770  25.354  0.00  0.00    -0.296 NA
ATOM      5  N   UNL     1      -4.312   3.500  25.674  0.00  0.00    -0.293 NA
ATOM      6  N   UNL     1      -2.216   2.150  22.953  0.00  0.00    -0.312 N 
ATOM      8  C   UNL     1      -1.890   3.660  25.624  0.00  0.00    +0.084 C 
ATOM      9  C   UNL     1      -3.167   3.510  24.745  0.00  0.00    +0.160 C 
ATOM     10  C   UNL     1      -2.464   3.527  27.047  0.00  0.00    +0.036 C 
ATOM     11  C   UNL     1      -0.123   2.950  24.010  0.00  0.00    +0.074 C 
ATOM     12  C   UNL     1      -3.858   4.105  26.921  0.00  0.00    +0.086 C 
ATOM     13  C   UNL     1      -1.127   3.101  22.850  0.00  0.00    +0.123 C 
ATOM     15  C   UNL     1      -3.222   2.242  23.897  0.00  0.00    +0.232 C 
ATOM     16  C   UNL     1       0.282   2.900  26.406  0.00  0.00    +0.105 C 
ATOM     19  C   UNL     1      -5.494   4.163  25.142  0.00  0.00    +0.105 C 
ATOM     26  H   UNL     1      -2.241   1.370  22.305  0.00  0.00    +0.149 HD
ENDROOT
BRANCH  11  14
ATOM     14  C   UNL     1       0.797   1.757  23.675  0.00  0.00    +0.029 C 
BRANCH  14  17
ATOM     17  C   UNL     1       0.532   0.566  24.574  0.00  0.00    +0.097 C 
BRANCH  17  23
ATOM      2  O   UNL     1      -0.615  -0.578  22.829  0.00  0.00    -0.276 OA
ATOM      7  N   UNL     1      -1.515  -0.723  24.956  0.00  0.00    -0.296 N 
ATOM     18  C   UNL     1      -2.708  -1.485  24.580  0.00  0.00    +0.102 C 
ATOM     20  C   UNL     1      -3.626  -1.348  25.798  0.00  0.00    +0.026 C 
ATOM     21  C   UNL     1      -1.513  -0.413  26.383  0.00  0.00    +0.108 C 
ATOM     22  C   UNL     1      -2.650  -1.241  26.964  0.00  0.00    +0.021 C 
ATOM     23  C   UNL     1      -0.580  -0.294  24.027  0.00  0.00    +0.216 C 
BRANCH  18  24
ATOM     24  C   UNL     1      -2.368  -2.943  24.276  0.00  0.00    +0.181 C 
BRANCH  24   3
ATOM      3  O   UNL     1      -3.576  -3.656  24.091  0.00  0.00    -0.381 OA
ATOM     25  C   UNL     1      -4.565  -2.860  23.445  0.00  0.00    +0.194 C 
ENDBRANCH  24   3
ENDBRANCH  18  24
ENDBRANCH  17  23
ENDBRANCH  14  17
ENDBRANCH  11  14
TORSDOF 5
ENDMDL
MODEL 8
REMARK VINA RESULT:       1.2      2.064      3.887
REMARK  Name = 45361190
REMARK  8 active torsions:
REMARK  status: ('A' for Active; 'I' for Inactive)
REMARK    1  A    between atoms: O_3  and  C_24
REMARK    2  A    between atoms: O_3  and  C_25
REMARK    3  A    between atoms: N_4  and  C_16
REMARK    4  A    between atoms: N_5  and  C_19
REMARK    5  A    between atoms: C_11  and  C_14
REMARK    6  A    between atoms: C_14  and  C_17
REMARK    7  A    between atoms: C_17  and  C_23
REMARK    8  A    between atoms: C_18  and  C_24
REMARK                            x       y       z     vdW  Elec       q    Type
REMARK                         _______ _______ _______ _____ _____    ______ ____
ROOT
ATOM      1  O   UNL     1      -4.312   1.682  23.846  0.00  0.00    -0.274 OA
ATOM      4  N   UNL     1      -0.856   2.397  25.439  0.00  0.00    -0.296 NA
ATOM      5  N   UNL     1      -4.222   3.832  25.478  0.00  0.00    -0.293 NA
ATOM      6  N   UNL     1      -2.243   2.034  22.934  0.00  0.00    -0.312 N 
ATOM      8  C   UNL     1      -1.821   3.505  25.613  0.00  0.00    +0.084 C 
ATOM      9  C   UNL     1      -3.033   3.594  24.639  0.00  0.00    +0.160 C 
ATOM     10  C   UNL     1      -2.514   3.519  26.988  0.00  0.00    +0.036 C 
ATOM     11  C   UNL     1      -0.117   2.421  24.144  0.00  0.00    +0.074 C 
ATOM     12  C   UNL     1      -3.750   4.362  26.752  0.00  0.00    +0.086 C 
ATOM     13  C   UNL     1      -0.981   2.745  22.910  0.00  0.00    +0.123 C 
ATOM     15  C   UNL     1      -3.277   2.345  23.797  0.00  0.00    +0.232 C 
ATOM     16  C   UNL     1       0.090   2.343  26.565  0.00  0.00    +0.105 C 
ATOM     19  C   UNL     1      -5.205   4.707  24.851  0.00  0.00    +0.105 C 
ATOM     26  H   UNL     1      -2.376   1.260  22.291  0.00  0.00    +0.149 HD
ENDROOT
BRANCH  11  14
ATOM     14  C   UNL     1       0.566   1.062  23.889  0.00  0.00    +0.029 C 
BRANCH  14  17
ATOM     17  C   UNL     1      -0.408   0.026  23.365  0.00  0.00    +0.097 C 
BRANCH  17  23
ATOM      2  O   UNL     1      -0.175  -1.095  25.453  0.00  0.00    -0.276 OA
ATOM      7  N   UNL     1      -2.151  -1.422  24.294  0.00  0.00    -0.296 N 
ATOM     18  C   UNL     1      -2.730  -2.395  25.223  0.00  0.00    +0.102 C 
ATOM     20  C   UNL     1      -3.878  -3.021  24.426  0.00  0.00    +0.026 C 
ATOM     21  C   UNL     1      -3.029  -1.195  23.149  0.00  0.00    +0.108 C 
ATOM     22  C   UNL     1      -4.335  -1.886  23.516  0.00  0.00    +0.021 C 
ATOM     23  C   UNL     1      -0.888  -0.881  24.471  0.00  0.00    +0.216 C 
BRANCH  18  24
ATOM     24  C   UNL     1      -3.218  -1.722  26.504  0.00  0.00    +0.181 C 
BRANCH  24   3
ATOM      3  O   UNL     1      -3.282  -0.326  26.281  0.00  0.00    -0.381 OA
ATOM     25  C   UNL     1      -4.626   0.126  26.150  0.00  0.00    +0.194 C 
ENDBRANCH  24   3
ENDBRANCH  18  24
ENDBRANCH  17  23
ENDBRANCH  14  17
ENDBRANCH  11  14
TORSDOF 5
ENDMDL
MODEL 9
REMARK VINA RESULT:       1.2      2.009      3.627
REMARK  Name = 45361190
REMARK  8 active torsions:
REMARK  status: ('A' for Active; 'I' for Inactive)
REMARK    1  A    between atoms: O_3  and  C_24
REMARK    2  A    between atoms: O_3  and  C_25
REMARK    3  A    between atoms: N_4  and  C_16
REMARK    4  A    between atoms: N_5  and  C_19
REMARK    5  A    between atoms: C_11  and  C_14
REMARK    6  A    between atoms: C_14  and  C_17
REMARK    7  A    between atoms: C_17  and  C_23
REMARK    8  A    between atoms: C_18  and  C_24
REMARK                            x       y       z     vdW  Elec       q    Type
REMARK                         _______ _______ _______ _____ _____    ______ ____
ROOT
ATOM      1  O   UNL     1      -6.002   1.745  26.392  0.00  0.00    -0.274 OA
ATOM      4  N   UNL     1      -2.304   1.245  25.363  0.00  0.00    -0.296 NA
ATOM      5  N   UNL     1      -4.680   4.003  25.725  0.00  0.00    -0.293 NA
ATOM      6  N   UNL     1      -5.017   0.451  24.783  0.00  0.00    -0.312 N 
ATOM      8  C   UNL     1      -2.817   2.598  25.058  0.00  0.00    +0.084 C 
ATOM      9  C   UNL     1      -4.358   2.797  24.940  0.00  0.00    +0.160 C 
ATOM     10  C   UNL     1      -2.435   3.662  26.102  0.00  0.00    +0.036 C 
ATOM     11  C   UNL     1      -2.594   0.223  24.317  0.00  0.00    +0.074 C 
ATOM     12  C   UNL     1      -3.445   4.766  25.868  0.00  0.00    +0.086 C 
ATOM     13  C   UNL     1      -4.024   0.273  23.743  0.00  0.00    +0.123 C 
ATOM     15  C   UNL     1      -5.201   1.639  25.466  0.00  0.00    +0.232 C 
ATOM     16  C   UNL     1      -0.860   1.284  25.649  0.00  0.00    +0.105 C 
ATOM     19  C   UNL     1      -5.752   4.800  25.145  0.00  0.00    +0.105 C 
ATOM     26  H   UNL     1      -5.605  -0.338  25.033  0.00  0.00    +0.149 HD
ENDROOT
BRANCH  11  14
ATOM     14  C   UNL     1      -2.367  -1.197  24.873  0.00  0.00    +0.029 C 
BRANCH  14  17
ATOM     17  C   UNL     1      -1.325  -1.958  24.077  0.00  0.00    +0.097 C 
BRANCH  17  23
ATOM      2  O   UNL     1       0.476  -1.781  25.624  0.00  0.00    -0.276 OA
ATOM      7  N   UNL     1       0.828  -0.948  23.494  0.00  0.00    -0.296 N 
ATOM     18  C   UNL     1       2.168  -0.411  23.744  0.00  0.00    +0.102 C 
ATOM     20  C   UNL     1       2.414   0.521  22.555  0.00  0.00    +0.026 C 
ATOM     21  C   UNL     1       0.391  -0.665  22.129  0.00  0.00    +0.108 C 
ATOM     22  C   UNL     1       1.631  -0.136  21.424  0.00  0.00    +0.021 C 
ATOM     23  C   UNL     1       0.072  -1.557  24.481  0.00  0.00    +0.216 C 
BRANCH  18  24
ATOM     24  C   UNL     1       3.209  -1.526  23.828  0.00  0.00    +0.181 C 
BRANCH  24   3
ATOM      3  O   UNL     1       4.426  -1.044  23.288  0.00  0.00    -0.381 OA
ATOM     25  C   UNL     1       5.317  -0.603  24.307  0.00  0.00    +0.194 C 
ENDBRANCH  24   3
ENDBRANCH  18  24
ENDBRANCH  17  23
ENDBRANCH  14  17
ENDBRANCH  11  14
TORSDOF 5
ENDMDL
MODEL 10
REMARK VINA RESULT:       1.6     16.833     17.964
REMARK  Name = 45361190
REMARK  8 active torsions:
REMARK  status: ('A' for Active; 'I' for Inactive)
REMARK    1  A    between atoms: O_3  and  C_24
REMARK    2  A    between atoms: O_3  and  C_25
REMARK    3  A    between atoms: N_4  and  C_16
REMARK    4  A    between atoms: N_5  and  C_19
REMARK    5  A    between atoms: C_11  and  C_14
REMARK    6  A    between atoms: C_14  and  C_17
REMARK    7  A    between atoms: C_17  and  C_23
REMARK    8  A    between atoms: C_18  and  C_24
REMARK                            x       y       z     vdW  Elec       q    Type
REMARK                         _______ _______ _______ _____ _____    ______ ____
ROOT
ATOM      1  O   UNL     1      -7.032  -8.598  13.558  0.00  0.00    -0.274 OA
ATOM      4  N   UNL     1      -7.786  -9.026   9.785  0.00  0.00    -0.296 NA
ATOM      5  N   UNL     1      -9.573  -9.298  12.967  0.00  0.00    -0.293 NA
ATOM      6  N   UNL     1      -6.080  -9.906  11.940  0.00  0.00    -0.312 N 
ATOM      8  C   UNL     1      -8.863  -9.541  10.658  0.00  0.00    +0.084 C 
ATOM      9  C   UNL     1      -8.515  -9.900  12.133  0.00  0.00    +0.160 C 
ATOM     10  C   UNL     1     -10.044  -8.569  10.835  0.00  0.00    +0.036 C 
ATOM     11  C   UNL     1      -6.678  -9.992   9.537  0.00  0.00    +0.074 C 
ATOM     12  C   UNL     1     -10.720  -9.059  12.098  0.00  0.00    +0.086 C 
ATOM     13  C   UNL     1      -6.205 -10.768  10.782  0.00  0.00    +0.123 C 
ATOM     15  C   UNL     1      -7.164  -9.383  12.621  0.00  0.00    +0.232 C 
ATOM     16  C   UNL     1      -8.334  -8.541   8.507  0.00  0.00    +0.105 C 
ATOM     19  C   UNL     1      -9.923 -10.107  14.127  0.00  0.00    +0.105 C 
ATOM     26  H   UNL     1      -5.151  -9.663  12.266  0.00  0.00    +0.149 HD
ENDROOT
BRANCH  11  14
ATOM     14  C   UNL     1      -5.451  -9.265   8.949  0.00  0.00    +0.029 C 
BRANCH  14  17
ATOM     17  C   UNL     1      -4.712  -8.458   9.999  0.00  0.00    +0.097 C 
BRANCH  17  23
ATOM      2  O   UNL     1      -2.561  -8.421   8.978  0.00  0.00    -0.276 OA
ATOM      7  N   UNL     1      -2.713  -9.361  11.087  0.00  0.00    -0.296 N 
ATOM     18  C   UNL     1      -1.316  -9.793  11.178  0.00  0.00    +0.102 C 
ATOM     20  C   UNL     1      -1.316 -10.780  12.348  0.00  0.00    +0.026 C 
ATOM     21  C   UNL     1      -3.468  -9.757  12.273  0.00  0.00    +0.108 C 
ATOM     22  C   UNL     1      -2.417 -10.248  13.259  0.00  0.00    +0.021 C 
ATOM     23  C   UNL     1      -3.231  -8.741   9.962  0.00  0.00    +0.216 C 
BRANCH  18  24
ATOM     24  C   UNL     1      -0.381  -8.610  11.421  0.00  0.00    +0.181 C 
BRANCH  24   3
ATOM      3  O   UNL     1       0.905  -8.949  10.937  0.00  0.00    -0.381 OA
ATOM     25  C   UNL     1       1.848  -7.908  11.172  0.00  0.00    +0.194 C 
ENDBRANCH  24   3
ENDBRANCH  18  24
ENDBRANCH  17  23
ENDBRANCH  14  17
ENDBRANCH  11  14
TORSDOF 5
ENDMDL
