MODEL 1
REMARK VINA RESULT:      -2.8      0.000      0.000
REMARK  Name = 45783553
REMARK  11 active torsions:
REMARK  status: ('A' for Active; 'I' for Inactive)
REMARK    1  A    between atoms: O_3  and  C_22
REMARK    2  A    between atoms: O_4  and  C_26
REMARK    3  A    between atoms: O_4  and  C_27
REMARK    4  A    between atoms: O_5  and  C_28
REMARK    5  A    between atoms: O_5  and  C_29
REMARK    6  A    between atoms: N_6  and  C_14
REMARK    7  A    between atoms: C_10  and  C_15
REMARK    8  A    between atoms: C_14  and  C_16
REMARK    9  A    between atoms: C_18  and  C_21
REMARK   10  A    between atoms: C_19  and  C_22
REMARK   11  A    between atoms: C_27  and  C_28
REMARK                            x       y       z     vdW  Elec       q    Type
REMARK                         _______ _______ _______ _____ _____    ______ ____
ROOT
ATOM      1  O   UNL     1      -1.937   2.353  25.675  0.00  0.00    -0.336 OA
ATOM      7  N   UNL     1      -1.766   1.638  23.559  0.00  0.00    -0.190 NA
ATOM      8  N   UNL     1      -0.586   2.038  25.479  0.00  0.00    -0.056 NA
ATOM     15  C   UNL     1      -2.560   2.089  24.496  0.00  0.00    +0.245 A 
ATOM     18  C   UNL     1      -0.565   1.624  24.208  0.00  0.00    +0.204 A 
ENDROOT
BRANCH  18  21
ATOM      9  N   UNL     1       2.978   1.561  23.080  0.00  0.00    -0.221 NA
ATOM     21  C   UNL     1       0.638   1.189  23.559  0.00  0.00    +0.041 A 
ATOM     23  C   UNL     1       0.660   0.023  22.800  0.00  0.00    +0.018 A 
ATOM     24  C   UNL     1       1.812   1.915  23.666  0.00  0.00    +0.126 A 
ATOM     25  C   UNL     1       1.840  -0.374  22.182  0.00  0.00    +0.068 A 
ATOM     26  C   UNL     1       2.962   0.422  22.350  0.00  0.00    +0.215 A 
BRANCH  26   4
ATOM      4  O   UNL     1       4.136   0.053  21.750  0.00  0.00    -0.474 OA
BRANCH   4  27
ATOM     27  C   UNL     1       5.279  -0.054  22.592  0.00  0.00    +0.258 C 
BRANCH  27  28
ATOM     28  C   UNL     1       5.041  -1.151  23.612  0.00  0.00    +0.200 C 
BRANCH  28   5
ATOM      5  O   UNL     1       5.457  -0.693  24.892  0.00  0.00    -0.380 OA
ATOM     29  C   UNL     1       5.783   0.690  24.870  0.00  0.00    +0.194 C 
ENDBRANCH  28   5
ENDBRANCH  27  28
ENDBRANCH   4  27
ENDBRANCH  26   4
ENDBRANCH  18  21
BRANCH  15  10
ATOM      6  N   UNL     1      -4.837   1.274  25.082  0.00  0.00    -0.284 NA
ATOM     10  C   UNL     1      -4.051   2.351  24.447  0.00  0.00    +0.146 C 
ATOM     11  C   UNL     1      -4.455   3.629  25.204  0.00  0.00    +0.030 C 
ATOM     12  C   UNL     1      -5.515   3.182  26.201  0.00  0.00    +0.017 C 
ATOM     13  C   UNL     1      -6.054   1.901  25.598  0.00  0.00    +0.085 C 
BRANCH   6  14
ATOM     14  C   UNL     1      -5.131   0.168  24.179  0.00  0.00    +0.159 C 
BRANCH  14  16
ATOM      2  O   UNL     1      -2.968  -0.651  24.938  0.00  0.00    -0.461 OA
ATOM     16  C   UNL     1      -4.147  -0.961  24.338  0.00  0.00    +0.119 A 
ATOM     17  C   UNL     1      -4.180  -2.293  23.996  0.00  0.00    +0.046 A 
ATOM     19  C   UNL     1      -2.239  -1.797  24.979  0.00  0.00    +0.131 A 
ATOM     20  C   UNL     1      -2.941  -2.836  24.412  0.00  0.00    +0.047 A 
BRANCH  19  22
ATOM     22  C   UNL     1      -0.909  -1.701  25.595  0.00  0.00    +0.230 C 
BRANCH  22   3
ATOM      3  O   UNL     1      -0.867  -0.606  26.513  0.00  0.00    -0.387 OA
ATOM     30  H   UNL     1       0.034  -0.577  26.878  0.00  0.00    +0.210 HD
ENDBRANCH  22   3
ENDBRANCH  19  22
ENDBRANCH  14  16
ENDBRANCH   6  14
ENDBRANCH  15  10
TORSDOF 10
ENDMDL
MODEL 2
REMARK VINA RESULT:      -1.4      1.880      3.303
REMARK  Name = 45783553
REMARK  11 active torsions:
REMARK  status: ('A' for Active; 'I' for Inactive)
REMARK    1  A    between atoms: O_3  and  C_22
REMARK    2  A    between atoms: O_4  and  C_26
REMARK    3  A    between atoms: O_4  and  C_27
REMARK    4  A    between atoms: O_5  and  C_28
REMARK    5  A    between atoms: O_5  and  C_29
REMARK    6  A    between atoms: N_6  and  C_14
REMARK    7  A    between atoms: C_10  and  C_15
REMARK    8  A    between atoms: C_14  and  C_16
REMARK    9  A    between atoms: C_18  and  C_21
REMARK   10  A    between atoms: C_19  and  C_22
REMARK   11  A    between atoms: C_27  and  C_28
REMARK                            x       y       z     vdW  Elec       q    Type
REMARK                         _______ _______ _______ _____ _____    ______ ____
ROOT
ATOM      1  O   UNL     1      -3.430   1.887  23.097  0.00  0.00    -0.336 OA
ATOM      7  N   UNL     1      -1.963   1.071  24.579  0.00  0.00    -0.190 NA
ATOM      8  N   UNL     1      -2.232   1.699  22.396  0.00  0.00    -0.056 NA
ATOM     15  C   UNL     1      -3.184   1.493  24.374  0.00  0.00    +0.245 A 
ATOM     18  C   UNL     1      -1.416   1.216  23.337  0.00  0.00    +0.204 A 
ENDROOT
BRANCH  18  21
ATOM      9  N   UNL     1       2.301   1.317  23.414  0.00  0.00    -0.221 NA
ATOM     21  C   UNL     1      -0.049   0.869  23.070  0.00  0.00    +0.041 A 
ATOM     23  C   UNL     1       0.268  -0.203  22.242  0.00  0.00    +0.018 A 
ATOM     24  C   UNL     1       0.994   1.590  23.626  0.00  0.00    +0.126 A 
ATOM     25  C   UNL     1       1.601  -0.516  22.000  0.00  0.00    +0.068 A 
ATOM     26  C   UNL     1       2.571   0.268  22.603  0.00  0.00    +0.215 A 
BRANCH  26   4
ATOM      4  O   UNL     1       3.892  -0.020  22.380  0.00  0.00    -0.474 OA
BRANCH   4  27
ATOM     27  C   UNL     1       4.846   0.838  22.994  0.00  0.00    +0.258 C 
BRANCH  27  28
ATOM     28  C   UNL     1       5.925  -0.007  23.645  0.00  0.00    +0.200 C 
BRANCH  28   5
ATOM      5  O   UNL     1       5.325  -0.870  24.602  0.00  0.00    -0.380 OA
ATOM     29  C   UNL     1       4.816  -2.049  23.993  0.00  0.00    +0.194 C 
ENDBRANCH  28   5
ENDBRANCH  27  28
ENDBRANCH   4  27
ENDBRANCH  26   4
ENDBRANCH  18  21
BRANCH  15  10
ATOM      6  N   UNL     1      -4.935   2.951  25.374  0.00  0.00    -0.284 NA
ATOM     10  C   UNL     1      -4.339   1.600  25.347  0.00  0.00    +0.146 C 
ATOM     11  C   UNL     1      -5.507   0.664  24.989  0.00  0.00    +0.030 C 
ATOM     12  C   UNL     1      -6.727   1.569  24.895  0.00  0.00    +0.017 C 
ATOM     13  C   UNL     1      -6.342   2.774  25.729  0.00  0.00    +0.085 C 
BRANCH   6  14
ATOM     14  C   UNL     1      -4.251   3.863  26.283  0.00  0.00    +0.159 C 
BRANCH  14  16
ATOM      2  O   UNL     1      -1.878   3.338  26.406  0.00  0.00    -0.461 OA
ATOM     16  C   UNL     1      -2.833   4.127  25.850  0.00  0.00    +0.119 A 
ATOM     17  C   UNL     1      -2.269   5.028  24.978  0.00  0.00    +0.046 A 
ATOM     19  C   UNL     1      -0.689   3.740  25.884  0.00  0.00    +0.131 A 
ATOM     20  C   UNL     1      -0.876   4.777  25.000  0.00  0.00    +0.047 A 
BRANCH  19  22
ATOM     22  C   UNL     1       0.503   3.017  26.348  0.00  0.00    +0.230 C 
BRANCH  22   3
ATOM      3  O   UNL     1       0.137   1.731  26.852  0.00  0.00    -0.387 OA
ATOM     30  H   UNL     1       0.938   1.180  26.833  0.00  0.00    +0.210 HD
ENDBRANCH  22   3
ENDBRANCH  19  22
ENDBRANCH  14  16
ENDBRANCH   6  14
ENDBRANCH  15  10
TORSDOF 10
ENDMDL
MODEL 3
REMARK VINA RESULT:       0.3     13.613     15.235
REMARK  Name = 45783553
REMARK  11 active torsions:
REMARK  status: ('A' for Active; 'I' for Inactive)
REMARK    1  A    between atoms: O_3  and  C_22
REMARK    2  A    between atoms: O_4  and  C_26
REMARK    3  A    between atoms: O_4  and  C_27
REMARK    4  A    between atoms: O_5  and  C_28
REMARK    5  A    between atoms: O_5  and  C_29
REMARK    6  A    between atoms: N_6  and  C_14
REMARK    7  A    between atoms: C_10  and  C_15
REMARK    8  A    between atoms: C_14  and  C_16
REMARK    9  A    between atoms: C_18  and  C_21
REMARK   10  A    between atoms: C_19  and  C_22
REMARK   11  A    between atoms: C_27  and  C_28
REMARK                            x       y       z     vdW  Elec       q    Type
REMARK                         _______ _______ _______ _____ _____    ______ ____
ROOT
ATOM      1  O   UNL     1      -4.227 -10.208  10.527  0.00  0.00    -0.336 OA
ATOM      7  N   UNL     1      -3.129  -9.756  12.425  0.00  0.00    -0.190 NA
ATOM      8  N   UNL     1      -2.971  -9.721  10.143  0.00  0.00    -0.056 NA
ATOM     15  C   UNL     1      -4.236 -10.196  11.885  0.00  0.00    +0.245 A 
ATOM     18  C   UNL     1      -2.382  -9.477  11.318  0.00  0.00    +0.204 A 
ENDROOT
BRANCH  18  21
ATOM      9  N   UNL     1       1.190  -8.815  10.519  0.00  0.00    -0.221 NA
ATOM     21  C   UNL     1      -1.050  -8.953  11.419  0.00  0.00    +0.041 A 
ATOM     23  C   UNL     1      -0.691  -8.109  12.463  0.00  0.00    +0.018 A 
ATOM     24  C   UNL     1      -0.082  -9.273  10.481  0.00  0.00    +0.126 A 
ATOM     25  C   UNL     1       0.608  -7.616  12.537  0.00  0.00    +0.068 A 
ATOM     26  C   UNL     1       1.502  -7.996  11.549  0.00  0.00    +0.215 A 
BRANCH  26   4
ATOM      4  O   UNL     1       2.787  -7.525  11.599  0.00  0.00    -0.474 OA
BRANCH   4  27
ATOM     27  C   UNL     1       2.992  -6.293  12.281  0.00  0.00    +0.258 C 
BRANCH  27  28
ATOM     28  C   UNL     1       4.458  -5.914  12.190  0.00  0.00    +0.200 C 
BRANCH  28   5
ATOM      5  O   UNL     1       5.248  -7.095  12.252  0.00  0.00    -0.380 OA
ATOM     29  C   UNL     1       6.119  -7.080  13.374  0.00  0.00    +0.194 C 
ENDBRANCH  28   5
ENDBRANCH  27  28
ENDBRANCH   4  27
ENDBRANCH  26   4
ENDBRANCH  18  21
BRANCH  15  10
ATOM      6  N   UNL     1      -5.714 -10.074  13.883  0.00  0.00    -0.284 NA
ATOM     10  C   UNL     1      -5.503 -10.685  12.555  0.00  0.00    +0.146 C 
ATOM     11  C   UNL     1      -6.772 -10.334  11.758  0.00  0.00    +0.030 C 
ATOM     12  C   UNL     1      -7.661  -9.580  12.736  0.00  0.00    +0.017 C 
ATOM     13  C   UNL     1      -7.161 -10.032  14.093  0.00  0.00    +0.085 C 
BRANCH   6  14
ATOM     14  C   UNL     1      -5.025 -10.781  14.957  0.00  0.00    +0.159 C 
BRANCH  14  16
ATOM      2  O   UNL     1      -7.056 -10.521  16.272  0.00  0.00    -0.461 OA
ATOM     16  C   UNL     1      -5.699 -10.572  16.287  0.00  0.00    +0.119 A 
ATOM     17  C   UNL     1      -5.224 -10.416  17.568  0.00  0.00    +0.046 A 
ATOM     19  C   UNL     1      -7.453 -10.329  17.558  0.00  0.00    +0.131 A 
ATOM     20  C   UNL     1      -6.363 -10.257  18.393  0.00  0.00    +0.047 A 
BRANCH  19  22
ATOM     22  C   UNL     1      -8.902 -10.242  17.786  0.00  0.00    +0.230 C 
BRANCH  22   3
ATOM      3  O   UNL     1      -9.275  -8.895  18.086  0.00  0.00    -0.387 OA
ATOM     30  H   UNL     1      -8.678  -8.316  17.581  0.00  0.00    +0.210 HD
ENDBRANCH  22   3
ENDBRANCH  19  22
ENDBRANCH  14  16
ENDBRANCH   6  14
ENDBRANCH  15  10
TORSDOF 10
ENDMDL
