MODEL 1
REMARK VINA RESULT:      -6.7      0.000      0.000
REMARK  Name = 75536675
REMARK  9 active torsions:
REMARK  status: ('A' for Active; 'I' for Inactive)
REMARK    1  A    between atoms: S_1  and  N_7
REMARK    2  A    between atoms: S_1  and  C_16
REMARK    3  A    between atoms: O_3  and  C_9
REMARK    4  A    between atoms: N_6  and  C_8
REMARK    5  A    between atoms: N_6  and  C_13
REMARK    6  A    between atoms: N_7  and  C_12
REMARK    7  A    between atoms: C_10  and  C_12
REMARK    8  A    between atoms: C_13  and  C_14
REMARK    9  A    between atoms: C_13  and  C_15
REMARK                            x       y       z     vdW  Elec       q    Type
REMARK                         _______ _______ _______ _____ _____    ______ ____
ROOT
ATOM      2  O   UNL     1      -1.166   2.183  23.134  0.00  0.00    -0.371 OA
ATOM      8  C   UNL     1      -3.214   3.098  23.918  0.00  0.00    +0.111 C 
ATOM      9  C   UNL     1      -2.343   2.742  25.107  0.00  0.00    +0.164 C 
ATOM     10  C   UNL     1      -0.966   2.697  24.460  0.00  0.00    +0.164 C 
ATOM     11  C   UNL     1      -2.566   2.277  22.815  0.00  0.00    +0.181 C 
ENDROOT
BRANCH   9   3
ATOM      3  O   UNL     1      -2.409   3.706  26.140  0.00  0.00    -0.388 OA
ATOM     23  H   UNL     1      -2.212   4.578  25.758  0.00  0.00    +0.210 HD
ENDBRANCH   9   3
BRANCH   8   6
ATOM      6  N   UNL     1      -4.620   2.781  24.108  0.00  0.00    -0.307 NA
ATOM     22  H   UNL     1      -4.796   1.808  23.863  0.00  0.00    +0.123 HD
BRANCH   6  13
ATOM     13  C   UNL     1      -5.032   3.030  25.484  0.00  0.00    +0.048 C 
ATOM     14  C   UNL     1      -5.749   4.375  25.564  0.00  0.00    +0.023 C 
ATOM     15  C   UNL     1      -5.932   1.901  25.979  0.00  0.00    +0.023 C 
ENDBRANCH   6  13
ENDBRANCH   8   6
BRANCH  10  12
ATOM     12  C   UNL     1       0.021   1.817  25.207  0.00  0.00    +0.140 C 
BRANCH  12   7
ATOM      7  N   UNL     1      -0.660   0.593  25.671  0.00  0.00    -0.187 NA
ATOM     24  H   UNL     1      -0.912   0.572  26.667  0.00  0.00    +0.148 HD
BRANCH   7   1
ATOM      1  S   UNL     1      -0.391  -0.887  24.874  0.00  0.00    +0.058 S 
ATOM      4  O   UNL     1       0.191  -1.835  25.805  0.00  0.00    -0.153 OA
ATOM      5  O   UNL     1       0.253  -0.626  23.601  0.00  0.00    -0.153 OA
BRANCH   1  16
ATOM     16  C   UNL     1      -2.041  -1.413  24.521  0.00  0.00    +0.105 A 
ATOM     17  C   UNL     1      -2.317  -2.768  24.339  0.00  0.00    +0.028 A 
ATOM     18  C   UNL     1      -3.067  -0.472  24.420  0.00  0.00    +0.028 A 
ATOM     19  C   UNL     1      -3.618  -3.183  24.057  0.00  0.00    +0.002 A 
ATOM     20  C   UNL     1      -4.367  -0.888  24.137  0.00  0.00    +0.002 A 
ATOM     21  C   UNL     1      -4.644  -2.242  23.956  0.00  0.00    +0.000 A 
ENDBRANCH   1  16
ENDBRANCH   7   1
ENDBRANCH  12   7
ENDBRANCH  10  12
TORSDOF 7
ENDMDL
MODEL 2
REMARK VINA RESULT:      -6.6      2.270      4.642
REMARK  Name = 75536675
REMARK  9 active torsions:
REMARK  status: ('A' for Active; 'I' for Inactive)
REMARK    1  A    between atoms: S_1  and  N_7
REMARK    2  A    between atoms: S_1  and  C_16
REMARK    3  A    between atoms: O_3  and  C_9
REMARK    4  A    between atoms: N_6  and  C_8
REMARK    5  A    between atoms: N_6  and  C_13
REMARK    6  A    between atoms: N_7  and  C_12
REMARK    7  A    between atoms: C_10  and  C_12
REMARK    8  A    between atoms: C_13  and  C_14
REMARK    9  A    between atoms: C_13  and  C_15
REMARK                            x       y       z     vdW  Elec       q    Type
REMARK                         _______ _______ _______ _____ _____    ______ ____
ROOT
ATOM      2  O   UNL     1      -1.456   4.062  25.639  0.00  0.00    -0.371 OA
ATOM      8  C   UNL     1      -0.321   2.220  24.658  0.00  0.00    +0.111 C 
ATOM      9  C   UNL     1      -1.759   2.229  24.175  0.00  0.00    +0.164 C 
ATOM     10  C   UNL     1      -2.147   3.678  24.439  0.00  0.00    +0.164 C 
ATOM     11  C   UNL     1      -0.412   3.105  25.890  0.00  0.00    +0.181 C 
ENDROOT
BRANCH   9   3
ATOM      3  O   UNL     1      -1.877   1.894  22.806  0.00  0.00    -0.388 OA
ATOM     23  H   UNL     1      -1.548   0.988  22.682  0.00  0.00    +0.210 HD
ENDBRANCH   9   3
BRANCH   8   6
ATOM      6  N   UNL     1       0.187   0.890  24.952  0.00  0.00    -0.307 NA
ATOM     22  H   UNL     1      -0.282   0.509  25.773  0.00  0.00    +0.123 HD
BRANCH   6  13
ATOM     13  C   UNL     1       0.005  -0.005  23.815  0.00  0.00    +0.048 C 
ATOM     14  C   UNL     1       1.228   0.076  22.905  0.00  0.00    +0.023 C 
ATOM     15  C   UNL     1      -0.225  -1.434  24.298  0.00  0.00    +0.023 C 
ENDBRANCH   6  13
ENDBRANCH   8   6
BRANCH  10  12
ATOM     12  C   UNL     1      -3.642   3.875  24.625  0.00  0.00    +0.140 C 
BRANCH  12   7
ATOM      7  N   UNL     1      -4.367   2.715  24.070  0.00  0.00    -0.187 NA
ATOM     24  H   UNL     1      -4.567   2.753  23.063  0.00  0.00    +0.148 HD
BRANCH   7   1
ATOM      1  S   UNL     1      -5.400   1.800  25.066  0.00  0.00    +0.058 S 
ATOM      4  O   UNL     1      -6.699   1.684  24.433  0.00  0.00    -0.153 OA
ATOM      5  O   UNL     1      -5.293   2.286  26.428  0.00  0.00    -0.153 OA
BRANCH   1  16
ATOM     16  C   UNL     1      -4.629   0.210  25.023  0.00  0.00    +0.105 A 
ATOM     17  C   UNL     1      -4.772  -0.604  23.900  0.00  0.00    +0.028 A 
ATOM     18  C   UNL     1      -3.881  -0.233  26.114  0.00  0.00    +0.028 A 
ATOM     19  C   UNL     1      -4.167  -1.860  23.867  0.00  0.00    +0.002 A 
ATOM     20  C   UNL     1      -3.276  -1.489  26.081  0.00  0.00    +0.002 A 
ATOM     21  C   UNL     1      -3.419  -2.303  24.958  0.00  0.00    +0.000 A 
ENDBRANCH   1  16
ENDBRANCH   7   1
ENDBRANCH  12   7
ENDBRANCH  10  12
TORSDOF 7
ENDMDL
MODEL 3
REMARK VINA RESULT:      -6.3      2.044      4.869
REMARK  Name = 75536675
REMARK  9 active torsions:
REMARK  status: ('A' for Active; 'I' for Inactive)
REMARK    1  A    between atoms: S_1  and  N_7
REMARK    2  A    between atoms: S_1  and  C_16
REMARK    3  A    between atoms: O_3  and  C_9
REMARK    4  A    between atoms: N_6  and  C_8
REMARK    5  A    between atoms: N_6  and  C_13
REMARK    6  A    between atoms: N_7  and  C_12
REMARK    7  A    between atoms: C_10  and  C_12
REMARK    8  A    between atoms: C_13  and  C_14
REMARK    9  A    between atoms: C_13  and  C_15
REMARK                            x       y       z     vdW  Elec       q    Type
REMARK                         _______ _______ _______ _____ _____    ______ ____
ROOT
ATOM      2  O   UNL     1      -0.559   0.926  25.941  0.00  0.00    -0.371 OA
ATOM      8  C   UNL     1      -0.696  -1.080  24.676  0.00  0.00    +0.111 C 
ATOM      9  C   UNL     1      -0.261   0.052  23.764  0.00  0.00    +0.164 C 
ATOM     10  C   UNL     1       0.272   1.056  24.777  0.00  0.00    +0.164 C 
ATOM     11  C   UNL     1      -1.286  -0.312  25.847  0.00  0.00    +0.181 C 
ENDROOT
BRANCH   9   3
ATOM      3  O   UNL     1       0.734  -0.344  22.840  0.00  0.00    -0.388 OA
ATOM     23  H   UNL     1       1.392   0.369  22.774  0.00  0.00    +0.210 HD
ENDBRANCH   9   3
BRANCH   8   6
ATOM      6  N   UNL     1      -1.646  -1.992  24.061  0.00  0.00    -0.307 NA
ATOM     22  H   UNL     1      -1.315  -2.953  24.145  0.00  0.00    +0.123 HD
BRANCH   6  13
ATOM     13  C   UNL     1      -2.965  -1.866  24.671  0.00  0.00    +0.048 C 
ATOM     14  C   UNL     1      -4.014  -1.683  23.578  0.00  0.00    +0.023 C 
ATOM     15  C   UNL     1      -3.272  -3.094  25.524  0.00  0.00    +0.023 C 
ENDBRANCH   6  13
ENDBRANCH   8   6
BRANCH  10  12
ATOM     12  C   UNL     1       0.235   2.490  24.278  0.00  0.00    +0.140 C 
BRANCH  12   7
ATOM      7  N   UNL     1      -1.164   2.899  24.050  0.00  0.00    -0.187 NA
ATOM     24  H   UNL     1      -1.451   2.980  23.067  0.00  0.00    +0.148 HD
BRANCH   7   1
ATOM      1  S   UNL     1      -1.975   3.844  25.211  0.00  0.00    +0.058 S 
ATOM      4  O   UNL     1      -2.096   5.204  24.724  0.00  0.00    -0.153 OA
ATOM      5  O   UNL     1      -1.398   3.585  26.516  0.00  0.00    -0.153 OA
BRANCH   1  16
ATOM     16  C   UNL     1      -3.587   3.118  25.205  0.00  0.00    +0.105 A 
ATOM     17  C   UNL     1      -3.771   1.833  24.696  0.00  0.00    +0.028 A 
ATOM     18  C   UNL     1      -4.676   3.832  25.706  0.00  0.00    +0.028 A 
ATOM     19  C   UNL     1      -5.043   1.261  24.688  0.00  0.00    +0.002 A 
ATOM     20  C   UNL     1      -5.948   3.261  25.697  0.00  0.00    +0.002 A 
ATOM     21  C   UNL     1      -6.132   1.976  25.189  0.00  0.00    +0.000 A 
ENDBRANCH   1  16
ENDBRANCH   7   1
ENDBRANCH  12   7
ENDBRANCH  10  12
TORSDOF 7
ENDMDL
MODEL 4
REMARK VINA RESULT:      -6.0      1.016      1.726
REMARK  Name = 75536675
REMARK  9 active torsions:
REMARK  status: ('A' for Active; 'I' for Inactive)
REMARK    1  A    between atoms: S_1  and  N_7
REMARK    2  A    between atoms: S_1  and  C_16
REMARK    3  A    between atoms: O_3  and  C_9
REMARK    4  A    between atoms: N_6  and  C_8
REMARK    5  A    between atoms: N_6  and  C_13
REMARK    6  A    between atoms: N_7  and  C_12
REMARK    7  A    between atoms: C_10  and  C_12
REMARK    8  A    between atoms: C_13  and  C_14
REMARK    9  A    between atoms: C_13  and  C_15
REMARK                            x       y       z     vdW  Elec       q    Type
REMARK                         _______ _______ _______ _____ _____    ______ ____
ROOT
ATOM      2  O   UNL     1      -1.780   1.976  23.103  0.00  0.00    -0.371 OA
ATOM      8  C   UNL     1      -2.738   3.475  24.677  0.00  0.00    +0.111 C 
ATOM      9  C   UNL     1      -1.378   3.031  25.180  0.00  0.00    +0.164 C 
ATOM     10  C   UNL     1      -0.727   2.558  23.888  0.00  0.00    +0.164 C 
ATOM     11  C   UNL     1      -3.043   2.400  23.647  0.00  0.00    +0.181 C 
ENDROOT
BRANCH   9   3
ATOM      3  O   UNL     1      -0.649   4.083  25.782  0.00  0.00    -0.388 OA
ATOM     23  H   UNL     1       0.296   3.857  25.754  0.00  0.00    +0.210 HD
ENDBRANCH   9   3
BRANCH   8   6
ATOM      6  N   UNL     1      -3.747   3.561  25.721  0.00  0.00    -0.307 NA
ATOM     22  H   UNL     1      -3.690   4.464  26.190  0.00  0.00    +0.123 HD
BRANCH   6  13
ATOM     13  C   UNL     1      -5.084   3.367  25.175  0.00  0.00    +0.048 C 
ATOM     14  C   UNL     1      -5.696   2.101  25.769  0.00  0.00    +0.023 C 
ATOM     15  C   UNL     1      -5.957   4.585  25.466  0.00  0.00    +0.023 C 
ENDBRANCH   6  13
ENDBRANCH   8   6
BRANCH  10  12
ATOM     12  C   UNL     1       0.373   1.533  24.109  0.00  0.00    +0.140 C 
BRANCH  12   7
ATOM      7  N   UNL     1      -0.165   0.176  23.899  0.00  0.00    -0.187 NA
ATOM     24  H   UNL     1      -0.624   0.012  22.994  0.00  0.00    +0.148 HD
BRANCH   7   1
ATOM      1  S   UNL     1      -0.648  -0.765  25.232  0.00  0.00    +0.058 S 
ATOM      4  O   UNL     1      -0.881   0.100  26.372  0.00  0.00    -0.153 OA
ATOM      5  O   UNL     1       0.241  -1.905  25.351  0.00  0.00    -0.153 OA
BRANCH   1  16
ATOM     16  C   UNL     1      -2.213  -1.385  24.691  0.00  0.00    +0.105 A 
ATOM     17  C   UNL     1      -3.288  -0.513  24.525  0.00  0.00    +0.028 A 
ATOM     18  C   UNL     1      -2.372  -2.747  24.433  0.00  0.00    +0.028 A 
ATOM     19  C   UNL     1      -4.523  -1.002  24.100  0.00  0.00    +0.002 A 
ATOM     20  C   UNL     1      -3.608  -3.236  24.010  0.00  0.00    +0.002 A 
ATOM     21  C   UNL     1      -4.683  -2.364  23.843  0.00  0.00    +0.000 A 
ENDBRANCH   1  16
ENDBRANCH   7   1
ENDBRANCH  12   7
ENDBRANCH  10  12
TORSDOF 7
ENDMDL
MODEL 5
REMARK VINA RESULT:      -5.1      3.105      6.049
REMARK  Name = 75536675
REMARK  9 active torsions:
REMARK  status: ('A' for Active; 'I' for Inactive)
REMARK    1  A    between atoms: S_1  and  N_7
REMARK    2  A    between atoms: S_1  and  C_16
REMARK    3  A    between atoms: O_3  and  C_9
REMARK    4  A    between atoms: N_6  and  C_8
REMARK    5  A    between atoms: N_6  and  C_13
REMARK    6  A    between atoms: N_7  and  C_12
REMARK    7  A    between atoms: C_10  and  C_12
REMARK    8  A    between atoms: C_13  and  C_14
REMARK    9  A    between atoms: C_13  and  C_15
REMARK                            x       y       z     vdW  Elec       q    Type
REMARK                         _______ _______ _______ _____ _____    ______ ____
ROOT
ATOM      2  O   UNL     1       0.028  -0.268  22.437  0.00  0.00    -0.371 OA
ATOM      8  C   UNL     1       2.111   0.409  23.356  0.00  0.00    +0.111 C 
ATOM      9  C   UNL     1       1.033   1.374  23.810  0.00  0.00    +0.164 C 
ATOM     10  C   UNL     1      -0.219   0.533  23.604  0.00  0.00    +0.164 C 
ATOM     11  C   UNL     1       1.440  -0.252  22.163  0.00  0.00    +0.181 C 
ENDROOT
BRANCH   9   3
ATOM      3  O   UNL     1       1.186   1.767  25.160  0.00  0.00    -0.388 OA
ATOM     23  H   UNL     1       1.283   0.967  25.704  0.00  0.00    +0.210 HD
ENDBRANCH   9   3
BRANCH   8   6
ATOM      6  N   UNL     1       3.367   1.056  23.012  0.00  0.00    -0.307 NA
ATOM     22  H   UNL     1       3.542   1.838  23.643  0.00  0.00    +0.123 HD
BRANCH   6  13
ATOM     13  C   UNL     1       4.477   0.112  23.069  0.00  0.00    +0.048 C 
ATOM     14  C   UNL     1       5.623   0.724  23.869  0.00  0.00    +0.023 C 
ATOM     15  C   UNL     1       4.019  -1.206  23.689  0.00  0.00    +0.023 C 
ENDBRANCH   6  13
ENDBRANCH   8   6
BRANCH  10  12
ATOM     12  C   UNL     1      -1.474   1.364  23.398  0.00  0.00    +0.140 C 
BRANCH  12   7
ATOM      7  N   UNL     1      -1.192   2.775  23.724  0.00  0.00    -0.187 NA
ATOM     24  H   UNL     1      -0.342   3.169  23.303  0.00  0.00    +0.148 HD
BRANCH   7   1
ATOM      1  S   UNL     1      -1.756   3.441  25.186  0.00  0.00    +0.058 S 
ATOM      4  O   UNL     1      -1.796   4.886  25.071  0.00  0.00    -0.153 OA
ATOM      5  O   UNL     1      -1.053   2.816  26.290  0.00  0.00    -0.153 OA
BRANCH   1  16
ATOM     16  C   UNL     1      -3.422   2.852  25.233  0.00  0.00    +0.105 A 
ATOM     17  C   UNL     1      -3.698   1.519  24.931  0.00  0.00    +0.028 A 
ATOM     18  C   UNL     1      -4.460   3.721  25.569  0.00  0.00    +0.028 A 
ATOM     19  C   UNL     1      -5.013   1.054  24.966  0.00  0.00    +0.002 A 
ATOM     20  C   UNL     1      -5.774   3.257  25.602  0.00  0.00    +0.002 A 
ATOM     21  C   UNL     1      -6.051   1.924  25.301  0.00  0.00    +0.000 A 
ENDBRANCH   1  16
ENDBRANCH   7   1
ENDBRANCH  12   7
ENDBRANCH  10  12
TORSDOF 7
ENDMDL
MODEL 6
REMARK VINA RESULT:      -5.0      2.048      4.617
REMARK  Name = 75536675
REMARK  9 active torsions:
REMARK  status: ('A' for Active; 'I' for Inactive)
REMARK    1  A    between atoms: S_1  and  N_7
REMARK    2  A    between atoms: S_1  and  C_16
REMARK    3  A    between atoms: O_3  and  C_9
REMARK    4  A    between atoms: N_6  and  C_8
REMARK    5  A    between atoms: N_6  and  C_13
REMARK    6  A    between atoms: N_7  and  C_12
REMARK    7  A    between atoms: C_10  and  C_12
REMARK    8  A    between atoms: C_13  and  C_14
REMARK    9  A    between atoms: C_13  and  C_15
REMARK                            x       y       z     vdW  Elec       q    Type
REMARK                         _______ _______ _______ _____ _____    ______ ____
ROOT
ATOM      2  O   UNL     1      -2.467  -1.885  25.295  0.00  0.00    -0.371 OA
ATOM      8  C   UNL     1      -3.918  -0.469  24.057  0.00  0.00    +0.111 C 
ATOM      9  C   UNL     1      -2.629   0.275  24.345  0.00  0.00    +0.164 C 
ATOM     10  C   UNL     1      -1.681  -0.882  24.632  0.00  0.00    +0.164 C 
ATOM     11  C   UNL     1      -3.859  -1.584  25.088  0.00  0.00    +0.181 C 
ENDROOT
BRANCH   9   3
ATOM      3  O   UNL     1      -2.191   1.054  23.248  0.00  0.00    -0.388 OA
ATOM     23  H   UNL     1      -2.694   1.886  23.243  0.00  0.00    +0.210 HD
ENDBRANCH   9   3
BRANCH   8   6
ATOM      6  N   UNL     1      -5.109   0.356  24.184  0.00  0.00    -0.307 NA
ATOM     22  H   UNL     1      -5.856  -0.173  24.633  0.00  0.00    +0.123 HD
BRANCH   6  13
ATOM     13  C   UNL     1      -4.829   1.567  24.946  0.00  0.00    +0.048 C 
ATOM     14  C   UNL     1      -4.748   2.757  23.994  0.00  0.00    +0.023 C 
ATOM     15  C   UNL     1      -5.906   1.786  26.005  0.00  0.00    +0.023 C 
ENDBRANCH   6  13
ENDBRANCH   8   6
BRANCH  10  12
ATOM     12  C   UNL     1      -0.504  -0.491  25.510  0.00  0.00    +0.140 C 
BRANCH  12   7
ATOM      7  N   UNL     1      -0.757   0.830  26.118  0.00  0.00    -0.187 NA
ATOM     24  H   UNL     1      -1.726   1.008  26.411  0.00  0.00    +0.148 HD
BRANCH   7   1
ATOM      1  S   UNL     1       0.222   2.160  25.706  0.00  0.00    +0.058 S 
ATOM      4  O   UNL     1       0.758   1.966  24.373  0.00  0.00    -0.153 OA
ATOM      5  O   UNL     1       1.110   2.452  26.814  0.00  0.00    -0.153 OA
BRANCH   1  16
ATOM     16  C   UNL     1      -0.962   3.471  25.632  0.00  0.00    +0.105 A 
ATOM     17  C   UNL     1      -0.699   4.604  24.863  0.00  0.00    +0.028 A 
ATOM     18  C   UNL     1      -2.157   3.373  26.345  0.00  0.00    +0.028 A 
ATOM     19  C   UNL     1      -1.632   5.640  24.807  0.00  0.00    +0.002 A 
ATOM     20  C   UNL     1      -3.088   4.409  26.290  0.00  0.00    +0.002 A 
ATOM     21  C   UNL     1      -2.826   5.542  25.520  0.00  0.00    +0.000 A 
ENDBRANCH   1  16
ENDBRANCH   7   1
ENDBRANCH  12   7
ENDBRANCH  10  12
TORSDOF 7
ENDMDL
MODEL 7
REMARK VINA RESULT:      -4.4      3.092      4.870
REMARK  Name = 75536675
REMARK  9 active torsions:
REMARK  status: ('A' for Active; 'I' for Inactive)
REMARK    1  A    between atoms: S_1  and  N_7
REMARK    2  A    between atoms: S_1  and  C_16
REMARK    3  A    between atoms: O_3  and  C_9
REMARK    4  A    between atoms: N_6  and  C_8
REMARK    5  A    between atoms: N_6  and  C_13
REMARK    6  A    between atoms: N_7  and  C_12
REMARK    7  A    between atoms: C_10  and  C_12
REMARK    8  A    between atoms: C_13  and  C_14
REMARK    9  A    between atoms: C_13  and  C_15
REMARK                            x       y       z     vdW  Elec       q    Type
REMARK                         _______ _______ _______ _____ _____    ______ ____
ROOT
ATOM      2  O   UNL     1      -0.704   3.497  25.487  0.00  0.00    -0.371 OA
ATOM      8  C   UNL     1      -2.798   2.531  24.916  0.00  0.00    +0.111 C 
ATOM      9  C   UNL     1      -1.685   1.624  24.428  0.00  0.00    +0.164 C 
ATOM     10  C   UNL     1      -0.527   2.083  25.303  0.00  0.00    +0.164 C 
ATOM     11  C   UNL     1      -2.052   3.840  25.119  0.00  0.00    +0.181 C 
ENDROOT
BRANCH   9   3
ATOM      3  O   UNL     1      -1.977   0.252  24.617  0.00  0.00    -0.388 OA
ATOM     23  H   UNL     1      -2.118   0.097  25.565  0.00  0.00    +0.210 HD
ENDBRANCH   9   3
BRANCH   8   6
ATOM      6  N   UNL     1      -3.906   2.650  23.981  0.00  0.00    -0.307 NA
ATOM     22  H   UNL     1      -3.775   2.010  23.199  0.00  0.00    +0.123 HD
BRANCH   6  13
ATOM     13  C   UNL     1      -5.178   2.380  24.640  0.00  0.00    +0.048 C 
ATOM     14  C   UNL     1      -5.204   0.931  25.117  0.00  0.00    +0.023 C 
ATOM     15  C   UNL     1      -5.387   3.344  25.804  0.00  0.00    +0.023 C 
ENDBRANCH   6  13
ENDBRANCH   8   6
BRANCH  10  12
ATOM     12  C   UNL     1       0.835   1.812  24.688  0.00  0.00    +0.140 C 
BRANCH  12   7
ATOM      7  N   UNL     1       0.669   1.373  23.290  0.00  0.00    -0.187 NA
ATOM     24  H   UNL     1      -0.076   1.843  22.760  0.00  0.00    +0.148 HD
BRANCH   7   1
ATOM      1  S   UNL     1       1.116  -0.204  22.833  0.00  0.00    +0.058 S 
ATOM      4  O   UNL     1       0.927  -0.362  21.404  0.00  0.00    -0.153 OA
ATOM      5  O   UNL     1       0.518  -1.149  23.756  0.00  0.00    -0.153 OA
BRANCH   1  16
ATOM     16  C   UNL     1       2.854  -0.195  23.155  0.00  0.00    +0.105 A 
ATOM     17  C   UNL     1       3.614   0.932  22.843  0.00  0.00    +0.028 A 
ATOM     18  C   UNL     1       3.466  -1.317  23.716  0.00  0.00    +0.028 A 
ATOM     19  C   UNL     1       4.987   0.938  23.094  0.00  0.00    +0.002 A 
ATOM     20  C   UNL     1       4.837  -1.310  23.965  0.00  0.00    +0.002 A 
ATOM     21  C   UNL     1       5.598  -0.184  23.656  0.00  0.00    +0.000 A 
ENDBRANCH   1  16
ENDBRANCH   7   1
ENDBRANCH  12   7
ENDBRANCH  10  12
TORSDOF 7
ENDMDL
MODEL 8
REMARK VINA RESULT:      -4.4      2.542      4.861
REMARK  Name = 75536675
REMARK  9 active torsions:
REMARK  status: ('A' for Active; 'I' for Inactive)
REMARK    1  A    between atoms: S_1  and  N_7
REMARK    2  A    between atoms: S_1  and  C_16
REMARK    3  A    between atoms: O_3  and  C_9
REMARK    4  A    between atoms: N_6  and  C_8
REMARK    5  A    between atoms: N_6  and  C_13
REMARK    6  A    between atoms: N_7  and  C_12
REMARK    7  A    between atoms: C_10  and  C_12
REMARK    8  A    between atoms: C_13  and  C_14
REMARK    9  A    between atoms: C_13  and  C_15
REMARK                            x       y       z     vdW  Elec       q    Type
REMARK                         _______ _______ _______ _____ _____    ______ ____
ROOT
ATOM      2  O   UNL     1      -0.851   1.149  25.768  0.00  0.00    -0.371 OA
ATOM      8  C   UNL     1       0.659   1.148  23.934  0.00  0.00    +0.111 C 
ATOM      9  C   UNL     1      -0.227   2.376  23.845  0.00  0.00    +0.164 C 
ATOM     10  C   UNL     1      -0.709   2.494  25.285  0.00  0.00    +0.164 C 
ATOM     11  C   UNL     1      -0.142   0.267  24.879  0.00  0.00    +0.181 C 
ENDROOT
BRANCH   9   3
ATOM      3  O   UNL     1       0.479   3.529  23.430  0.00  0.00    -0.388 OA
ATOM     23  H   UNL     1       0.911   3.336  22.582  0.00  0.00    +0.210 HD
ENDBRANCH   9   3
BRANCH   8   6
ATOM      6  N   UNL     1       0.911   0.516  22.649  0.00  0.00    -0.307 NA
ATOM     22  H   UNL     1       0.625   1.136  21.892  0.00  0.00    +0.123 HD
BRANCH   6  13
ATOM     13  C   UNL     1       2.319   0.169  22.502  0.00  0.00    +0.048 C 
ATOM     14  C   UNL     1       3.180   1.366  22.895  0.00  0.00    +0.023 C 
ATOM     15  C   UNL     1       2.655  -1.051  23.356  0.00  0.00    +0.023 C 
ENDBRANCH   6  13
ENDBRANCH   8   6
BRANCH  10  12
ATOM     12  C   UNL     1      -2.033   3.228  25.417  0.00  0.00    +0.140 C 
BRANCH  12   7
ATOM      7  N   UNL     1      -3.103   2.264  25.737  0.00  0.00    -0.187 NA
ATOM     24  H   UNL     1      -2.933   1.663  26.554  0.00  0.00    +0.148 HD
BRANCH   7   1
ATOM      1  S   UNL     1      -4.127   1.687  24.506  0.00  0.00    +0.058 S 
ATOM      4  O   UNL     1      -3.606   2.099  23.217  0.00  0.00    -0.153 OA
ATOM      5  O   UNL     1      -5.502   1.976  24.864  0.00  0.00    -0.153 OA
BRANCH   1  16
ATOM     16  C   UNL     1      -3.912  -0.062  24.648  0.00  0.00    +0.105 A 
ATOM     17  C   UNL     1      -4.213  -0.890  23.567  0.00  0.00    +0.028 A 
ATOM     18  C   UNL     1      -3.444  -0.613  25.841  0.00  0.00    +0.028 A 
ATOM     19  C   UNL     1      -4.047  -2.271  23.679  0.00  0.00    +0.002 A 
ATOM     20  C   UNL     1      -3.279  -1.993  25.953  0.00  0.00    +0.002 A 
ATOM     21  C   UNL     1      -3.580  -2.822  24.873  0.00  0.00    +0.000 A 
ENDBRANCH   1  16
ENDBRANCH   7   1
ENDBRANCH  12   7
ENDBRANCH  10  12
TORSDOF 7
ENDMDL
MODEL 9
REMARK VINA RESULT:      -4.3     14.612     16.752
REMARK  Name = 75536675
REMARK  9 active torsions:
REMARK  status: ('A' for Active; 'I' for Inactive)
REMARK    1  A    between atoms: S_1  and  N_7
REMARK    2  A    between atoms: S_1  and  C_16
REMARK    3  A    between atoms: O_3  and  C_9
REMARK    4  A    between atoms: N_6  and  C_8
REMARK    5  A    between atoms: N_6  and  C_13
REMARK    6  A    between atoms: N_7  and  C_12
REMARK    7  A    between atoms: C_10  and  C_12
REMARK    8  A    between atoms: C_13  and  C_14
REMARK    9  A    between atoms: C_13  and  C_15
REMARK                            x       y       z     vdW  Elec       q    Type
REMARK                         _______ _______ _______ _____ _____    ______ ____
ROOT
ATOM      2  O   UNL     1      -4.621 -10.356  15.390  0.00  0.00    -0.371 OA
ATOM      8  C   UNL     1      -6.900  -9.943  15.920  0.00  0.00    +0.111 C 
ATOM      9  C   UNL     1      -6.739  -9.965  14.413  0.00  0.00    +0.164 C 
ATOM     10  C   UNL     1      -5.434 -10.736  14.268  0.00  0.00    +0.164 C 
ATOM     11  C   UNL     1      -5.464  -9.729  16.373  0.00  0.00    +0.181 C 
ENDROOT
BRANCH   9   3
ATOM      3  O   UNL     1      -7.811 -10.616  13.759  0.00  0.00    -0.388 OA
ATOM     23  H   UNL     1      -7.722 -11.573  13.903  0.00  0.00    +0.210 HD
ENDBRANCH   9   3
BRANCH   8   6
ATOM      6  N   UNL     1      -7.803  -8.907  16.396  0.00  0.00    -0.307 NA
ATOM     22  H   UNL     1      -8.057  -8.285  15.630  0.00  0.00    +0.123 HD
BRANCH   6  13
ATOM     13  C   UNL     1      -9.004  -9.488  16.984  0.00  0.00    +0.048 C 
ATOM     14  C   UNL     1      -8.611 -10.405  18.139  0.00  0.00    +0.023 C 
ATOM     15  C   UNL     1      -9.949  -8.386  17.456  0.00  0.00    +0.023 C 
ENDBRANCH   6  13
ENDBRANCH   8   6
BRANCH  10  12
ATOM     12  C   UNL     1      -4.697 -10.433  12.975  0.00  0.00    +0.140 C 
BRANCH  12   7
ATOM      7  N   UNL     1      -5.655 -10.406  11.853  0.00  0.00    -0.187 NA
ATOM     24  H   UNL     1      -6.338 -11.174  11.830  0.00  0.00    +0.148 HD
BRANCH   7   1
ATOM      1  S   UNL     1      -5.227  -9.659  10.385  0.00  0.00    +0.058 S 
ATOM      4  O   UNL     1      -4.836 -10.674   9.426  0.00  0.00    -0.153 OA
ATOM      5  O   UNL     1      -4.347  -8.541  10.664  0.00  0.00    -0.153 OA
BRANCH   1  16
ATOM     16  C   UNL     1      -6.773  -8.982   9.860  0.00  0.00    +0.105 A 
ATOM     17  C   UNL     1      -7.963  -9.435  10.430  0.00  0.00    +0.028 A 
ATOM     18  C   UNL     1      -6.804  -7.997   8.872  0.00  0.00    +0.028 A 
ATOM     19  C   UNL     1      -9.183  -8.903  10.013  0.00  0.00    +0.002 A 
ATOM     20  C   UNL     1      -8.024  -7.466   8.455  0.00  0.00    +0.002 A 
ATOM     21  C   UNL     1      -9.213  -7.918   9.026  0.00  0.00    +0.000 A 
ENDBRANCH   1  16
ENDBRANCH   7   1
ENDBRANCH  12   7
ENDBRANCH  10  12
TORSDOF 7
ENDMDL
MODEL 10
REMARK VINA RESULT:      -4.1      1.704      2.236
REMARK  Name = 75536675
REMARK  9 active torsions:
REMARK  status: ('A' for Active; 'I' for Inactive)
REMARK    1  A    between atoms: S_1  and  N_7
REMARK    2  A    between atoms: S_1  and  C_16
REMARK    3  A    between atoms: O_3  and  C_9
REMARK    4  A    between atoms: N_6  and  C_8
REMARK    5  A    between atoms: N_6  and  C_13
REMARK    6  A    between atoms: N_7  and  C_12
REMARK    7  A    between atoms: C_10  and  C_12
REMARK    8  A    between atoms: C_13  and  C_14
REMARK    9  A    between atoms: C_13  and  C_15
REMARK                            x       y       z     vdW  Elec       q    Type
REMARK                         _______ _______ _______ _____ _____    ______ ____
ROOT
ATOM      2  O   UNL     1      -0.717   1.538  23.106  0.00  0.00    -0.371 OA
ATOM      8  C   UNL     1      -1.175   2.911  24.990  0.00  0.00    +0.111 C 
ATOM      9  C   UNL     1      -0.131   1.879  25.372  0.00  0.00    +0.164 C 
ATOM     10  C   UNL     1       0.405   1.483  24.003  0.00  0.00    +0.164 C 
ATOM     11  C   UNL     1      -1.770   2.287  23.738  0.00  0.00    +0.181 C 
ENDROOT
BRANCH   9   3
ATOM      3  O   UNL     1       0.884   2.411  26.201  0.00  0.00    -0.388 OA
ATOM     23  H   UNL     1       0.991   3.354  25.989  0.00  0.00    +0.210 HD
ENDBRANCH   9   3
BRANCH   8   6
ATOM      6  N   UNL     1      -2.165   3.151  26.028  0.00  0.00    -0.307 NA
ATOM     22  H   UNL     1      -1.726   3.108  26.947  0.00  0.00    +0.123 HD
BRANCH   6  13
ATOM     13  C   UNL     1      -2.812   4.445  25.846  0.00  0.00    +0.048 C 
ATOM     14  C   UNL     1      -1.839   5.408  25.171  0.00  0.00    +0.023 C 
ATOM     15  C   UNL     1      -4.087   4.288  25.021  0.00  0.00    +0.023 C 
ENDBRANCH   6  13
ENDBRANCH   8   6
BRANCH  10  12
ATOM     12  C   UNL     1       1.015   0.093  23.976  0.00  0.00    +0.140 C 
BRANCH  12   7
ATOM      7  N   UNL     1      -0.050  -0.912  23.793  0.00  0.00    -0.187 NA
ATOM     24  H   UNL     1      -0.588  -0.839  22.921  0.00  0.00    +0.148 HD
BRANCH   7   1
ATOM      1  S   UNL     1      -0.799  -1.616  25.149  0.00  0.00    +0.058 S 
ATOM      4  O   UNL     1      -0.429  -0.877  26.340  0.00  0.00    -0.153 OA
ATOM      5  O   UNL     1      -0.614  -3.054  25.096  0.00  0.00    -0.153 OA
BRANCH   1  16
ATOM     16  C   UNL     1      -2.508  -1.303  24.823  0.00  0.00    +0.105 A 
ATOM     17  C   UNL     1      -3.246  -2.200  24.050  0.00  0.00    +0.028 A 
ATOM     18  C   UNL     1      -3.117  -0.156  25.333  0.00  0.00    +0.028 A 
ATOM     19  C   UNL     1      -4.593  -1.951  23.790  0.00  0.00    +0.002 A 
ATOM     20  C   UNL     1      -4.463   0.093  25.071  0.00  0.00    +0.002 A 
ATOM     21  C   UNL     1      -5.202  -0.804  24.301  0.00  0.00    +0.000 A 
ENDBRANCH   1  16
ENDBRANCH   7   1
ENDBRANCH  12   7
ENDBRANCH  10  12
TORSDOF 7
ENDMDL
