MODEL 1
REMARK VINA RESULT:       4.7      0.000      0.000
REMARK  Name = 71693294
REMARK  9 active torsions:
REMARK  status: ('A' for Active; 'I' for Inactive)
REMARK    1  A    between atoms: O_2  and  C_10
REMARK    2  A    between atoms: N_6  and  C_12
REMARK    3  A    between atoms: N_7  and  C_20
REMARK    4  A    between atoms: C_8  and  C_10
REMARK    5  A    between atoms: C_9  and  C_11
REMARK    6  A    between atoms: C_12  and  C_15
REMARK    7  A    between atoms: C_26  and  C_27
REMARK    8  A    between atoms: C_28  and  C_31
REMARK    9  A    between atoms: C_30  and  C_32
REMARK                            x       y       z     vdW  Elec       q    Type
REMARK                         _______ _______ _______ _____ _____    ______ ____
ROOT
ATOM      1  O   UNL     1      -4.474   0.050  24.660  0.00  0.00    -0.361 OA
ATOM      3  O   UNL     1      -5.919   1.952  27.111  0.00  0.00    -0.273 OA
ATOM      6  N   UNL     1      -4.529   2.661  25.376  0.00  0.00    -0.287 N 
ATOM      8  C   UNL     1      -4.111   2.431  23.988  0.00  0.00    +0.135 C 
ATOM      9  C   UNL     1      -3.872   0.925  23.701  0.00  0.00    +0.171 C 
ATOM     13  C   UNL     1      -5.400   1.779  26.010  0.00  0.00    +0.242 C 
ATOM     14  C   UNL     1      -5.686   0.540  25.196  0.00  0.00    +0.256 C 
ENDROOT
BRANCH   9  11
ATOM     11  C   UNL     1      -2.391   0.600  23.668  0.00  0.00    -0.017 A 
ATOM     16  C   UNL     1      -1.917  -0.559  24.282  0.00  0.00    +0.008 A 
ATOM     17  C   UNL     1      -1.502   1.461  23.023  0.00  0.00    +0.008 A 
ATOM     18  C   UNL     1      -0.554  -0.859  24.252  0.00  0.00    +0.023 A 
ATOM     19  C   UNL     1      -0.140   1.162  22.993  0.00  0.00    +0.023 A 
ATOM     20  C   UNL     1       0.334   0.002  23.607  0.00  0.00    +0.034 A 
BRANCH  20   7
ATOM      5  O   UNL     1       2.691   1.766  23.041  0.00  0.00    -0.270 OA
ATOM      7  N   UNL     1       1.696  -0.297  23.576  0.00  0.00    -0.281 N 
ATOM     26  C   UNL     1       2.763   0.570  23.305  0.00  0.00    +0.252 C 
ATOM     34  H   UNL     1       1.917  -1.268  23.780  0.00  0.00    +0.155 HD
BRANCH  26  27
ATOM      4  O   UNL     1       5.727  -1.569  23.738  0.00  0.00    -0.464 OA
ATOM     27  C   UNL     1       4.116  -0.043  23.375  0.00  0.00    +0.078 A 
ATOM     28  C   UNL     1       4.391  -1.323  23.797  0.00  0.00    +0.114 A 
ATOM     29  C   UNL     1       5.361   0.536  23.034  0.00  0.00    +0.057 A 
ATOM     30  C   UNL     1       6.310  -0.432  23.273  0.00  0.00    +0.103 A 
ATOM     31  C   UNL     1       3.555  -2.432  24.281  0.00  0.00    +0.087 C 
ATOM     32  C   UNL     1       7.771  -0.466  23.123  0.00  0.00    +0.086 C 
ENDBRANCH  26  27
ENDBRANCH  20   7
ENDBRANCH   9  11
BRANCH   8  10
ATOM     10  C   UNL     1      -5.129   3.028  23.009  0.00  0.00    +0.181 C 
BRANCH  10   2
ATOM      2  O   UNL     1      -4.423   3.768  22.035  0.00  0.00    -0.393 OA
ATOM     33  H   UNL     1      -3.597   4.075  22.448  0.00  0.00    +0.209 HD
ENDBRANCH  10   2
ENDBRANCH   8  10
BRANCH   6  12
ATOM     12  C   UNL     1      -4.119   3.901  26.017  0.00  0.00    +0.143 C 
BRANCH  12  15
ATOM     15  C   UNL     1      -2.704   4.269  25.674  0.00  0.00    -0.030 A 
ATOM     21  C   UNL     1      -1.665   3.380  25.951  0.00  0.00    +0.005 A 
ATOM     22  C   UNL     1      -2.429   5.500  25.077  0.00  0.00    +0.005 A 
ATOM     23  C   UNL     1      -0.351   3.723  25.632  0.00  0.00    +0.000 A 
ATOM     24  C   UNL     1      -1.115   5.841  24.757  0.00  0.00    +0.000 A 
ATOM     25  C   UNL     1      -0.076   4.953  25.034  0.00  0.00    +0.000 A 
ENDBRANCH  12  15
ENDBRANCH   6  12
TORSDOF 7
ENDMDL
MODEL 2
REMARK VINA RESULT:       4.7      1.548      3.737
REMARK  Name = 71693294
REMARK  9 active torsions:
REMARK  status: ('A' for Active; 'I' for Inactive)
REMARK    1  A    between atoms: O_2  and  C_10
REMARK    2  A    between atoms: N_6  and  C_12
REMARK    3  A    between atoms: N_7  and  C_20
REMARK    4  A    between atoms: C_8  and  C_10
REMARK    5  A    between atoms: C_9  and  C_11
REMARK    6  A    between atoms: C_12  and  C_15
REMARK    7  A    between atoms: C_26  and  C_27
REMARK    8  A    between atoms: C_28  and  C_31
REMARK    9  A    between atoms: C_30  and  C_32
REMARK                            x       y       z     vdW  Elec       q    Type
REMARK                         _______ _______ _______ _____ _____    ______ ____
ROOT
ATOM      1  O   UNL     1      -3.664   3.405  23.281  0.00  0.00    -0.361 OA
ATOM      3  O   UNL     1      -6.539   1.571  23.567  0.00  0.00    -0.273 OA
ATOM      6  N   UNL     1      -4.871   1.883  25.167  0.00  0.00    -0.287 N 
ATOM      8  C   UNL     1      -3.860   2.804  25.700  0.00  0.00    +0.135 C 
ATOM      9  C   UNL     1      -3.042   3.478  24.567  0.00  0.00    +0.171 C 
ATOM     13  C   UNL     1      -5.582   2.200  24.013  0.00  0.00    +0.242 C 
ATOM     14  C   UNL     1      -5.075   3.447  23.328  0.00  0.00    +0.256 C 
ENDROOT
BRANCH   9  11
ATOM     11  C   UNL     1      -1.667   2.850  24.434  0.00  0.00    -0.017 A 
ATOM     16  C   UNL     1      -0.533   3.661  24.370  0.00  0.00    +0.008 A 
ATOM     17  C   UNL     1      -1.536   1.462  24.378  0.00  0.00    +0.008 A 
ATOM     18  C   UNL     1       0.732   3.083  24.247  0.00  0.00    +0.023 A 
ATOM     19  C   UNL     1      -0.272   0.886  24.255  0.00  0.00    +0.023 A 
ATOM     20  C   UNL     1       0.862   1.696  24.190  0.00  0.00    +0.034 A 
BRANCH  20   7
ATOM      5  O   UNL     1       2.064   0.125  21.938  0.00  0.00    -0.270 OA
ATOM      7  N   UNL     1       2.126   1.118  24.068  0.00  0.00    -0.281 N 
ATOM     26  C   UNL     1       2.640   0.391  22.987  0.00  0.00    +0.252 C 
ATOM     34  H   UNL     1       2.730   1.257  24.874  0.00  0.00    +0.155 HD
BRANCH  26  27
ATOM      4  O   UNL     1       5.781  -1.404  23.667  0.00  0.00    -0.464 OA
ATOM     27  C   UNL     1       4.043  -0.077  23.144  0.00  0.00    +0.078 A 
ATOM     28  C   UNL     1       4.426  -1.291  23.665  0.00  0.00    +0.114 A 
ATOM     29  C   UNL     1       5.238   0.600  22.804  0.00  0.00    +0.057 A 
ATOM     30  C   UNL     1       6.267  -0.249  23.142  0.00  0.00    +0.103 A 
ATOM     31  C   UNL     1       3.684  -2.443  24.200  0.00  0.00    +0.087 C 
ATOM     32  C   UNL     1       7.729  -0.146  23.042  0.00  0.00    +0.086 C 
ENDBRANCH  26  27
ENDBRANCH  20   7
ENDBRANCH   9  11
BRANCH   8  10
ATOM     10  C   UNL     1      -4.508   3.851  26.614  0.00  0.00    +0.181 C 
BRANCH  10   2
ATOM      2  O   UNL     1      -5.839   4.047  26.184  0.00  0.00    -0.393 OA
ATOM     33  H   UNL     1      -6.358   4.316  26.963  0.00  0.00    +0.209 HD
ENDBRANCH  10   2
ENDBRANCH   8  10
BRANCH   6  12
ATOM     12  C   UNL     1      -5.200   0.702  25.951  0.00  0.00    +0.143 C 
BRANCH  12  15
ATOM     15  C   UNL     1      -4.420  -0.502  25.507  0.00  0.00    -0.030 A 
ATOM     21  C   UNL     1      -4.727  -1.124  24.296  0.00  0.00    +0.005 A 
ATOM     22  C   UNL     1      -3.389  -0.998  26.305  0.00  0.00    +0.005 A 
ATOM     23  C   UNL     1      -4.001  -2.243  23.884  0.00  0.00    +0.000 A 
ATOM     24  C   UNL     1      -2.664  -2.115  25.892  0.00  0.00    +0.000 A 
ATOM     25  C   UNL     1      -2.970  -2.738  24.681  0.00  0.00    +0.000 A 
ENDBRANCH  12  15
ENDBRANCH   6  12
TORSDOF 7
ENDMDL
MODEL 3
REMARK VINA RESULT:       5.8      1.402      1.960
REMARK  Name = 71693294
REMARK  9 active torsions:
REMARK  status: ('A' for Active; 'I' for Inactive)
REMARK    1  A    between atoms: O_2  and  C_10
REMARK    2  A    between atoms: N_6  and  C_12
REMARK    3  A    between atoms: N_7  and  C_20
REMARK    4  A    between atoms: C_8  and  C_10
REMARK    5  A    between atoms: C_9  and  C_11
REMARK    6  A    between atoms: C_12  and  C_15
REMARK    7  A    between atoms: C_26  and  C_27
REMARK    8  A    between atoms: C_28  and  C_31
REMARK    9  A    between atoms: C_30  and  C_32
REMARK                            x       y       z     vdW  Elec       q    Type
REMARK                         _______ _______ _______ _____ _____    ______ ____
ROOT
ATOM      1  O   UNL     1      -4.925  -0.048  25.970  0.00  0.00    -0.361 OA
ATOM      3  O   UNL     1      -6.449   2.461  27.729  0.00  0.00    -0.273 OA
ATOM      6  N   UNL     1      -5.387   2.601  25.656  0.00  0.00    -0.287 N 
ATOM      8  C   UNL     1      -5.070   1.899  24.407  0.00  0.00    +0.135 C 
ATOM      9  C   UNL     1      -4.589   0.447  24.670  0.00  0.00    +0.171 C 
ATOM     13  C   UNL     1      -6.016   1.936  26.705  0.00  0.00    +0.242 C 
ATOM     14  C   UNL     1      -6.148   0.450  26.470  0.00  0.00    +0.256 C 
ENDROOT
BRANCH   9  11
ATOM     11  C   UNL     1      -3.083   0.332  24.524  0.00  0.00    -0.017 A 
ATOM     16  C   UNL     1      -2.383   1.265  23.758  0.00  0.00    +0.008 A 
ATOM     17  C   UNL     1      -2.398  -0.706  25.156  0.00  0.00    +0.008 A 
ATOM     18  C   UNL     1      -0.998   1.160  23.624  0.00  0.00    +0.023 A 
ATOM     19  C   UNL     1      -1.014  -0.811  25.022  0.00  0.00    +0.023 A 
ATOM     20  C   UNL     1      -0.314   0.122  24.256  0.00  0.00    +0.034 A 
BRANCH  20   7
ATOM      5  O   UNL     1       1.363  -0.408  21.828  0.00  0.00    -0.270 OA
ATOM      7  N   UNL     1       1.071   0.016  24.123  0.00  0.00    -0.281 N 
ATOM     26  C   UNL     1       1.808  -0.233  22.958  0.00  0.00    +0.252 C 
ATOM     34  H   UNL     1       1.586   0.141  24.990  0.00  0.00    +0.155 HD
BRANCH  26  27
ATOM      4  O   UNL     1       5.431   0.405  23.068  0.00  0.00    -0.464 OA
ATOM     27  C   UNL     1       3.284  -0.261  23.132  0.00  0.00    +0.078 A 
ATOM     28  C   UNL     1       4.149   0.748  22.773  0.00  0.00    +0.114 A 
ATOM     29  C   UNL     1       4.085  -1.289  23.682  0.00  0.00    +0.057 A 
ATOM     30  C   UNL     1       5.383  -0.836  23.621  0.00  0.00    +0.103 A 
ATOM     31  C   UNL     1       3.963   2.070  22.157  0.00  0.00    +0.087 C 
ATOM     32  C   UNL     1       6.671  -1.417  24.026  0.00  0.00    +0.086 C 
ENDBRANCH  26  27
ENDBRANCH  20   7
ENDBRANCH   9  11
BRANCH   8  10
ATOM     10  C   UNL     1      -6.270   1.921  23.453  0.00  0.00    +0.181 C 
BRANCH  10   2
ATOM      2  O   UNL     1      -7.447   1.794  24.222  0.00  0.00    -0.393 OA
ATOM     33  H   UNL     1      -7.247   2.127  25.115  0.00  0.00    +0.209 HD
ENDBRANCH  10   2
ENDBRANCH   8  10
BRANCH   6  12
ATOM     12  C   UNL     1      -5.150   4.036  25.713  0.00  0.00    +0.143 C 
BRANCH  12  15
ATOM     15  C   UNL     1      -3.706   4.376  25.476  0.00  0.00    -0.030 A 
ATOM     21  C   UNL     1      -2.711   3.755  26.230  0.00  0.00    +0.005 A 
ATOM     22  C   UNL     1      -3.362   5.313  24.501  0.00  0.00    +0.005 A 
ATOM     23  C   UNL     1      -1.370   4.071  26.009  0.00  0.00    +0.000 A 
ATOM     24  C   UNL     1      -2.022   5.628  24.281  0.00  0.00    +0.000 A 
ATOM     25  C   UNL     1      -1.025   5.007  25.034  0.00  0.00    +0.000 A 
ENDBRANCH  12  15
ENDBRANCH   6  12
TORSDOF 7
ENDMDL
