MODEL 1
REMARK VINA RESULT:       1.5      0.000      0.000
REMARK  Name = 28960535
REMARK  7 active torsions:
REMARK  status: ('A' for Active; 'I' for Inactive)
REMARK    1  A    between atoms: O_3  and  C_12
REMARK    2  A    between atoms: O_6  and  C_29
REMARK    3  A    between atoms: O_6  and  C_30
REMARK    4  A    between atoms: N_7  and  C_11
REMARK    5  A    between atoms: N_8  and  C_13
REMARK    6  A    between atoms: N_10  and  C_24
REMARK    7  A    between atoms: C_21  and  C_22
REMARK                            x       y       z     vdW  Elec       q    Type
REMARK                         _______ _______ _______ _____ _____    ______ ____
ROOT
ATOM      1  O   UNL     1      -3.880  -0.441  23.079  0.00  0.00    -0.342 OA
ATOM      2  O   UNL     1      -5.189  -1.450  24.705  0.00  0.00    -0.347 OA
ATOM     11  C   UNL     1      -3.588   0.233  25.376  0.00  0.00    +0.143 C 
ATOM     12  C   UNL     1      -2.502  -0.848  25.575  0.00  0.00    +0.159 C 
ATOM     13  C   UNL     1      -2.145  -1.608  24.279  0.00  0.00    +0.136 C 
ATOM     14  C   UNL     1      -4.596  -0.206  24.299  0.00  0.00    +0.270 C 
ATOM     15  C   UNL     1      -3.335  -1.744  23.307  0.00  0.00    +0.170 C 
ATOM     16  C   UNL     1      -4.542  -2.447  23.900  0.00  0.00    +0.196 C 
ENDROOT
BRANCH  13   8
ATOM      5  O   UNL     1       0.625  -1.787  24.985  0.00  0.00    -0.252 OA
ATOM      8  N   UNL     1      -1.038  -0.959  23.609  0.00  0.00    -0.291 N 
ATOM     10  N   UNL     1       1.134  -0.362  23.190  0.00  0.00    -0.269 N 
ATOM     23  C   UNL     1       0.289  -1.102  24.022  0.00  0.00    +0.304 C 
ATOM     31  H   UNL     1      -1.245  -0.312  22.855  0.00  0.00    +0.151 HD
ATOM     35  H   UNL     1       0.693   0.154  22.434  0.00  0.00    +0.156 HD
BRANCH  10  24
ATOM     24  C   UNL     1       2.542  -0.241  23.269  0.00  0.00    +0.035 A 
ATOM     25  C   UNL     1       3.163   0.944  22.874  0.00  0.00    +0.027 A 
ATOM     26  C   UNL     1       3.308  -1.307  23.741  0.00  0.00    +0.027 A 
ATOM     27  C   UNL     1       4.550   1.063  22.952  0.00  0.00    +0.047 A 
ATOM     28  C   UNL     1       4.696  -1.187  23.818  0.00  0.00    +0.047 A 
ATOM     29  C   UNL     1       5.316  -0.003  23.424  0.00  0.00    +0.120 A 
BRANCH  29   6
ATOM      6  O   UNL     1       6.671   0.114  23.500  0.00  0.00    -0.495 OA
ATOM     30  C   UNL     1       7.445  -0.777  22.699  0.00  0.00    +0.277 C 
ENDBRANCH  29   6
ENDBRANCH  10  24
ENDBRANCH  13   8
BRANCH  11   7
ATOM      7  N   UNL     1      -2.970   1.502  24.987  0.00  0.00    -0.293 NA
ATOM     17  C   UNL     1      -3.874   2.624  25.277  0.00  0.00    +0.085 C 
ATOM     18  C   UNL     1      -1.678   1.674  25.666  0.00  0.00    +0.085 C 
ATOM     19  C   UNL     1      -3.265   3.953  24.826  0.00  0.00    +0.028 C 
ATOM     20  C   UNL     1      -0.993   2.970  25.230  0.00  0.00    +0.028 C 
ATOM     21  C   UNL     1      -1.896   4.180  25.465  0.00  0.00    +0.077 C 
BRANCH  21  22
ATOM      4  O   UNL     1      -1.754   6.520  25.008  0.00  0.00    -0.276 OA
ATOM      9  N   UNL     1      -0.082   5.152  24.217  0.00  0.00    -0.329 N 
ATOM     22  C   UNL     1      -1.254   5.404  24.890  0.00  0.00    +0.214 C 
ATOM     33  H   UNL     1       0.303   4.217  24.123  0.00  0.00    +0.145 HD
ATOM     34  H   UNL     1       0.441   5.904  23.780  0.00  0.00    +0.145 HD
ENDBRANCH  21  22
ENDBRANCH  11   7
BRANCH  12   3
ATOM      3  O   UNL     1      -2.993  -1.789  26.540  0.00  0.00    -0.388 OA
ATOM     32  H   UNL     1      -3.541  -1.299  27.176  0.00  0.00    +0.210 HD
ENDBRANCH  12   3
TORSDOF 6
ENDMDL
