MODEL 1
REMARK VINA RESULT:       0.1      0.000      0.000
REMARK  Name = 40777469
REMARK  10 active torsions:
REMARK  status: ('A' for Active; 'I' for Inactive)
REMARK    1  A    between atoms: N_8  and  C_25
REMARK    2  A    between atoms: N_8  and  C_27
REMARK    3  A    between atoms: N_8  and  C_28
REMARK    4  A    between atoms: C_9  and  C_13
REMARK    5  A    between atoms: C_10  and  C_15
REMARK    6  A    between atoms: C_13  and  C_16
REMARK    7  A    between atoms: C_15  and  C_17
REMARK    8  A    between atoms: C_23  and  C_25
REMARK    9  A    between atoms: C_24  and  C_26
REMARK   10  A    between atoms: C_27  and  C_29
REMARK                            x       y       z     vdW  Elec       q    Type
REMARK                         _______ _______ _______ _____ _____    ______ ____
ROOT
ATOM      4  N   UNL     1      -5.910   4.888  26.340  0.00  0.00    -0.316 NA
ATOM      9  C   UNL     1      -3.946   3.156  24.982  0.00  0.00    +0.004 C 
ATOM     10  C   UNL     1      -3.538   4.232  26.017  0.00  0.00    +0.012 C 
ATOM     11  C   UNL     1      -5.400   2.733  25.245  0.00  0.00    +0.019 C 
ATOM     12  C   UNL     1      -4.558   5.381  26.074  0.00  0.00    +0.085 C 
ATOM     14  C   UNL     1      -6.349   3.929  25.329  0.00  0.00    +0.081 C 
ATOM     35  H   UNL     1      -6.558   5.675  26.363  0.00  0.00    +0.122 HD
ENDROOT
BRANCH   9  13
ATOM     13  C   UNL     1      -3.758   3.589  23.524  0.00  0.00    +0.100 C 
BRANCH  13  16
ATOM      1  O   UNL     1      -3.395   2.516  21.443  0.00  0.00    -0.276 OA
ATOM      3  O   UNL     1      -3.418  -2.654  26.377  0.00  0.00    -0.276 OA
ATOM      5  N   UNL     1      -3.181   1.196  23.341  0.00  0.00    -0.298 N 
ATOM      6  N   UNL     1      -3.696  -1.348  24.478  0.00  0.00    -0.299 N 
ATOM     16  C   UNL     1      -3.428   2.391  22.669  0.00  0.00    +0.216 C 
ATOM     18  C   UNL     1      -2.858  -0.016  22.583  0.00  0.00    +0.126 C 
ATOM     19  C   UNL     1      -3.140   1.031  24.800  0.00  0.00    +0.126 C 
ATOM     20  C   UNL     1      -3.738  -1.183  23.018  0.00  0.00    +0.126 C 
ATOM     21  C   UNL     1      -4.021  -0.137  25.235  0.00  0.00    +0.126 C 
ATOM     24  C   UNL     1      -3.447  -2.543  25.150  0.00  0.00    +0.213 C 
ATOM     26  C   UNL     1      -3.198  -3.759  24.293  0.00  0.00    +0.109 C 
ENDBRANCH  13  16
ENDBRANCH   9  13
BRANCH  10  15
ATOM     15  C   UNL     1      -2.127   4.777  25.788  0.00  0.00    +0.064 C 
BRANCH  15  17
ATOM      2  O   UNL     1       0.072   1.936  26.021  0.00  0.00    -0.358 OA
ATOM      7  N   UNL     1      -0.850   2.824  26.559  0.00  0.00    -0.083 NA
ATOM     17  C   UNL     1      -1.143   3.666  25.564  0.00  0.00    +0.084 A 
ATOM     22  C   UNL     1      -0.442   3.360  24.384  0.00  0.00    +0.072 A 
ATOM     23  C   UNL     1       0.307   2.265  24.725  0.00  0.00    +0.151 A 
BRANCH  23  25
ATOM     25  C   UNL     1       1.264   1.422  23.998  0.00  0.00    +0.161 C 
BRANCH  25   8
ATOM      8  N   UNL     1       0.628   0.373  23.225  0.00  0.00    -0.294 NA
ATOM     28  C   UNL     1       0.055  -0.651  24.105  0.00  0.00    +0.105 C 
BRANCH   8  27
ATOM     27  C   UNL     1       1.580  -0.243  22.294  0.00  0.00    +0.119 C 
BRANCH  27  29
ATOM     29  C   UNL     1       2.981  -0.232  22.833  0.00  0.00    -0.033 A 
ATOM     30  C   UNL     1       3.486  -1.356  23.485  0.00  0.00    +0.005 A 
ATOM     31  C   UNL     1       3.778   0.902  22.680  0.00  0.00    +0.005 A 
ATOM     32  C   UNL     1       4.788  -1.346  23.986  0.00  0.00    +0.000 A 
ATOM     33  C   UNL     1       5.080   0.913  23.181  0.00  0.00    +0.000 A 
ATOM     34  C   UNL     1       5.585  -0.212  23.833  0.00  0.00    +0.000 A 
ENDBRANCH  27  29
ENDBRANCH   8  27
ENDBRANCH  25   8
ENDBRANCH  23  25
ENDBRANCH  15  17
ENDBRANCH  10  15
TORSDOF 8
ENDMDL
MODEL 2
REMARK VINA RESULT:       0.3      2.053      6.690
REMARK  Name = 40777469
REMARK  10 active torsions:
REMARK  status: ('A' for Active; 'I' for Inactive)
REMARK    1  A    between atoms: N_8  and  C_25
REMARK    2  A    between atoms: N_8  and  C_27
REMARK    3  A    between atoms: N_8  and  C_28
REMARK    4  A    between atoms: C_9  and  C_13
REMARK    5  A    between atoms: C_10  and  C_15
REMARK    6  A    between atoms: C_13  and  C_16
REMARK    7  A    between atoms: C_15  and  C_17
REMARK    8  A    between atoms: C_23  and  C_25
REMARK    9  A    between atoms: C_24  and  C_26
REMARK   10  A    between atoms: C_27  and  C_29
REMARK                            x       y       z     vdW  Elec       q    Type
REMARK                         _______ _______ _______ _____ _____    ______ ____
ROOT
ATOM      4  N   UNL     1      -2.412  -3.340  25.285  0.00  0.00    -0.316 NA
ATOM      9  C   UNL     1      -2.378  -0.426  24.824  0.00  0.00    +0.004 C 
ATOM     10  C   UNL     1      -3.690  -1.236  24.966  0.00  0.00    +0.012 C 
ATOM     11  C   UNL     1      -1.245  -1.178  25.540  0.00  0.00    +0.019 C 
ATOM     12  C   UNL     1      -3.501  -2.702  24.544  0.00  0.00    +0.085 C 
ATOM     14  C   UNL     1      -1.144  -2.638  25.100  0.00  0.00    +0.081 C 
ATOM     35  H   UNL     1      -2.312  -4.306  24.974  0.00  0.00    +0.122 HD
ENDROOT
BRANCH   9  13
ATOM     13  C   UNL     1      -1.994  -0.111  23.374  0.00  0.00    +0.100 C 
BRANCH  13  16
ATOM      1  O   UNL     1      -1.324   2.140  23.065  0.00  0.00    -0.276 OA
ATOM      3  O   UNL     1       4.691  -1.651  23.797  0.00  0.00    -0.276 OA
ATOM      5  N   UNL     1       0.347   0.629  23.630  0.00  0.00    -0.298 N 
ATOM      6  N   UNL     1       3.031  -0.154  23.168  0.00  0.00    -0.299 N 
ATOM     16  C   UNL     1      -0.967   0.993  23.341  0.00  0.00    +0.216 C 
ATOM     18  C   UNL     1       1.405   1.642  23.616  0.00  0.00    +0.126 C 
ATOM     19  C   UNL     1       0.792  -0.711  24.034  0.00  0.00    +0.126 C 
ATOM     20  C   UNL     1       2.586   1.186  22.764  0.00  0.00    +0.126 C 
ATOM     21  C   UNL     1       1.973  -1.167  23.181  0.00  0.00    +0.126 C 
ATOM     24  C   UNL     1       4.344  -0.517  23.459  0.00  0.00    +0.213 C 
ATOM     26  C   UNL     1       5.384   0.570  23.347  0.00  0.00    +0.109 C 
ENDBRANCH  13  16
ENDBRANCH   9  13
BRANCH  10  15
ATOM     15  C   UNL     1      -4.865  -0.607  24.215  0.00  0.00    +0.064 C 
BRANCH  15  17
ATOM      2  O   UNL     1      -6.064   2.047  26.333  0.00  0.00    -0.358 OA
ATOM      7  N   UNL     1      -5.804   0.708  26.066  0.00  0.00    -0.083 NA
ATOM     17  C   UNL     1      -5.277   0.695  24.839  0.00  0.00    +0.084 A 
ATOM     22  C   UNL     1      -5.180   1.984  24.286  0.00  0.00    +0.072 A 
ATOM     23  C   UNL     1      -5.688   2.797  25.265  0.00  0.00    +0.151 A 
BRANCH  23  25
ATOM     25  C   UNL     1      -5.893   4.246  25.378  0.00  0.00    +0.161 C 
BRANCH  25   8
ATOM      8  N   UNL     1      -4.661   5.005  25.289  0.00  0.00    -0.294 NA
ATOM     28  C   UNL     1      -3.928   4.671  24.063  0.00  0.00    +0.105 C 
BRANCH   8  27
ATOM     27  C   UNL     1      -3.812   4.765  26.461  0.00  0.00    +0.119 C 
BRANCH  27  29
ATOM     29  C   UNL     1      -2.412   4.388  26.073  0.00  0.00    -0.033 A 
ATOM     30  C   UNL     1      -1.671   5.223  25.236  0.00  0.00    +0.005 A 
ATOM     31  C   UNL     1      -1.850   3.205  26.551  0.00  0.00    +0.005 A 
ATOM     32  C   UNL     1      -0.370   4.872  24.876  0.00  0.00    +0.000 A 
ATOM     33  C   UNL     1      -0.549   2.854  26.190  0.00  0.00    +0.000 A 
ATOM     34  C   UNL     1       0.191   3.688  25.354  0.00  0.00    +0.000 A 
ENDBRANCH  27  29
ENDBRANCH   8  27
ENDBRANCH  25   8
ENDBRANCH  23  25
ENDBRANCH  15  17
ENDBRANCH  10  15
TORSDOF 8
ENDMDL
MODEL 3
REMARK VINA RESULT:       0.7      2.524      6.009
REMARK  Name = 40777469
REMARK  10 active torsions:
REMARK  status: ('A' for Active; 'I' for Inactive)
REMARK    1  A    between atoms: N_8  and  C_25
REMARK    2  A    between atoms: N_8  and  C_27
REMARK    3  A    between atoms: N_8  and  C_28
REMARK    4  A    between atoms: C_9  and  C_13
REMARK    5  A    between atoms: C_10  and  C_15
REMARK    6  A    between atoms: C_13  and  C_16
REMARK    7  A    between atoms: C_15  and  C_17
REMARK    8  A    between atoms: C_23  and  C_25
REMARK    9  A    between atoms: C_24  and  C_26
REMARK   10  A    between atoms: C_27  and  C_29
REMARK                            x       y       z     vdW  Elec       q    Type
REMARK                         _______ _______ _______ _____ _____    ______ ____
ROOT
ATOM      4  N   UNL     1      -3.642  -3.169  24.683  0.00  0.00    -0.316 NA
ATOM      9  C   UNL     1      -2.377  -0.504  24.637  0.00  0.00    +0.004 C 
ATOM     10  C   UNL     1      -3.902  -0.704  24.810  0.00  0.00    +0.012 C 
ATOM     11  C   UNL     1      -1.649  -1.774  25.108  0.00  0.00    +0.019 C 
ATOM     12  C   UNL     1      -4.380  -2.016  24.167  0.00  0.00    +0.085 C 
ATOM     14  C   UNL     1      -2.205  -3.041  24.458  0.00  0.00    +0.081 C 
ATOM     35  H   UNL     1      -3.981  -4.017  24.229  0.00  0.00    +0.122 HD
ENDROOT
BRANCH   9  13
ATOM     13  C   UNL     1      -1.955  -0.129  23.212  0.00  0.00    +0.100 C 
BRANCH  13  16
ATOM      1  O   UNL     1      -1.283   2.132  22.993  0.00  0.00    -0.276 OA
ATOM      3  O   UNL     1       4.713  -1.657  23.872  0.00  0.00    -0.276 OA
ATOM      5  N   UNL     1       0.370   0.612  23.586  0.00  0.00    -0.298 N 
ATOM      6  N   UNL     1       3.074  -0.149  23.216  0.00  0.00    -0.299 N 
ATOM     16  C   UNL     1      -0.933   0.979  23.253  0.00  0.00    +0.216 C 
ATOM     18  C   UNL     1       1.423   1.629  23.644  0.00  0.00    +0.126 C 
ATOM     19  C   UNL     1       0.803  -0.737  23.972  0.00  0.00    +0.126 C 
ATOM     20  C   UNL     1       2.640   1.201  22.830  0.00  0.00    +0.126 C 
ATOM     21  C   UNL     1       2.021  -1.165  23.157  0.00  0.00    +0.126 C 
ATOM     24  C   UNL     1       4.376  -0.515  23.551  0.00  0.00    +0.213 C 
ATOM     26  C   UNL     1       5.415   0.578  23.512  0.00  0.00    +0.109 C 
ENDBRANCH  13  16
ENDBRANCH   9  13
BRANCH  10  15
ATOM     15  C   UNL     1      -4.723   0.479  24.293  0.00  0.00    +0.064 C 
BRANCH  15  17
ATOM      2  O   UNL     1      -4.504   3.557  26.149  0.00  0.00    -0.358 OA
ATOM      7  N   UNL     1      -5.201   2.449  25.682  0.00  0.00    -0.083 NA
ATOM     17  C   UNL     1      -4.313   1.761  24.960  0.00  0.00    +0.084 A 
ATOM     22  C   UNL     1      -3.051   2.379  24.936  0.00  0.00    +0.072 A 
ATOM     23  C   UNL     1      -3.225   3.504  25.698  0.00  0.00    +0.151 A 
BRANCH  23  25
ATOM     25  C   UNL     1      -2.342   4.605  26.102  0.00  0.00    +0.161 C 
BRANCH  25   8
ATOM      8  N   UNL     1      -0.934   4.283  25.975  0.00  0.00    -0.294 NA
ATOM     28  C   UNL     1      -0.469   4.501  24.601  0.00  0.00    +0.105 C 
BRANCH   8  27
ATOM     27  C   UNL     1      -0.675   2.896  26.376  0.00  0.00    +0.119 C 
BRANCH  27  29
ATOM     29  C   UNL     1       0.332   2.810  27.485  0.00  0.00    -0.033 A 
ATOM     30  C   UNL     1      -0.080   2.492  28.779  0.00  0.00    +0.005 A 
ATOM     31  C   UNL     1       1.681   3.046  27.221  0.00  0.00    +0.005 A 
ATOM     32  C   UNL     1       0.858   2.412  29.809  0.00  0.00    +0.000 A 
ATOM     33  C   UNL     1       2.618   2.966  28.252  0.00  0.00    +0.000 A 
ATOM     34  C   UNL     1       2.206   2.649  29.545  0.00  0.00    +0.000 A 
ENDBRANCH  27  29
ENDBRANCH   8  27
ENDBRANCH  25   8
ENDBRANCH  23  25
ENDBRANCH  15  17
ENDBRANCH  10  15
TORSDOF 8
ENDMDL
MODEL 4
REMARK VINA RESULT:       0.8      1.712      2.249
REMARK  Name = 40777469
REMARK  10 active torsions:
REMARK  status: ('A' for Active; 'I' for Inactive)
REMARK    1  A    between atoms: N_8  and  C_25
REMARK    2  A    between atoms: N_8  and  C_27
REMARK    3  A    between atoms: N_8  and  C_28
REMARK    4  A    between atoms: C_9  and  C_13
REMARK    5  A    between atoms: C_10  and  C_15
REMARK    6  A    between atoms: C_13  and  C_16
REMARK    7  A    between atoms: C_15  and  C_17
REMARK    8  A    between atoms: C_23  and  C_25
REMARK    9  A    between atoms: C_24  and  C_26
REMARK   10  A    between atoms: C_27  and  C_29
REMARK                            x       y       z     vdW  Elec       q    Type
REMARK                         _______ _______ _______ _____ _____    ______ ____
ROOT
ATOM      4  N   UNL     1      -3.611   3.525  22.525  0.00  0.00    -0.316 NA
ATOM      9  C   UNL     1      -3.810   4.572  25.276  0.00  0.00    +0.004 C 
ATOM     10  C   UNL     1      -2.563   4.790  24.386  0.00  0.00    +0.012 C 
ATOM     11  C   UNL     1      -5.033   4.334  24.376  0.00  0.00    +0.019 C 
ATOM     12  C   UNL     1      -2.407   3.671  23.343  0.00  0.00    +0.085 C 
ATOM     14  C   UNL     1      -4.790   3.237  23.339  0.00  0.00    +0.081 C 
ATOM     35  H   UNL     1      -3.473   2.770  21.853  0.00  0.00    +0.122 HD
ENDROOT
BRANCH   9  13
ATOM     13  C   UNL     1      -3.656   3.442  26.299  0.00  0.00    +0.100 C 
BRANCH  13  16
ATOM      1  O   UNL     1      -5.798   2.431  26.238  0.00  0.00    -0.276 OA
ATOM      3  O   UNL     1      -1.154  -2.611  24.214  0.00  0.00    -0.276 OA
ATOM      5  N   UNL     1      -4.040   1.189  25.365  0.00  0.00    -0.298 N 
ATOM      6  N   UNL     1      -2.899  -1.395  25.146  0.00  0.00    -0.299 N 
ATOM     16  C   UNL     1      -4.601   2.314  25.967  0.00  0.00    +0.216 C 
ATOM     18  C   UNL     1      -4.891   0.049  25.014  0.00  0.00    +0.126 C 
ATOM     19  C   UNL     1      -2.636   1.048  24.962  0.00  0.00    +0.126 C 
ATOM     20  C   UNL     1      -4.304  -1.254  25.549  0.00  0.00    +0.126 C 
ATOM     21  C   UNL     1      -2.049  -0.255  25.498  0.00  0.00    +0.126 C 
ATOM     24  C   UNL     1      -2.339  -2.519  24.542  0.00  0.00    +0.213 C 
ATOM     26  C   UNL     1      -3.269  -3.679  24.285  0.00  0.00    +0.109 C 
ENDBRANCH  13  16
ENDBRANCH   9  13
BRANCH  10  15
ATOM     15  C   UNL     1      -1.274   4.958  25.192  0.00  0.00    +0.064 C 
BRANCH  15  17
ATOM      2  O   UNL     1       0.618   1.983  25.922  0.00  0.00    -0.358 OA
ATOM      7  N   UNL     1      -0.141   3.083  26.304  0.00  0.00    -0.083 NA
ATOM     17  C   UNL     1      -0.445   3.707  25.163  0.00  0.00    +0.084 A 
ATOM     22  C   UNL     1       0.089   3.052  24.039  0.00  0.00    +0.072 A 
ATOM     23  C   UNL     1       0.748   1.976  24.571  0.00  0.00    +0.151 A 
BRANCH  23  25
ATOM     25  C   UNL     1       1.526   0.873  23.993  0.00  0.00    +0.161 C 
BRANCH  25   8
ATOM      8  N   UNL     1       1.128   0.543  22.639  0.00  0.00    -0.294 NA
ATOM     28  C   UNL     1      -0.108  -0.246  22.634  0.00  0.00    +0.105 C 
BRANCH   8  27
ATOM     27  C   UNL     1       2.192  -0.189  21.944  0.00  0.00    +0.119 C 
BRANCH  27  29
ATOM     29  C   UNL     1       3.461  -0.232  22.745  0.00  0.00    -0.033 A 
ATOM     30  C   UNL     1       4.276   0.897  22.822  0.00  0.00    +0.005 A 
ATOM     31  C   UNL     1       3.824  -1.401  23.413  0.00  0.00    +0.005 A 
ATOM     32  C   UNL     1       5.455   0.856  23.566  0.00  0.00    +0.000 A 
ATOM     33  C   UNL     1       5.003  -1.441  24.158  0.00  0.00    +0.000 A 
ATOM     34  C   UNL     1       5.818  -0.312  24.235  0.00  0.00    +0.000 A 
ENDBRANCH  27  29
ENDBRANCH   8  27
ENDBRANCH  25   8
ENDBRANCH  23  25
ENDBRANCH  15  17
ENDBRANCH  10  15
TORSDOF 8
ENDMDL
MODEL 5
REMARK VINA RESULT:       2.4      1.920      4.719
REMARK  Name = 40777469
REMARK  10 active torsions:
REMARK  status: ('A' for Active; 'I' for Inactive)
REMARK    1  A    between atoms: N_8  and  C_25
REMARK    2  A    between atoms: N_8  and  C_27
REMARK    3  A    between atoms: N_8  and  C_28
REMARK    4  A    between atoms: C_9  and  C_13
REMARK    5  A    between atoms: C_10  and  C_15
REMARK    6  A    between atoms: C_13  and  C_16
REMARK    7  A    between atoms: C_15  and  C_17
REMARK    8  A    between atoms: C_23  and  C_25
REMARK    9  A    between atoms: C_24  and  C_26
REMARK   10  A    between atoms: C_27  and  C_29
REMARK                            x       y       z     vdW  Elec       q    Type
REMARK                         _______ _______ _______ _____ _____    ______ ____
ROOT
ATOM      4  N   UNL     1      -3.833  -3.412  24.289  0.00  0.00    -0.316 NA
ATOM      9  C   UNL     1      -3.928  -0.464  24.350  0.00  0.00    +0.004 C 
ATOM     10  C   UNL     1      -2.718  -1.273  24.876  0.00  0.00    +0.012 C 
ATOM     11  C   UNL     1      -4.683  -1.309  23.311  0.00  0.00    +0.019 C 
ATOM     12  C   UNL     1      -3.135  -2.677  25.344  0.00  0.00    +0.085 C 
ATOM     14  C   UNL     1      -5.027  -2.704  23.832  0.00  0.00    +0.081 C 
ATOM     35  H   UNL     1      -4.099  -4.332  24.638  0.00  0.00    +0.122 HD
ENDROOT
BRANCH   9  13
ATOM     13  C   UNL     1      -4.877   0.026  25.450  0.00  0.00    +0.100 C 
BRANCH  13  16
ATOM      1  O   UNL     1      -6.559   1.520  24.708  0.00  0.00    -0.276 OA
ATOM      3  O   UNL     1      -0.548   5.358  25.187  0.00  0.00    -0.276 OA
ATOM      5  N   UNL     1      -4.510   2.460  25.266  0.00  0.00    -0.298 N 
ATOM      6  N   UNL     1      -2.575   4.410  24.568  0.00  0.00    -0.299 N 
ATOM     16  C   UNL     1      -5.399   1.399  25.107  0.00  0.00    +0.216 C 
ATOM     18  C   UNL     1      -4.938   3.825  24.950  0.00  0.00    +0.126 C 
ATOM     19  C   UNL     1      -3.149   2.359  25.808  0.00  0.00    +0.126 C 
ATOM     20  C   UNL     1      -3.937   4.511  24.025  0.00  0.00    +0.126 C 
ATOM     21  C   UNL     1      -2.147   3.045  24.882  0.00  0.00    +0.126 C 
ATOM     24  C   UNL     1      -1.687   5.471  24.728  0.00  0.00    +0.213 C 
ATOM     26  C   UNL     1      -2.182   6.833  24.308  0.00  0.00    +0.109 C 
ENDBRANCH  13  16
ENDBRANCH   9  13
BRANCH  10  15
ATOM     15  C   UNL     1      -1.945  -0.546  25.978  0.00  0.00    +0.064 C 
BRANCH  15  17
ATOM      2  O   UNL     1       0.775   1.715  25.309  0.00  0.00    -0.358 OA
ATOM      7  N   UNL     1      -0.268   1.246  26.097  0.00  0.00    -0.083 NA
ATOM     17  C   UNL     1      -0.782   0.218  25.416  0.00  0.00    +0.084 A 
ATOM     22  C   UNL     1      -0.109  -0.006  24.202  0.00  0.00    +0.072 A 
ATOM     23  C   UNL     1       0.860   0.962  24.183  0.00  0.00    +0.151 A 
BRANCH  23  25
ATOM     25  C   UNL     1       1.918   1.322  23.231  0.00  0.00    +0.161 C 
BRANCH  25   8
ATOM      8  N   UNL     1       1.846   0.578  21.989  0.00  0.00    -0.294 NA
ATOM     28  C   UNL     1       1.017  -0.622  22.146  0.00  0.00    +0.105 C 
BRANCH   8  27
ATOM     27  C   UNL     1       3.186   0.204  21.524  0.00  0.00    +0.119 C 
BRANCH  27  29
ATOM     29  C   UNL     1       4.117  -0.087  22.665  0.00  0.00    -0.033 A 
ATOM     30  C   UNL     1       4.161  -1.365  23.221  0.00  0.00    +0.005 A 
ATOM     31  C   UNL     1       4.938   0.921  23.168  0.00  0.00    +0.005 A 
ATOM     32  C   UNL     1       5.026  -1.634  24.282  0.00  0.00    +0.000 A 
ATOM     33  C   UNL     1       5.804   0.652  24.229  0.00  0.00    +0.000 A 
ATOM     34  C   UNL     1       5.848  -0.626  24.785  0.00  0.00    +0.000 A 
ENDBRANCH  27  29
ENDBRANCH   8  27
ENDBRANCH  25   8
ENDBRANCH  23  25
ENDBRANCH  15  17
ENDBRANCH  10  15
TORSDOF 8
ENDMDL
MODEL 6
REMARK VINA RESULT:       2.5      1.877      4.455
REMARK  Name = 40777469
REMARK  10 active torsions:
REMARK  status: ('A' for Active; 'I' for Inactive)
REMARK    1  A    between atoms: N_8  and  C_25
REMARK    2  A    between atoms: N_8  and  C_27
REMARK    3  A    between atoms: N_8  and  C_28
REMARK    4  A    between atoms: C_9  and  C_13
REMARK    5  A    between atoms: C_10  and  C_15
REMARK    6  A    between atoms: C_13  and  C_16
REMARK    7  A    between atoms: C_15  and  C_17
REMARK    8  A    between atoms: C_23  and  C_25
REMARK    9  A    between atoms: C_24  and  C_26
REMARK   10  A    between atoms: C_27  and  C_29
REMARK                            x       y       z     vdW  Elec       q    Type
REMARK                         _______ _______ _______ _____ _____    ______ ____
ROOT
ATOM      4  N   UNL     1      -5.456   3.554  26.480  0.00  0.00    -0.316 NA
ATOM      9  C   UNL     1      -4.503   2.559  23.871  0.00  0.00    +0.004 C 
ATOM     10  C   UNL     1      -5.714   1.941  24.612  0.00  0.00    +0.012 C 
ATOM     11  C   UNL     1      -4.322   4.013  24.334  0.00  0.00    +0.019 C 
ATOM     12  C   UNL     1      -5.613   2.141  26.132  0.00  0.00    +0.085 C 
ATOM     14  C   UNL     1      -4.271   4.139  25.857  0.00  0.00    +0.081 C 
ATOM     35  H   UNL     1      -5.385   3.646  27.494  0.00  0.00    +0.122 HD
ENDROOT
BRANCH   9  13
ATOM     13  C   UNL     1      -3.201   1.766  24.036  0.00  0.00    +0.100 C 
BRANCH  13  16
ATOM      1  O   UNL     1      -1.711   3.278  22.984  0.00  0.00    -0.276 OA
ATOM      3  O   UNL     1       0.939   2.085  29.513  0.00  0.00    -0.276 OA
ATOM      5  N   UNL     1      -1.347   2.865  25.240  0.00  0.00    -0.298 N 
ATOM      6  N   UNL     1       0.613   2.447  27.243  0.00  0.00    -0.299 N 
ATOM     16  C   UNL     1      -2.022   2.707  24.031  0.00  0.00    +0.216 C 
ATOM     18  C   UNL     1      -0.188   3.758  25.317  0.00  0.00    +0.126 C 
ATOM     19  C   UNL     1      -1.735   2.259  26.519  0.00  0.00    +0.126 C 
ATOM     20  C   UNL     1       1.002   3.054  25.963  0.00  0.00    +0.126 C 
ATOM     21  C   UNL     1      -0.545   1.553  27.164  0.00  0.00    +0.126 C 
ATOM     24  C   UNL     1       1.287   2.607  28.452  0.00  0.00    +0.213 C 
ATOM     26  C   UNL     1       2.515   3.483  28.428  0.00  0.00    +0.109 C 
ENDBRANCH  13  16
ENDBRANCH   9  13
BRANCH  10  15
ATOM     15  C   UNL     1      -5.930   0.464  24.277  0.00  0.00    +0.064 C 
BRANCH  15  17
ATOM      2  O   UNL     1      -3.124  -1.212  25.788  0.00  0.00    -0.358 OA
ATOM      7  N   UNL     1      -4.233  -0.377  25.843  0.00  0.00    -0.083 NA
ATOM     17  C   UNL     1      -4.710  -0.352  24.595  0.00  0.00    +0.084 A 
ATOM     22  C   UNL     1      -3.949  -1.144  23.718  0.00  0.00    +0.072 A 
ATOM     23  C   UNL     1      -2.965  -1.662  24.517  0.00  0.00    +0.151 A 
BRANCH  23  25
ATOM     25  C   UNL     1      -1.831  -2.564  24.278  0.00  0.00    +0.161 C 
BRANCH  25   8
ATOM      8  N   UNL     1      -0.546  -1.895  24.345  0.00  0.00    -0.294 NA
ATOM     28  C   UNL     1      -0.089  -1.777  25.733  0.00  0.00    +0.105 C 
BRANCH   8  27
ATOM     27  C   UNL     1      -0.614  -0.567  23.725  0.00  0.00    +0.119 C 
BRANCH  27  29
ATOM     29  C   UNL     1       0.713  -0.137  23.171  0.00  0.00    -0.033 A 
ATOM     30  C   UNL     1       1.203  -0.719  22.002  0.00  0.00    +0.005 A 
ATOM     31  C   UNL     1       1.456   0.846  23.824  0.00  0.00    +0.005 A 
ATOM     32  C   UNL     1       2.436  -0.319  21.487  0.00  0.00    +0.000 A 
ATOM     33  C   UNL     1       2.689   1.246  23.309  0.00  0.00    +0.000 A 
ATOM     34  C   UNL     1       3.179   0.664  22.141  0.00  0.00    +0.000 A 
ENDBRANCH  27  29
ENDBRANCH   8  27
ENDBRANCH  25   8
ENDBRANCH  23  25
ENDBRANCH  15  17
ENDBRANCH  10  15
TORSDOF 8
ENDMDL
MODEL 7
REMARK VINA RESULT:       2.9      2.052      4.325
REMARK  Name = 40777469
REMARK  10 active torsions:
REMARK  status: ('A' for Active; 'I' for Inactive)
REMARK    1  A    between atoms: N_8  and  C_25
REMARK    2  A    between atoms: N_8  and  C_27
REMARK    3  A    between atoms: N_8  and  C_28
REMARK    4  A    between atoms: C_9  and  C_13
REMARK    5  A    between atoms: C_10  and  C_15
REMARK    6  A    between atoms: C_13  and  C_16
REMARK    7  A    between atoms: C_15  and  C_17
REMARK    8  A    between atoms: C_23  and  C_25
REMARK    9  A    between atoms: C_24  and  C_26
REMARK   10  A    between atoms: C_27  and  C_29
REMARK                            x       y       z     vdW  Elec       q    Type
REMARK                         _______ _______ _______ _____ _____    ______ ____
ROOT
ATOM      4  N   UNL     1      -7.147   1.720  25.007  0.00  0.00    -0.316 NA
ATOM      9  C   UNL     1      -4.247   1.860  24.484  0.00  0.00    +0.004 C 
ATOM     10  C   UNL     1      -4.912   0.659  25.200  0.00  0.00    +0.012 C 
ATOM     11  C   UNL     1      -5.296   2.563  23.607  0.00  0.00    +0.019 C 
ATOM     12  C   UNL     1      -6.205   1.072  25.920  0.00  0.00    +0.085 C 
ATOM     14  C   UNL     1      -6.569   2.906  24.380  0.00  0.00    +0.081 C 
ATOM     35  H   UNL     1      -7.987   1.986  25.521  0.00  0.00    +0.122 HD
ENDROOT
BRANCH   9  13
ATOM     13  C   UNL     1      -3.573   2.857  25.434  0.00  0.00    +0.100 C 
BRANCH  13  16
ATOM      1  O   UNL     1      -1.881   3.143  23.800  0.00  0.00    -0.276 OA
ATOM      3  O   UNL     1       1.478   2.689  30.092  0.00  0.00    -0.276 OA
ATOM      5  N   UNL     1      -1.206   3.243  26.019  0.00  0.00    -0.298 N 
ATOM      6  N   UNL     1       0.813   2.524  27.873  0.00  0.00    -0.299 N 
ATOM     16  C   UNL     1      -2.147   3.094  25.002  0.00  0.00    +0.216 C 
ATOM     18  C   UNL     1       0.202   3.473  25.684  0.00  0.00    +0.126 C 
ATOM     19  C   UNL     1      -1.501   3.265  27.457  0.00  0.00    +0.126 C 
ATOM     20  C   UNL     1       1.108   2.502  26.434  0.00  0.00    +0.126 C 
ATOM     21  C   UNL     1      -0.595   2.292  28.208  0.00  0.00    +0.126 C 
ATOM     24  C   UNL     1       1.754   2.675  28.890  0.00  0.00    +0.213 C 
ATOM     26  C   UNL     1       3.191   2.831  28.460  0.00  0.00    +0.109 C 
ENDBRANCH  13  16
ENDBRANCH   9  13
BRANCH  10  15
ATOM     15  C   UNL     1      -3.966  -0.061  26.163  0.00  0.00    +0.064 C 
BRANCH  15  17
ATOM      2  O   UNL     1      -1.699  -2.108  24.257  0.00  0.00    -0.358 OA
ATOM      7  N   UNL     1      -2.940  -1.848  24.824  0.00  0.00    -0.083 NA
ATOM     17  C   UNL     1      -2.802  -0.667  25.433  0.00  0.00    +0.084 A 
ATOM     22  C   UNL     1      -1.508  -0.139  25.285  0.00  0.00    +0.072 A 
ATOM     23  C   UNL     1      -0.854  -1.083  24.538  0.00  0.00    +0.151 A 
BRANCH  23  25
ATOM     25  C   UNL     1       0.511  -1.195  24.010  0.00  0.00    +0.161 C 
BRANCH  25   8
ATOM      8  N   UNL     1       0.969   0.014  23.354  0.00  0.00    -0.294 NA
ATOM     28  C   UNL     1      -0.148   0.721  22.721  0.00  0.00    +0.105 C 
BRANCH   8  27
ATOM     27  C   UNL     1       2.000  -0.291  22.355  0.00  0.00    +0.119 C 
BRANCH  27  29
ATOM     29  C   UNL     1       3.380  -0.268  22.946  0.00  0.00    -0.033 A 
ATOM     30  C   UNL     1       3.899  -1.413  23.549  0.00  0.00    +0.005 A 
ATOM     31  C   UNL     1       4.143   0.898  22.890  0.00  0.00    +0.005 A 
ATOM     32  C   UNL     1       5.182  -1.391  24.098  0.00  0.00    +0.000 A 
ATOM     33  C   UNL     1       5.425   0.920  23.438  0.00  0.00    +0.000 A 
ATOM     34  C   UNL     1       5.945  -0.225  24.042  0.00  0.00    +0.000 A 
ENDBRANCH  27  29
ENDBRANCH   8  27
ENDBRANCH  25   8
ENDBRANCH  23  25
ENDBRANCH  15  17
ENDBRANCH  10  15
TORSDOF 8
ENDMDL
MODEL 8
REMARK VINA RESULT:       3.0      1.581      2.053
REMARK  Name = 40777469
REMARK  10 active torsions:
REMARK  status: ('A' for Active; 'I' for Inactive)
REMARK    1  A    between atoms: N_8  and  C_25
REMARK    2  A    between atoms: N_8  and  C_27
REMARK    3  A    between atoms: N_8  and  C_28
REMARK    4  A    between atoms: C_9  and  C_13
REMARK    5  A    between atoms: C_10  and  C_15
REMARK    6  A    between atoms: C_13  and  C_16
REMARK    7  A    between atoms: C_15  and  C_17
REMARK    8  A    between atoms: C_23  and  C_25
REMARK    9  A    between atoms: C_24  and  C_26
REMARK   10  A    between atoms: C_27  and  C_29
REMARK                            x       y       z     vdW  Elec       q    Type
REMARK                         _______ _______ _______ _____ _____    ______ ____
ROOT
ATOM      4  N   UNL     1      -6.230   4.738  25.949  0.00  0.00    -0.316 NA
ATOM      9  C   UNL     1      -4.176   2.685  25.432  0.00  0.00    +0.004 C 
ATOM     10  C   UNL     1      -3.864   4.201  25.423  0.00  0.00    +0.012 C 
ATOM     11  C   UNL     1      -5.416   2.433  26.304  0.00  0.00    +0.019 C 
ATOM     12  C   UNL     1      -5.105   5.034  25.061  0.00  0.00    +0.085 C 
ATOM     14  C   UNL     1      -6.595   3.324  25.913  0.00  0.00    +0.081 C 
ATOM     35  H   UNL     1      -7.034   5.302  25.675  0.00  0.00    +0.122 HD
ENDROOT
BRANCH   9  13
ATOM     13  C   UNL     1      -4.356   2.077  24.036  0.00  0.00    +0.100 C 
BRANCH  13  16
ATOM      1  O   UNL     1      -5.782   0.192  24.195  0.00  0.00    -0.276 OA
ATOM      3  O   UNL     1       0.856  -2.231  25.265  0.00  0.00    -0.276 OA
ATOM      5  N   UNL     1      -3.499  -0.232  24.200  0.00  0.00    -0.298 N 
ATOM      6  N   UNL     1      -1.425  -1.801  25.325  0.00  0.00    -0.299 N 
ATOM     16  C   UNL     1      -4.618   0.596  24.150  0.00  0.00    +0.216 C 
ATOM     18  C   UNL     1      -3.668  -1.683  24.314  0.00  0.00    +0.126 C 
ATOM     19  C   UNL     1      -2.105   0.210  24.074  0.00  0.00    +0.126 C 
ATOM     20  C   UNL     1      -2.820  -2.244  25.452  0.00  0.00    +0.126 C 
ATOM     21  C   UNL     1      -1.256  -0.350  25.213  0.00  0.00    +0.126 C 
ATOM     24  C   UNL     1      -0.306  -2.630  25.374  0.00  0.00    +0.213 C 
ATOM     26  C   UNL     1      -0.566  -4.103  25.569  0.00  0.00    +0.109 C 
ENDBRANCH  13  16
ENDBRANCH   9  13
BRANCH  10  15
ATOM     15  C   UNL     1      -2.689   4.565  24.514  0.00  0.00    +0.064 C 
BRANCH  15  17
ATOM      2  O   UNL     1      -0.016   2.624  25.946  0.00  0.00    -0.358 OA
ATOM      7  N   UNL     1      -1.130   3.447  26.050  0.00  0.00    -0.083 NA
ATOM     17  C   UNL     1      -1.497   3.695  24.789  0.00  0.00    +0.084 A 
ATOM     22  C   UNL     1      -0.659   3.059  23.856  0.00  0.00    +0.072 A 
ATOM     23  C   UNL     1       0.255   2.400  24.635  0.00  0.00    +0.151 A 
BRANCH  23  25
ATOM     25  C   UNL     1       1.409   1.541  24.341  0.00  0.00    +0.161 C 
BRANCH  25   8
ATOM      8  N   UNL     1       1.487   1.148  22.948  0.00  0.00    -0.294 NA
ATOM     28  C   UNL     1       1.083  -0.251  22.776  0.00  0.00    +0.105 C 
BRANCH   8  27
ATOM     27  C   UNL     1       2.843   1.346  22.423  0.00  0.00    +0.119 C 
BRANCH  27  29
ATOM     29  C   UNL     1       3.841   0.444  23.089  0.00  0.00    -0.033 A 
ATOM     30  C   UNL     1       5.069   0.954  23.510  0.00  0.00    +0.005 A 
ATOM     31  C   UNL     1       3.540  -0.902  23.289  0.00  0.00    +0.005 A 
ATOM     32  C   UNL     1       5.997   0.116  24.129  0.00  0.00    +0.000 A 
ATOM     33  C   UNL     1       4.467  -1.741  23.908  0.00  0.00    +0.000 A 
ATOM     34  C   UNL     1       5.696  -1.231  24.329  0.00  0.00    +0.000 A 
ENDBRANCH  27  29
ENDBRANCH   8  27
ENDBRANCH  25   8
ENDBRANCH  23  25
ENDBRANCH  15  17
ENDBRANCH  10  15
TORSDOF 8
ENDMDL
MODEL 9
REMARK VINA RESULT:       3.1      1.847      3.061
REMARK  Name = 40777469
REMARK  10 active torsions:
REMARK  status: ('A' for Active; 'I' for Inactive)
REMARK    1  A    between atoms: N_8  and  C_25
REMARK    2  A    between atoms: N_8  and  C_27
REMARK    3  A    between atoms: N_8  and  C_28
REMARK    4  A    between atoms: C_9  and  C_13
REMARK    5  A    between atoms: C_10  and  C_15
REMARK    6  A    between atoms: C_13  and  C_16
REMARK    7  A    between atoms: C_15  and  C_17
REMARK    8  A    between atoms: C_23  and  C_25
REMARK    9  A    between atoms: C_24  and  C_26
REMARK   10  A    between atoms: C_27  and  C_29
REMARK                            x       y       z     vdW  Elec       q    Type
REMARK                         _______ _______ _______ _____ _____    ______ ____
ROOT
ATOM      4  N   UNL     1       0.093   4.828  23.990  0.00  0.00    -0.316 NA
ATOM      9  C   UNL     1      -2.348   4.679  25.641  0.00  0.00    +0.004 C 
ATOM     10  C   UNL     1      -1.215   3.628  25.725  0.00  0.00    +0.012 C 
ATOM     11  C   UNL     1      -1.766   6.002  25.116  0.00  0.00    +0.019 C 
ATOM     12  C   UNL     1      -0.434   3.527  24.405  0.00  0.00    +0.085 C 
ATOM     14  C   UNL     1      -0.969   5.818  23.825  0.00  0.00    +0.081 C 
ATOM     35  H   UNL     1       0.597   4.723  23.109  0.00  0.00    +0.122 HD
ENDROOT
BRANCH   9  13
ATOM     13  C   UNL     1      -3.548   4.237  24.796  0.00  0.00    +0.100 C 
BRANCH  13  16
ATOM      1  O   UNL     1      -4.803   3.453  26.646  0.00  0.00    -0.276 OA
ATOM      3  O   UNL     1      -3.712  -2.214  22.431  0.00  0.00    -0.276 OA
ATOM      5  N   UNL     1      -4.491   1.958  24.897  0.00  0.00    -0.298 N 
ATOM      6  N   UNL     1      -3.968  -0.740  24.206  0.00  0.00    -0.299 N 
ATOM     16  C   UNL     1      -4.339   3.187  25.535  0.00  0.00    +0.216 C 
ATOM     18  C   UNL     1      -5.243   0.884  25.550  0.00  0.00    +0.126 C 
ATOM     19  C   UNL     1      -4.015   1.634  23.546  0.00  0.00    +0.126 C 
ATOM     20  C   UNL     1      -4.444  -0.416  25.558  0.00  0.00    +0.126 C 
ATOM     21  C   UNL     1      -3.215   0.334  23.554  0.00  0.00    +0.126 C 
ATOM     24  C   UNL     1      -4.122  -1.969  23.568  0.00  0.00    +0.213 C 
ATOM     26  C   UNL     1      -4.843  -3.045  24.341  0.00  0.00    +0.109 C 
ENDBRANCH  13  16
ENDBRANCH   9  13
BRANCH  10  15
ATOM     15  C   UNL     1      -1.711   2.248  26.163  0.00  0.00    +0.064 C 
BRANCH  15  17
ATOM      2  O   UNL     1      -0.240  -0.858  25.089  0.00  0.00    -0.358 OA
ATOM      7  N   UNL     1      -1.106  -0.117  25.884  0.00  0.00    -0.083 NA
ATOM     17  C   UNL     1      -0.923   1.152  25.506  0.00  0.00    +0.084 A 
ATOM     22  C   UNL     1       0.036   1.271  24.486  0.00  0.00    +0.072 A 
ATOM     23  C   UNL     1       0.434  -0.020  24.261  0.00  0.00    +0.151 A 
BRANCH  23  25
ATOM     25  C   UNL     1       1.398  -0.641  23.343  0.00  0.00    +0.161 C 
BRANCH  25   8
ATOM      8  N   UNL     1       1.439  -0.003  22.042  0.00  0.00    -0.294 NA
ATOM     28  C   UNL     1       0.542  -0.679  21.099  0.00  0.00    +0.105 C 
BRANCH   8  27
ATOM     27  C   UNL     1       2.806   0.012  21.509  0.00  0.00    +0.119 C 
BRANCH  27  29
ATOM     29  C   UNL     1       3.834  -0.133  22.593  0.00  0.00    -0.033 A 
ATOM     30  C   UNL     1       4.591   0.970  22.988  0.00  0.00    +0.005 A 
ATOM     31  C   UNL     1       4.032  -1.369  23.206  0.00  0.00    +0.005 A 
ATOM     32  C   UNL     1       5.546   0.835  23.996  0.00  0.00    +0.000 A 
ATOM     33  C   UNL     1       4.987  -1.504  24.214  0.00  0.00    +0.000 A 
ATOM     34  C   UNL     1       5.744  -0.401  24.609  0.00  0.00    +0.000 A 
ENDBRANCH  27  29
ENDBRANCH   8  27
ENDBRANCH  25   8
ENDBRANCH  23  25
ENDBRANCH  15  17
ENDBRANCH  10  15
TORSDOF 8
ENDMDL
MODEL 10
REMARK VINA RESULT:       3.6      1.931      6.769
REMARK  Name = 40777469
REMARK  10 active torsions:
REMARK  status: ('A' for Active; 'I' for Inactive)
REMARK    1  A    between atoms: N_8  and  C_25
REMARK    2  A    between atoms: N_8  and  C_27
REMARK    3  A    between atoms: N_8  and  C_28
REMARK    4  A    between atoms: C_9  and  C_13
REMARK    5  A    between atoms: C_10  and  C_15
REMARK    6  A    between atoms: C_13  and  C_16
REMARK    7  A    between atoms: C_15  and  C_17
REMARK    8  A    between atoms: C_23  and  C_25
REMARK    9  A    between atoms: C_24  and  C_26
REMARK   10  A    between atoms: C_27  and  C_29
REMARK                            x       y       z     vdW  Elec       q    Type
REMARK                         _______ _______ _______ _____ _____    ______ ____
ROOT
ATOM      4  N   UNL     1      -4.208  -0.279  24.295  0.00  0.00    -0.316 NA
ATOM      9  C   UNL     1      -2.372  -2.397  25.213  0.00  0.00    +0.004 C 
ATOM     10  C   UNL     1      -2.375  -0.972  25.817  0.00  0.00    +0.012 C 
ATOM     11  C   UNL     1      -3.754  -2.687  24.605  0.00  0.00    +0.019 C 
ATOM     12  C   UNL     1      -2.884   0.071  24.809  0.00  0.00    +0.085 C 
ATOM     14  C   UNL     1      -4.212  -1.588  23.646  0.00  0.00    +0.081 C 
ATOM     35  H   UNL     1      -4.509   0.430  23.626  0.00  0.00    +0.122 HD
ENDROOT
BRANCH   9  13
ATOM     13  C   UNL     1      -1.262  -2.636  24.183  0.00  0.00    +0.100 C 
BRANCH  13  16
ATOM      1  O   UNL     1      -1.658  -0.670  22.922  0.00  0.00    -0.276 OA
ATOM      3  O   UNL     1       5.375  -0.848  24.186  0.00  0.00    -0.276 OA
ATOM      5  N   UNL     1       0.483  -0.937  23.781  0.00  0.00    -0.298 N 
ATOM      6  N   UNL     1       3.253  -0.614  23.274  0.00  0.00    -0.299 N 
ATOM     16  C   UNL     1      -0.838  -1.325  23.570  0.00  0.00    +0.216 C 
ATOM     18  C   UNL     1       0.975   0.322  23.215  0.00  0.00    +0.126 C 
ATOM     19  C   UNL     1       1.461  -1.655  24.608  0.00  0.00    +0.126 C 
ATOM     20  C   UNL     1       2.274   0.105  22.446  0.00  0.00    +0.126 C 
ATOM     21  C   UNL     1       2.761  -1.873  23.838  0.00  0.00    +0.126 C 
ATOM     24  C   UNL     1       4.573  -0.225  23.486  0.00  0.00    +0.213 C 
ATOM     26  C   UNL     1       5.020   1.045  22.805  0.00  0.00    +0.109 C 
ENDBRANCH  13  16
ENDBRANCH   9  13
BRANCH  10  15
ATOM     15  C   UNL     1      -1.013  -0.558  26.379  0.00  0.00    +0.064 C 
BRANCH  15  17
ATOM      2  O   UNL     1      -0.017   2.896  26.575  0.00  0.00    -0.358 OA
ATOM      7  N   UNL     1      -0.073   1.601  27.077  0.00  0.00    -0.083 NA
ATOM     17  C   UNL     1      -0.757   0.906  26.165  0.00  0.00    +0.084 A 
ATOM     22  C   UNL     1      -1.155   1.701  25.076  0.00  0.00    +0.072 A 
ATOM     23  C   UNL     1      -0.665   2.943  25.383  0.00  0.00    +0.151 A 
BRANCH  23  25
ATOM     25  C   UNL     1      -0.702   4.245  24.708  0.00  0.00    +0.161 C 
BRANCH  25   8
ATOM      8  N   UNL     1      -1.981   4.917  24.833  0.00  0.00    -0.294 NA
ATOM     28  C   UNL     1      -1.800   6.368  24.953  0.00  0.00    +0.105 C 
BRANCH   8  27
ATOM     27  C   UNL     1      -2.729   4.408  25.989  0.00  0.00    +0.119 C 
BRANCH  27  29
ATOM     29  C   UNL     1      -3.931   3.612  25.574  0.00  0.00    -0.033 A 
ATOM     30  C   UNL     1      -4.799   3.105  26.540  0.00  0.00    +0.005 A 
ATOM     31  C   UNL     1      -4.182   3.381  24.221  0.00  0.00    +0.005 A 
ATOM     32  C   UNL     1      -5.917   2.365  26.154  0.00  0.00    +0.000 A 
ATOM     33  C   UNL     1      -5.299   2.641  23.835  0.00  0.00    +0.000 A 
ATOM     34  C   UNL     1      -6.167   2.134  24.802  0.00  0.00    +0.000 A 
ENDBRANCH  27  29
ENDBRANCH   8  27
ENDBRANCH  25   8
ENDBRANCH  23  25
ENDBRANCH  15  17
ENDBRANCH  10  15
TORSDOF 8
ENDMDL
