MODEL 1
REMARK VINA RESULT:      -4.6      0.000      0.000
REMARK  Name = 75536965
REMARK  1 active torsions:
REMARK  status: ('A' for Active; 'I' for Inactive)
REMARK    1  A    between atoms: C_14  and  C_15
REMARK                            x       y       z     vdW  Elec       q    Type
REMARK                         _______ _______ _______ _____ _____    ______ ____
ROOT
ATOM      1  O   UNL     1      -6.335   4.879  26.028  0.00  0.00    -0.253 OA
ATOM      2  O   UNL     1       0.357   2.893  25.620  0.00  0.00    -0.268 OA
ATOM      3  N   UNL     1      -4.453   3.503  25.714  0.00  0.00    -0.278 N 
ATOM      4  N   UNL     1      -1.878   2.795  24.947  0.00  0.00    -0.293 N 
ATOM      5  N   UNL     1      -6.470   2.730  25.096  0.00  0.00    -0.297 N 
ATOM      8  C   UNL     1      -4.212   2.130  25.304  0.00  0.00    +0.112 C 
ATOM      9  C   UNL     1      -3.018   2.065  24.356  0.00  0.00    +0.132 C 
ATOM     10  C   UNL     1      -5.541   1.701  24.690  0.00  0.00    +0.129 C 
ATOM     11  C   UNL     1      -3.354   4.313  26.212  0.00  0.00    +0.128 C 
ATOM     12  C   UNL     1      -2.155   4.201  25.271  0.00  0.00    +0.127 C 
ATOM     13  C   UNL     1      -5.810   3.836  25.663  0.00  0.00    +0.303 C 
ATOM     14  C   UNL     1      -0.603   2.272  25.164  0.00  0.00    +0.267 C 
ATOM     19  H   UNL     1      -7.470   2.699  24.922  0.00  0.00    +0.150 HD
ENDROOT
BRANCH  14  15
ATOM      6  N   UNL     1      -0.873  -0.049  25.699  0.00  0.00    -0.247 NA
ATOM      7  N   UNL     1       0.556  -0.806  23.406  0.00  0.00    -0.259 NA
ATOM     15  C   UNL     1      -0.369   0.859  24.839  0.00  0.00    +0.144 A 
ATOM     16  C   UNL     1       0.332   0.488  23.713  0.00  0.00    +0.143 A 
ATOM     17  C   UNL     1      -0.649  -1.342  25.391  0.00  0.00    +0.131 A 
ATOM     18  C   UNL     1       0.052  -1.713  24.266  0.00  0.00    +0.130 A 
ENDBRANCH  14  15
TORSDOF 1
ENDMDL
MODEL 2
REMARK VINA RESULT:      -4.0      2.140      3.150
REMARK  Name = 75536965
REMARK  1 active torsions:
REMARK  status: ('A' for Active; 'I' for Inactive)
REMARK    1  A    between atoms: C_14  and  C_15
REMARK                            x       y       z     vdW  Elec       q    Type
REMARK                         _______ _______ _______ _____ _____    ______ ____
ROOT
ATOM      1  O   UNL     1      -6.705   2.011  25.367  0.00  0.00    -0.253 OA
ATOM      2  O   UNL     1      -1.095  -1.996  24.193  0.00  0.00    -0.268 OA
ATOM      3  N   UNL     1      -4.508   1.397  24.789  0.00  0.00    -0.278 N 
ATOM      4  N   UNL     1      -2.116  -0.013  24.890  0.00  0.00    -0.293 N 
ATOM      5  N   UNL     1      -4.981   3.575  25.077  0.00  0.00    -0.297 N 
ATOM      8  C   UNL     1      -3.286   2.091  24.421  0.00  0.00    +0.112 C 
ATOM      9  C   UNL     1      -2.086   1.447  25.109  0.00  0.00    +0.132 C 
ATOM     10  C   UNL     1      -3.558   3.536  24.829  0.00  0.00    +0.129 C 
ATOM     11  C   UNL     1      -4.575  -0.051  24.694  0.00  0.00    +0.128 C 
ATOM     12  C   UNL     1      -3.344  -0.675  25.351  0.00  0.00    +0.127 C 
ATOM     13  C   UNL     1      -5.541   2.285  25.106  0.00  0.00    +0.303 C 
ATOM     14  C   UNL     1      -1.084  -0.774  24.340  0.00  0.00    +0.267 C 
ATOM     19  H   UNL     1      -5.502   4.421  25.287  0.00  0.00    +0.150 HD
ENDROOT
BRANCH  14  15
ATOM      6  N   UNL     1       0.876  -0.715  22.962  0.00  0.00    -0.247 NA
ATOM      7  N   UNL     1       1.565   1.821  23.947  0.00  0.00    -0.259 NA
ATOM     15  C   UNL     1       0.122  -0.075  23.878  0.00  0.00    +0.144 A 
ATOM     16  C   UNL     1       0.460   1.170  24.361  0.00  0.00    +0.143 A 
ATOM     17  C   UNL     1       1.982  -0.064  22.548  0.00  0.00    +0.131 A 
ATOM     18  C   UNL     1       2.320   1.181  23.031  0.00  0.00    +0.130 A 
ENDBRANCH  14  15
TORSDOF 1
ENDMDL
MODEL 3
REMARK VINA RESULT:      -3.3      1.756      5.762
REMARK  Name = 75536965
REMARK  1 active torsions:
REMARK  status: ('A' for Active; 'I' for Inactive)
REMARK    1  A    between atoms: C_14  and  C_15
REMARK                            x       y       z     vdW  Elec       q    Type
REMARK                         _______ _______ _______ _____ _____    ______ ____
ROOT
ATOM      1  O   UNL     1       2.755   0.994  23.239  0.00  0.00    -0.253 OA
ATOM      2  O   UNL     1      -2.733   4.811  25.293  0.00  0.00    -0.268 OA
ATOM      3  N   UNL     1       0.546   1.552  23.828  0.00  0.00    -0.278 N 
ATOM      4  N   UNL     1      -1.514   2.820  25.195  0.00  0.00    -0.293 N 
ATOM      5  N   UNL     1       1.088  -0.617  23.604  0.00  0.00    -0.297 N 
ATOM      8  C   UNL     1      -0.709   0.840  23.992  0.00  0.00    +0.112 C 
ATOM      9  C   UNL     1      -1.444   1.345  25.229  0.00  0.00    +0.132 C 
ATOM     10  C   UNL     1      -0.284  -0.624  24.053  0.00  0.00    +0.129 C 
ATOM     11  C   UNL     1       0.567   3.004  23.884  0.00  0.00    +0.128 C 
ATOM     12  C   UNL     1      -0.210   3.491  25.106  0.00  0.00    +0.127 C 
ATOM     13  C   UNL     1       1.604   0.690  23.520  0.00  0.00    +0.303 C 
ATOM     14  C   UNL     1      -2.680   3.581  25.283  0.00  0.00    +0.267 C 
ATOM     19  H   UNL     1       1.643  -1.452  23.445  0.00  0.00    +0.150 HD
ENDROOT
BRANCH  14  15
ATOM      6  N   UNL     1      -4.085   1.761  24.606  0.00  0.00    -0.247 NA
ATOM      7  N   UNL     1      -6.176   2.692  26.228  0.00  0.00    -0.259 NA
ATOM     15  C   UNL     1      -3.965   2.874  25.357  0.00  0.00    +0.144 A 
ATOM     16  C   UNL     1      -4.991   3.331  26.154  0.00  0.00    +0.143 A 
ATOM     17  C   UNL     1      -5.270   1.123  24.680  0.00  0.00    +0.131 A 
ATOM     18  C   UNL     1      -6.296   1.580  25.477  0.00  0.00    +0.130 A 
ENDBRANCH  14  15
TORSDOF 1
ENDMDL
MODEL 4
REMARK VINA RESULT:      -3.2      2.641      5.391
REMARK  Name = 75536965
REMARK  1 active torsions:
REMARK  status: ('A' for Active; 'I' for Inactive)
REMARK    1  A    between atoms: C_14  and  C_15
REMARK                            x       y       z     vdW  Elec       q    Type
REMARK                         _______ _______ _______ _____ _____    ______ ____
ROOT
ATOM      1  O   UNL     1      -3.571  -3.548  24.898  0.00  0.00    -0.253 OA
ATOM      2  O   UNL     1      -4.714   3.329  25.454  0.00  0.00    -0.268 OA
ATOM      3  N   UNL     1      -3.146  -1.235  24.972  0.00  0.00    -0.278 N 
ATOM      4  N   UNL     1      -3.586   1.479  24.576  0.00  0.00    -0.293 N 
ATOM      5  N   UNL     1      -1.516  -2.610  24.265  0.00  0.00    -0.297 N 
ATOM      8  C   UNL     1      -1.992  -0.372  24.782  0.00  0.00    +0.112 C 
ATOM      9  C   UNL     1      -2.384   0.864  23.980  0.00  0.00    +0.132 C 
ATOM     10  C   UNL     1      -0.973  -1.282  24.101  0.00  0.00    +0.129 C 
ATOM     11  C   UNL     1      -4.395  -0.677  25.461  0.00  0.00    +0.128 C 
ATOM     12  C   UNL     1      -4.747   0.584  24.672  0.00  0.00    +0.127 C 
ATOM     13  C   UNL     1      -2.841  -2.580  24.737  0.00  0.00    +0.303 C 
ATOM     14  C   UNL     1      -3.699   2.806  24.992  0.00  0.00    +0.267 C 
ATOM     19  H   UNL     1      -1.034  -3.462  23.995  0.00  0.00    +0.150 HD
ENDROOT
BRANCH  14  15
ATOM      6  N   UNL     1      -1.391   3.094  24.413  0.00  0.00    -0.247 NA
ATOM      7  N   UNL     1      -1.470   5.789  25.188  0.00  0.00    -0.259 NA
ATOM     15  C   UNL     1      -2.513   3.667  24.892  0.00  0.00    +0.144 A 
ATOM     16  C   UNL     1      -2.552   4.990  25.273  0.00  0.00    +0.143 A 
ATOM     17  C   UNL     1      -0.309   3.893  24.329  0.00  0.00    +0.131 A 
ATOM     18  C   UNL     1      -0.347   5.216  24.709  0.00  0.00    +0.130 A 
ENDBRANCH  14  15
TORSDOF 1
ENDMDL
MODEL 5
REMARK VINA RESULT:      -2.9      2.706      5.026
REMARK  Name = 75536965
REMARK  1 active torsions:
REMARK  status: ('A' for Active; 'I' for Inactive)
REMARK    1  A    between atoms: C_14  and  C_15
REMARK                            x       y       z     vdW  Elec       q    Type
REMARK                         _______ _______ _______ _____ _____    ______ ____
ROOT
ATOM      1  O   UNL     1      -3.172  -3.607  23.966  0.00  0.00    -0.253 OA
ATOM      2  O   UNL     1       0.827   1.870  25.672  0.00  0.00    -0.268 OA
ATOM      3  N   UNL     1      -2.519  -1.378  24.339  0.00  0.00    -0.278 N 
ATOM      4  N   UNL     1      -1.225   0.758  25.557  0.00  0.00    -0.293 N 
ATOM      5  N   UNL     1      -4.696  -1.824  24.008  0.00  0.00    -0.297 N 
ATOM      8  C   UNL     1      -3.160  -0.075  24.301  0.00  0.00    +0.112 C 
ATOM      9  C   UNL     1      -2.700   0.774  25.482  0.00  0.00    +0.132 C 
ATOM     10  C   UNL     1      -4.649  -0.409  24.294  0.00  0.00    +0.129 C 
ATOM     11  C   UNL     1      -1.079  -1.471  24.512  0.00  0.00    +0.128 C 
ATOM     12  C   UNL     1      -0.634  -0.582  25.672  0.00  0.00    +0.127 C 
ATOM     13  C   UNL     1      -3.422  -2.416  24.088  0.00  0.00    +0.303 C 
ATOM     14  C   UNL     1      -0.400   1.883  25.571  0.00  0.00    +0.267 C 
ATOM     19  H   UNL     1      -5.551  -2.347  23.849  0.00  0.00    +0.150 HD
ENDROOT
BRANCH  14  15
ATOM      6  N   UNL     1      -2.246   3.351  25.997  0.00  0.00    -0.247 NA
ATOM      7  N   UNL     1      -0.964   5.453  24.652  0.00  0.00    -0.259 NA
ATOM     15  C   UNL     1      -1.027   3.204  25.440  0.00  0.00    +0.144 A 
ATOM     16  C   UNL     1      -0.398   4.236  24.780  0.00  0.00    +0.143 A 
ATOM     17  C   UNL     1      -2.813   4.568  25.869  0.00  0.00    +0.131 A 
ATOM     18  C   UNL     1      -2.183   5.599  25.209  0.00  0.00    +0.130 A 
ENDBRANCH  14  15
TORSDOF 1
ENDMDL
MODEL 6
REMARK VINA RESULT:      -2.6      2.285      6.343
REMARK  Name = 75536965
REMARK  1 active torsions:
REMARK  status: ('A' for Active; 'I' for Inactive)
REMARK    1  A    between atoms: C_14  and  C_15
REMARK                            x       y       z     vdW  Elec       q    Type
REMARK                         _______ _______ _______ _____ _____    ______ ____
ROOT
ATOM      1  O   UNL     1       2.512  -0.805  23.370  0.00  0.00    -0.253 OA
ATOM      2  O   UNL     1      -4.248  -0.874  25.159  0.00  0.00    -0.268 OA
ATOM      3  N   UNL     1       0.389  -0.026  24.018  0.00  0.00    -0.278 N 
ATOM      4  N   UNL     1      -2.385   0.098  24.138  0.00  0.00    -0.293 N 
ATOM      5  N   UNL     1       1.931   1.468  23.359  0.00  0.00    -0.297 N 
ATOM      8  C   UNL     1      -0.232   1.268  24.244  0.00  0.00    +0.112 C 
ATOM      9  C   UNL     1      -1.643   1.284  23.665  0.00  0.00    +0.132 C 
ATOM     10  C   UNL     1       0.739   2.249  23.592  0.00  0.00    +0.129 C 
ATOM     11  C   UNL     1      -0.326  -1.242  24.367  0.00  0.00    +0.128 C 
ATOM     12  C   UNL     1      -1.750  -1.187  23.815  0.00  0.00    +0.127 C 
ATOM     13  C   UNL     1       1.705   0.094  23.563  0.00  0.00    +0.303 C 
ATOM     14  C   UNL     1      -3.613   0.117  24.800  0.00  0.00    +0.267 C 
ATOM     19  H   UNL     1       2.805   1.849  23.010  0.00  0.00    +0.150 HD
ENDROOT
BRANCH  14  15
ATOM      6  N   UNL     1      -3.352   2.429  25.375  0.00  0.00    -0.247 NA
ATOM      7  N   UNL     1      -6.133   2.789  25.441  0.00  0.00    -0.259 NA
ATOM     15  C   UNL     1      -4.209   1.421  25.117  0.00  0.00    +0.144 A 
ATOM     16  C   UNL     1      -5.574   1.598  25.149  0.00  0.00    +0.143 A 
ATOM     17  C   UNL     1      -3.911   3.620  25.667  0.00  0.00    +0.131 A 
ATOM     18  C   UNL     1      -5.276   3.797  25.699  0.00  0.00    +0.130 A 
ENDBRANCH  14  15
TORSDOF 1
ENDMDL
MODEL 7
REMARK VINA RESULT:      -2.6      2.215      3.602
REMARK  Name = 75536965
REMARK  1 active torsions:
REMARK  status: ('A' for Active; 'I' for Inactive)
REMARK    1  A    between atoms: C_14  and  C_15
REMARK                            x       y       z     vdW  Elec       q    Type
REMARK                         _______ _______ _______ _____ _____    ______ ____
ROOT
ATOM      1  O   UNL     1      -4.307   3.930  25.918  0.00  0.00    -0.253 OA
ATOM      2  O   UNL     1      -0.490  -1.437  23.567  0.00  0.00    -0.268 OA
ATOM      3  N   UNL     1      -2.527   2.746  24.935  0.00  0.00    -0.278 N 
ATOM      4  N   UNL     1      -0.717   0.676  24.540  0.00  0.00    -0.293 N 
ATOM      5  N   UNL     1      -2.239   4.921  25.421  0.00  0.00    -0.297 N 
ATOM      8  C   UNL     1      -1.217   3.073  24.399  0.00  0.00    +0.112 C 
ATOM      9  C   UNL     1      -0.195   2.026  24.831  0.00  0.00    +0.132 C 
ATOM     10  C   UNL     1      -0.955   4.480  24.928  0.00  0.00    +0.129 C 
ATOM     11  C   UNL     1      -3.062   1.405  24.772  0.00  0.00    +0.128 C 
ATOM     12  C   UNL     1      -2.009   0.371  25.170  0.00  0.00    +0.127 C 
ATOM     13  C   UNL     1      -3.168   3.866  25.475  0.00  0.00    +0.303 C 
ATOM     14  C   UNL     1      -0.072  -0.299  23.778  0.00  0.00    +0.267 C 
ATOM     19  H   UNL     1      -2.429   5.857  25.764  0.00  0.00    +0.150 HD
ENDROOT
BRANCH  14  15
ATOM      6  N   UNL     1       2.030   0.851  23.862  0.00  0.00    -0.247 NA
ATOM      7  N   UNL     1       2.728  -0.113  21.321  0.00  0.00    -0.259 NA
ATOM     15  C   UNL     1       1.212   0.048  23.153  0.00  0.00    +0.144 A 
ATOM     16  C   UNL     1       1.554  -0.426  21.906  0.00  0.00    +0.143 A 
ATOM     17  C   UNL     1       3.204   1.164  23.277  0.00  0.00    +0.131 A 
ATOM     18  C   UNL     1       3.546   0.690  22.030  0.00  0.00    +0.130 A 
ENDBRANCH  14  15
TORSDOF 1
ENDMDL
MODEL 8
REMARK VINA RESULT:      -2.4     19.059     21.031
REMARK  Name = 75536965
REMARK  1 active torsions:
REMARK  status: ('A' for Active; 'I' for Inactive)
REMARK    1  A    between atoms: C_14  and  C_15
REMARK                            x       y       z     vdW  Elec       q    Type
REMARK                         _______ _______ _______ _____ _____    ______ ____
ROOT
ATOM      1  O   UNL     1      17.399  -7.462  24.338  0.00  0.00    -0.253 OA
ATOM      2  O   UNL     1      16.200  -4.113  30.359  0.00  0.00    -0.268 OA
ATOM      3  N   UNL     1      16.495  -6.975  26.456  0.00  0.00    -0.278 N 
ATOM      4  N   UNL     1      16.422  -6.053  29.075  0.00  0.00    -0.293 N 
ATOM      5  N   UNL     1      16.134  -9.008  25.569  0.00  0.00    -0.297 N 
ATOM      8  C   UNL     1      15.595  -7.629  27.389  0.00  0.00    +0.112 C 
ATOM      9  C   UNL     1      16.109  -7.472  28.816  0.00  0.00    +0.132 C 
ATOM     10  C   UNL     1      15.539  -9.068  26.883  0.00  0.00    +0.129 C 
ATOM     11  C   UNL     1      16.926  -5.609  26.702  0.00  0.00    +0.128 C 
ATOM     12  C   UNL     1      17.397  -5.463  28.148  0.00  0.00    +0.127 C 
ATOM     13  C   UNL     1      16.756  -7.768  25.333  0.00  0.00    +0.303 C 
ATOM     14  C   UNL     1      15.909  -5.285  30.121  0.00  0.00    +0.267 C 
ATOM     19  H   UNL     1      16.173  -9.789  24.922  0.00  0.00    +0.150 HD
ENDROOT
BRANCH  14  15
ATOM      6  N   UNL     1      15.418  -6.659  32.023  0.00  0.00    -0.247 NA
ATOM      7  N   UNL     1      12.662  -6.290  31.654  0.00  0.00    -0.259 NA
ATOM     15  C   UNL     1      14.926  -5.905  31.019  0.00  0.00    +0.144 A 
ATOM     16  C   UNL     1      13.573  -5.724  30.838  0.00  0.00    +0.143 A 
ATOM     17  C   UNL     1      14.506  -7.225  32.839  0.00  0.00    +0.131 A 
ATOM     18  C   UNL     1      13.153  -7.044  32.658  0.00  0.00    +0.130 A 
ENDBRANCH  14  15
TORSDOF 1
ENDMDL
MODEL 9
REMARK VINA RESULT:      -2.2      2.454      3.121
REMARK  Name = 75536965
REMARK  1 active torsions:
REMARK  status: ('A' for Active; 'I' for Inactive)
REMARK    1  A    between atoms: C_14  and  C_15
REMARK                            x       y       z     vdW  Elec       q    Type
REMARK                         _______ _______ _______ _____ _____    ______ ____
ROOT
ATOM      1  O   UNL     1      -2.190   5.928  25.864  0.00  0.00    -0.253 OA
ATOM      2  O   UNL     1       0.006  -0.521  24.288  0.00  0.00    -0.268 OA
ATOM      3  N   UNL     1      -2.252   3.619  25.419  0.00  0.00    -0.278 N 
ATOM      4  N   UNL     1      -1.567   1.206  24.224  0.00  0.00    -0.293 N 
ATOM      5  N   UNL     1      -4.190   4.753  25.508  0.00  0.00    -0.297 N 
ATOM      8  C   UNL     1      -3.281   2.602  25.286  0.00  0.00    +0.112 C 
ATOM      9  C   UNL     1      -2.961   1.678  24.114  0.00  0.00    +0.132 C 
ATOM     10  C   UNL     1      -4.566   3.411  25.131  0.00  0.00    +0.129 C 
ATOM     11  C   UNL     1      -0.851   3.234  25.433  0.00  0.00    +0.128 C 
ATOM     12  C   UNL     1      -0.562   2.276  24.278  0.00  0.00    +0.127 C 
ATOM     13  C   UNL     1      -2.794   4.891  25.629  0.00  0.00    +0.303 C 
ATOM     14  C   UNL     1      -1.159  -0.128  24.235  0.00  0.00    +0.267 C 
ATOM     19  H   UNL     1      -4.842   5.527  25.596  0.00  0.00    +0.150 HD
ENDROOT
BRANCH  14  15
ATOM      6  N   UNL     1      -3.431  -0.777  23.829  0.00  0.00    -0.247 NA
ATOM      7  N   UNL     1      -2.851  -3.443  24.481  0.00  0.00    -0.259 NA
ATOM     15  C   UNL     1      -2.194  -1.170  24.193  0.00  0.00    +0.144 A 
ATOM     16  C   UNL     1      -1.909  -2.478  24.513  0.00  0.00    +0.143 A 
ATOM     17  C   UNL     1      -4.373  -1.741  23.797  0.00  0.00    +0.131 A 
ATOM     18  C   UNL     1      -4.088  -3.049  24.117  0.00  0.00    +0.130 A 
ENDBRANCH  14  15
TORSDOF 1
ENDMDL
MODEL 10
REMARK VINA RESULT:      -1.5      2.075      2.982
REMARK  Name = 75536965
REMARK  1 active torsions:
REMARK  status: ('A' for Active; 'I' for Inactive)
REMARK    1  A    between atoms: C_14  and  C_15
REMARK                            x       y       z     vdW  Elec       q    Type
REMARK                         _______ _______ _______ _____ _____    ______ ____
ROOT
ATOM      1  O   UNL     1      -6.279   4.850  25.740  0.00  0.00    -0.253 OA
ATOM      2  O   UNL     1      -3.916  -1.472  23.911  0.00  0.00    -0.268 OA
ATOM      3  N   UNL     1      -4.775   3.127  25.187  0.00  0.00    -0.278 N 
ATOM      4  N   UNL     1      -3.740   0.552  25.066  0.00  0.00    -0.293 N 
ATOM      5  N   UNL     1      -3.960   5.034  26.052  0.00  0.00    -0.297 N 
ATOM      8  C   UNL     1      -3.332   2.969  25.133  0.00  0.00    +0.112 C 
ATOM      9  C   UNL     1      -2.929   1.611  25.698  0.00  0.00    +0.132 C 
ATOM     10  C   UNL     1      -2.811   4.170  25.917  0.00  0.00    +0.129 C 
ATOM     11  C   UNL     1      -5.638   2.077  24.673  0.00  0.00    +0.128 C 
ATOM     12  C   UNL     1      -5.191   0.721  25.218  0.00  0.00    +0.127 C 
ATOM     13  C   UNL     1      -5.148   4.388  25.663  0.00  0.00    +0.303 C 
ATOM     14  C   UNL     1      -3.239  -0.570  24.404  0.00  0.00    +0.267 C 
ATOM     19  H   UNL     1      -3.932   5.966  26.454  0.00  0.00    +0.150 HD
ENDROOT
BRANCH  14  15
ATOM      6  N   UNL     1      -1.174   0.206  23.467  0.00  0.00    -0.247 NA
ATOM      7  N   UNL     1       0.254  -1.821  24.781  0.00  0.00    -0.259 NA
ATOM     15  C   UNL     1      -1.783  -0.697  24.261  0.00  0.00    +0.144 A 
ATOM     16  C   UNL     1      -1.082  -1.692  24.906  0.00  0.00    +0.143 A 
ATOM     17  C   UNL     1       0.162   0.077  23.342  0.00  0.00    +0.131 A 
ATOM     18  C   UNL     1       0.863  -0.917  23.987  0.00  0.00    +0.130 A 
ENDBRANCH  14  15
TORSDOF 1
ENDMDL
