MODEL 1
REMARK VINA RESULT:      -5.1      0.000      0.000
REMARK  Name = 11913087
REMARK  6 active torsions:
REMARK  status: ('A' for Active; 'I' for Inactive)
REMARK    1  A    between atoms: O_4  and  C_13
REMARK    2  A    between atoms: O_4  and  C_17
REMARK    3  A    between atoms: N_6  and  C_12
REMARK    4  A    between atoms: N_9  and  C_20
REMARK    5  A    between atoms: C_18  and  C_22
REMARK    6  A    between atoms: C_20  and  C_23
REMARK                            x       y       z     vdW  Elec       q    Type
REMARK                         _______ _______ _______ _____ _____    ______ ____
ROOT
ATOM      2  O   UNL     1      -2.239  -1.891  23.759  0.00  0.00    -0.368 OA
ATOM      3  O   UNL     1      -0.858  -0.777  26.262  0.00  0.00    -0.368 OA
ATOM     10  C   UNL     1      -2.052  -0.365  25.564  0.00  0.00    +0.173 C 
ATOM     11  C   UNL     1      -1.787  -0.566  24.085  0.00  0.00    +0.192 C 
ATOM     12  C   UNL     1      -3.184  -1.318  25.867  0.00  0.00    +0.130 C 
ATOM     13  C   UNL     1      -0.284  -0.453  24.003  0.00  0.00    +0.235 C 
ATOM     14  C   UNL     1      -2.922  -2.452  24.892  0.00  0.00    +0.185 C 
ATOM     15  C   UNL     1       0.156  -1.097  25.297  0.00  0.00    +0.207 C 
ENDROOT
BRANCH  12   6
ATOM      6  N   UNL     1      -4.457  -0.693  25.580  0.00  0.00    -0.306 N 
ATOM      7  N   UNL     1      -3.471   1.408  25.228  0.00  0.00    -0.214 NA
ATOM      8  N   UNL     1      -5.853   1.107  25.016  0.00  0.00    -0.223 NA
ATOM     16  C   UNL     1      -4.598   0.648  25.266  0.00  0.00    +0.216 A 
ATOM     18  C   UNL     1      -3.645   2.710  24.918  0.00  0.00    +0.083 A 
ATOM     19  C   UNL     1      -5.954   2.417  24.712  0.00  0.00    +0.116 A 
ATOM     21  C   UNL     1      -4.875   3.275  24.648  0.00  0.00    +0.049 A 
ATOM     28  H   UNL     1      -5.296  -1.260  25.553  0.00  0.00    +0.149 HD
BRANCH  18  22
ATOM      1  S   UNL     1      -1.018   2.800  24.213  0.00  0.00    -0.095 S 
ATOM     22  C   UNL     1      -2.437   3.488  24.887  0.00  0.00    +0.038 A 
ATOM     24  C   UNL     1      -2.215   4.775  25.338  0.00  0.00    +0.017 A 
ATOM     25  C   UNL     1      -0.870   5.196  25.127  0.00  0.00    +0.008 A 
ATOM     26  C   UNL     1      -0.111   4.218  24.522  0.00  0.00    +0.046 A 
ENDBRANCH  18  22
ENDBRANCH  12   6
BRANCH  13   4
ATOM      4  O   UNL     1       0.268  -1.095  22.876  0.00  0.00    -0.442 OA
BRANCH   4  17
ATOM      5  O   UNL     1       1.392  -0.407  20.994  0.00  0.00    -0.226 OA
ATOM      9  N   UNL     1       2.113   0.195  23.116  0.00  0.00    -0.278 N 
ATOM     17  C   UNL     1       1.275  -0.429  22.215  0.00  0.00    +0.401 C 
ATOM     29  H   UNL     1       1.899   0.109  24.105  0.00  0.00    +0.152 HD
BRANCH   9  20
ATOM     20  C   UNL     1       3.266   0.976  22.730  0.00  0.00    +0.134 C 
BRANCH  20  23
ATOM     23  C   UNL     1       4.498   0.157  22.928  0.00  0.00    -0.016 C 
ATOM     27  C   UNL     1       5.380   0.363  23.913  0.00  0.00    +0.005 C 
ENDBRANCH  20  23
ENDBRANCH   9  20
ENDBRANCH   4  17
ENDBRANCH  13   4
TORSDOF 6
ENDMDL
MODEL 2
REMARK VINA RESULT:      -4.0      2.036      3.937
REMARK  Name = 11913087
REMARK  6 active torsions:
REMARK  status: ('A' for Active; 'I' for Inactive)
REMARK    1  A    between atoms: O_4  and  C_13
REMARK    2  A    between atoms: O_4  and  C_17
REMARK    3  A    between atoms: N_6  and  C_12
REMARK    4  A    between atoms: N_9  and  C_20
REMARK    5  A    between atoms: C_18  and  C_22
REMARK    6  A    between atoms: C_20  and  C_23
REMARK                            x       y       z     vdW  Elec       q    Type
REMARK                         _______ _______ _______ _____ _____    ______ ____
ROOT
ATOM      2  O   UNL     1      -1.442   1.925  25.656  0.00  0.00    -0.368 OA
ATOM      3  O   UNL     1      -0.203   4.305  24.169  0.00  0.00    -0.368 OA
ATOM     10  C   UNL     1      -1.569   3.855  24.286  0.00  0.00    +0.173 C 
ATOM     11  C   UNL     1      -1.535   2.341  24.283  0.00  0.00    +0.192 C 
ATOM     12  C   UNL     1      -2.115   4.207  25.650  0.00  0.00    +0.130 C 
ATOM     13  C   UNL     1      -0.264   2.043  23.523  0.00  0.00    +0.235 C 
ATOM     14  C   UNL     1      -1.594   3.070  26.510  0.00  0.00    +0.185 C 
ATOM     15  C   UNL     1       0.645   3.164  23.971  0.00  0.00    +0.207 C 
ENDROOT
BRANCH  12   6
ATOM      6  N   UNL     1      -3.562   4.199  25.629  0.00  0.00    -0.306 N 
ATOM      7  N   UNL     1      -3.655   1.873  25.329  0.00  0.00    -0.214 NA
ATOM      8  N   UNL     1      -5.672   3.185  25.471  0.00  0.00    -0.223 NA
ATOM     16  C   UNL     1      -4.319   3.051  25.471  0.00  0.00    +0.216 A 
ATOM     18  C   UNL     1      -4.424   0.775  25.178  0.00  0.00    +0.083 A 
ATOM     19  C   UNL     1      -6.379   2.046  25.316  0.00  0.00    +0.116 A 
ATOM     21  C   UNL     1      -5.804   0.802  25.164  0.00  0.00    +0.049 A 
ATOM     28  H   UNL     1      -4.067   5.063  25.786  0.00  0.00    +0.149 HD
BRANCH  18  22
ATOM      1  S   UNL     1      -4.216  -1.598  23.862  0.00  0.00    -0.095 S 
ATOM     22  C   UNL     1      -3.694  -0.455  25.030  0.00  0.00    +0.038 A 
ATOM     24  C   UNL     1      -2.577  -0.897  25.712  0.00  0.00    +0.017 A 
ATOM     25  C   UNL     1      -2.149  -2.182  25.270  0.00  0.00    +0.008 A 
ATOM     26  C   UNL     1      -2.951  -2.679  24.266  0.00  0.00    +0.046 A 
ENDBRANCH  18  22
ENDBRANCH  12   6
BRANCH  13   4
ATOM      4  O   UNL     1       0.278   0.774  23.808  0.00  0.00    -0.442 OA
BRANCH   4  17
ATOM      5  O   UNL     1       0.964  -0.509  22.030  0.00  0.00    -0.226 OA
ATOM      9  N   UNL     1       2.458   0.828  23.197  0.00  0.00    -0.278 N 
ATOM     17  C   UNL     1       1.217   0.290  22.925  0.00  0.00    +0.401 C 
ATOM     29  H   UNL     1       2.533   1.491  23.963  0.00  0.00    +0.152 HD
BRANCH   9  20
ATOM     20  C   UNL     1       3.650   0.515  22.443  0.00  0.00    +0.134 C 
BRANCH  20  23
ATOM     23  C   UNL     1       4.840   0.649  23.335  0.00  0.00    -0.016 C 
ATOM     27  C   UNL     1       5.450  -0.385  23.925  0.00  0.00    +0.005 C 
ENDBRANCH  20  23
ENDBRANCH   9  20
ENDBRANCH   4  17
ENDBRANCH  13   4
TORSDOF 6
ENDMDL
MODEL 3
REMARK VINA RESULT:      -3.0      1.561      2.220
REMARK  Name = 11913087
REMARK  6 active torsions:
REMARK  status: ('A' for Active; 'I' for Inactive)
REMARK    1  A    between atoms: O_4  and  C_13
REMARK    2  A    between atoms: O_4  and  C_17
REMARK    3  A    between atoms: N_6  and  C_12
REMARK    4  A    between atoms: N_9  and  C_20
REMARK    5  A    between atoms: C_18  and  C_22
REMARK    6  A    between atoms: C_20  and  C_23
REMARK                            x       y       z     vdW  Elec       q    Type
REMARK                         _______ _______ _______ _____ _____    ______ ____
ROOT
ATOM      2  O   UNL     1      -2.326   0.028  24.588  0.00  0.00    -0.368 OA
ATOM      3  O   UNL     1      -3.215  -2.827  23.899  0.00  0.00    -0.368 OA
ATOM     10  C   UNL     1      -3.848  -1.788  24.676  0.00  0.00    +0.173 C 
ATOM     11  C   UNL     1      -2.746  -1.064  25.422  0.00  0.00    +0.192 C 
ATOM     12  C   UNL     1      -4.423  -0.734  23.759  0.00  0.00    +0.130 C 
ATOM     13  C   UNL     1      -1.676  -2.124  25.535  0.00  0.00    +0.235 C 
ATOM     14  C   UNL     1      -3.211   0.131  23.461  0.00  0.00    +0.185 C 
ATOM     15  C   UNL     1      -1.817  -2.860  24.223  0.00  0.00    +0.207 C 
ENDROOT
BRANCH  12   6
ATOM      6  N   UNL     1      -5.433   0.037  24.452  0.00  0.00    -0.306 N 
ATOM      7  N   UNL     1      -4.023   1.902  24.661  0.00  0.00    -0.214 NA
ATOM      8  N   UNL     1      -6.270   1.945  25.531  0.00  0.00    -0.223 NA
ATOM     16  C   UNL     1      -5.236   1.334  24.895  0.00  0.00    +0.216 A 
ATOM     18  C   UNL     1      -3.866   3.166  25.106  0.00  0.00    +0.083 A 
ATOM     19  C   UNL     1      -6.044   3.208  25.949  0.00  0.00    +0.116 A 
ATOM     21  C   UNL     1      -4.852   3.875  25.763  0.00  0.00    +0.049 A 
ATOM     28  H   UNL     1      -6.357  -0.357  24.584  0.00  0.00    +0.149 HD
BRANCH  18  22
ATOM      1  S   UNL     1      -1.539   2.983  23.707  0.00  0.00    -0.095 S 
ATOM     22  C   UNL     1      -2.574   3.740  24.846  0.00  0.00    +0.038 A 
ATOM     24  C   UNL     1      -1.992   4.867  25.394  0.00  0.00    +0.017 A 
ATOM     25  C   UNL     1      -0.688   5.108  24.873  0.00  0.00    +0.008 A 
ATOM     26  C   UNL     1      -0.317   4.159  23.945  0.00  0.00    +0.046 A 
ENDBRANCH  18  22
ENDBRANCH  12   6
BRANCH  13   4
ATOM      4  O   UNL     1      -0.380  -1.599  25.713  0.00  0.00    -0.442 OA
BRANCH   4  17
ATOM      5  O   UNL     1      -0.275   0.679  25.431  0.00  0.00    -0.226 OA
ATOM      9  N   UNL     1       0.478  -0.775  23.786  0.00  0.00    -0.278 N 
ATOM     17  C   UNL     1      -0.074  -0.456  25.009  0.00  0.00    +0.401 C 
ATOM     29  H   UNL     1       0.601  -1.757  23.560  0.00  0.00    +0.152 HD
BRANCH   9  20
ATOM     20  C   UNL     1       0.904   0.209  22.818  0.00  0.00    +0.134 C 
BRANCH  20  23
ATOM     23  C   UNL     1       2.347  -0.008  22.504  0.00  0.00    -0.016 C 
ATOM     27  C   UNL     1       3.308   0.887  22.758  0.00  0.00    +0.005 C 
ENDBRANCH  20  23
ENDBRANCH   9  20
ENDBRANCH   4  17
ENDBRANCH  13   4
TORSDOF 6
ENDMDL
