MODEL 1
REMARK VINA RESULT:       5.3      0.000      0.000
REMARK  Name = 7134268
REMARK  9 active torsions:
REMARK  status: ('A' for Active; 'I' for Inactive)
REMARK    1  A    between atoms: N_9  and  C_14
REMARK    2  A    between atoms: N_10  and  C_21
REMARK    3  A    between atoms: C_15  and  C_19
REMARK    4  A    between atoms: C_20  and  C_23
REMARK    5  A    between atoms: C_21  and  C_24
REMARK    6  A    between atoms: C_21  and  C_26
REMARK    7  A    between atoms: C_22  and  C_25
REMARK    8  A    between atoms: C_24  and  C_28
REMARK    9  A    between atoms: C_29  and  C_33
REMARK                            x       y       z     vdW  Elec       q    Type
REMARK                         _______ _______ _______ _____ _____    ______ ____
ROOT
ATOM      4  O   UNL     1      -3.853   0.065  26.507  0.00  0.00    -0.267 OA
ATOM      8  N   UNL     1      -2.101   0.423  25.027  0.00  0.00    -0.283 N 
ATOM     14  C   UNL     1       0.585   1.318  24.283  0.00  0.00    +0.077 C 
ATOM     15  C   UNL     1      -1.311   1.199  25.991  0.00  0.00    +0.164 C 
ATOM     16  C   UNL     1       0.197   1.130  25.753  0.00  0.00    +0.054 C 
ATOM     17  C   UNL     1      -0.210   0.352  23.408  0.00  0.00    +0.041 C 
ATOM     18  C   UNL     1      -1.711   0.530  23.610  0.00  0.00    +0.111 C 
ATOM     20  C   UNL     1      -3.246  -0.268  25.487  0.00  0.00    +0.283 C 
ENDROOT
BRANCH  20  23
ATOM      5  O   UNL     1      -3.170  -2.621  24.998  0.00  0.00    -0.458 OA
ATOM     23  C   UNL     1      -3.704  -1.412  24.706  0.00  0.00    +0.189 A 
ATOM     27  C   UNL     1      -4.612  -1.502  23.687  0.00  0.00    +0.054 A 
ATOM     30  C   UNL     1      -4.644  -2.867  23.319  0.00  0.00    +0.042 A 
ATOM     31  C   UNL     1      -3.749  -3.507  24.145  0.00  0.00    +0.196 A 
ENDBRANCH  20  23
BRANCH  15  19
ATOM      3  O   UNL     1      -1.921   3.306  26.936  0.00  0.00    -0.274 OA
ATOM     10  N   UNL     1      -2.199   2.975  24.649  0.00  0.00    -0.302 N 
ATOM     19  C   UNL     1      -1.832   2.606  25.932  0.00  0.00    +0.234 C 
ATOM     37  H   UNL     1      -2.072   2.322  23.881  0.00  0.00    +0.150 HD
BRANCH  10  21
ATOM     21  C   UNL     1      -2.751   4.271  24.327  0.00  0.00    +0.163 C 
BRANCH  21  26
ATOM      7  O   UNL     1      -1.876   6.422  25.043  0.00  0.00    -0.274 OA
ATOM     11  N   UNL     1      -0.397   4.819  24.325  0.00  0.00    -0.328 N 
ATOM     26  C   UNL     1      -1.661   5.299  24.593  0.00  0.00    +0.231 C 
ATOM     38  H   UNL     1      -0.231   3.885  23.963  0.00  0.00    +0.145 HD
ATOM     39  H   UNL     1       0.422   5.399  24.473  0.00  0.00    +0.145 HD
ENDBRANCH  21  26
BRANCH  21  24
ATOM     24  C   UNL     1      -4.002   4.592  25.153  0.00  0.00    +0.074 C 
BRANCH  24  28
ATOM      2  S   UNL     1      -5.112   2.404  23.890  0.00  0.00    -0.102 S 
ATOM     28  C   UNL     1      -4.948   3.418  25.242  0.00  0.00    -0.008 A 
ATOM     32  C   UNL     1      -5.716   3.054  26.302  0.00  0.00    +0.011 A 
ATOM     34  C   UNL     1      -6.479   1.888  26.003  0.00  0.00    +0.008 A 
ATOM     35  C   UNL     1      -6.246   1.430  24.725  0.00  0.00    +0.045 A 
ENDBRANCH  24  28
ENDBRANCH  21  24
ENDBRANCH  10  21
ENDBRANCH  15  19
BRANCH  14   9
ATOM      6  O   UNL     1       1.846  -0.576  22.533  0.00  0.00    -0.270 OA
ATOM      9  N   UNL     1       2.004   1.124  24.101  0.00  0.00    -0.308 N 
ATOM     22  C   UNL     1       2.520   0.178  23.227  0.00  0.00    +0.254 C 
ATOM     36  H   UNL     1       2.642   1.733  24.605  0.00  0.00    +0.149 HD
BRANCH  22  25
ATOM      1  S   UNL     1       4.891   1.395  22.602  0.00  0.00    +0.041 S 
ATOM     12  N   UNL     1       6.157  -0.640  23.333  0.00  0.00    -0.146 NA
ATOM     13  N   UNL     1       6.332   0.575  22.839  0.00  0.00    -0.110 NA
ATOM     25  C   UNL     1       4.002   0.085  23.174  0.00  0.00    +0.117 A 
ATOM     29  C   UNL     1       4.813  -0.921  23.524  0.00  0.00    +0.081 A 
ATOM     33  C   UNL     1       4.449  -2.244  24.072  0.00  0.00    +0.069 C 
ENDBRANCH  22  25
ENDBRANCH  14   9
TORSDOF 8
ENDMDL
MODEL 2
REMARK VINA RESULT:       6.0      1.348      2.757
REMARK  Name = 7134268
REMARK  9 active torsions:
REMARK  status: ('A' for Active; 'I' for Inactive)
REMARK    1  A    between atoms: N_9  and  C_14
REMARK    2  A    between atoms: N_10  and  C_21
REMARK    3  A    between atoms: C_15  and  C_19
REMARK    4  A    between atoms: C_20  and  C_23
REMARK    5  A    between atoms: C_21  and  C_24
REMARK    6  A    between atoms: C_21  and  C_26
REMARK    7  A    between atoms: C_22  and  C_25
REMARK    8  A    between atoms: C_24  and  C_28
REMARK    9  A    between atoms: C_29  and  C_33
REMARK                            x       y       z     vdW  Elec       q    Type
REMARK                         _______ _______ _______ _____ _____    ______ ____
ROOT
ATOM      4  O   UNL     1      -4.101  -0.543  26.501  0.00  0.00    -0.267 OA
ATOM      8  N   UNL     1      -2.392   0.028  25.038  0.00  0.00    -0.283 N 
ATOM     14  C   UNL     1       0.231   1.126  24.342  0.00  0.00    +0.077 C 
ATOM     15  C   UNL     1      -1.632   0.767  26.053  0.00  0.00    +0.164 C 
ATOM     16  C   UNL     1      -0.125   0.800  25.795  0.00  0.00    +0.054 C 
ATOM     17  C   UNL     1      -0.524   0.192  23.400  0.00  0.00    +0.041 C 
ATOM     18  C   UNL     1      -2.029   0.271  23.630  0.00  0.00    +0.111 C 
ATOM     20  C   UNL     1      -3.491  -0.758  25.451  0.00  0.00    +0.283 C 
ENDROOT
BRANCH  20  23
ATOM      5  O   UNL     1      -3.377  -3.082  24.842  0.00  0.00    -0.458 OA
ATOM     23  C   UNL     1      -3.899  -1.859  24.585  0.00  0.00    +0.189 A 
ATOM     27  C   UNL     1      -4.747  -1.896  23.512  0.00  0.00    +0.054 A 
ATOM     30  C   UNL     1      -4.752  -3.239  23.070  0.00  0.00    +0.042 A 
ATOM     31  C   UNL     1      -3.902  -3.922  23.910  0.00  0.00    +0.196 A 
ENDBRANCH  20  23
BRANCH  15  19
ATOM      3  O   UNL     1      -1.628   3.087  26.623  0.00  0.00    -0.274 OA
ATOM     10  N   UNL     1      -3.495   2.190  25.560  0.00  0.00    -0.302 N 
ATOM     19  C   UNL     1      -2.227   2.143  26.113  0.00  0.00    +0.234 C 
ATOM     37  H   UNL     1      -3.897   1.351  25.151  0.00  0.00    +0.150 HD
BRANCH  10  21
ATOM     21  C   UNL     1      -4.294   3.393  25.514  0.00  0.00    +0.163 C 
BRANCH  21  26
ATOM      7  O   UNL     1      -6.114   1.846  25.071  0.00  0.00    -0.274 OA
ATOM     11  N   UNL     1      -6.621   3.937  25.876  0.00  0.00    -0.328 N 
ATOM     26  C   UNL     1      -5.751   2.961  25.438  0.00  0.00    +0.231 C 
ATOM     38  H   UNL     1      -6.307   4.850  26.188  0.00  0.00    +0.145 HD
ATOM     39  H   UNL     1      -7.622   3.772  25.890  0.00  0.00    +0.145 HD
ENDBRANCH  21  26
BRANCH  21  24
ATOM     24  C   UNL     1      -3.938   4.283  24.316  0.00  0.00    +0.074 C 
BRANCH  24  28
ATOM      2  S   UNL     1      -1.447   3.770  23.244  0.00  0.00    -0.102 S 
ATOM     28  C   UNL     1      -2.470   4.639  24.283  0.00  0.00    -0.008 A 
ATOM     32  C   UNL     1      -1.837   5.601  25.005  0.00  0.00    +0.011 A 
ATOM     34  C   UNL     1      -0.446   5.637  24.699  0.00  0.00    +0.008 A 
ATOM     35  C   UNL     1      -0.099   4.694  23.756  0.00  0.00    +0.045 A 
ENDBRANCH  24  28
ENDBRANCH  21  24
ENDBRANCH  10  21
ENDBRANCH  15  19
BRANCH  14   9
ATOM      6  O   UNL     1       1.570  -0.612  22.490  0.00  0.00    -0.270 OA
ATOM      9  N   UNL     1       1.655   1.025  24.130  0.00  0.00    -0.308 N 
ATOM     22  C   UNL     1       2.211   0.150  23.208  0.00  0.00    +0.254 C 
ATOM     36  H   UNL     1       2.265   1.648  24.651  0.00  0.00    +0.149 HD
BRANCH  22  25
ATOM      1  S   UNL     1       4.490   1.499  22.516  0.00  0.00    +0.041 S 
ATOM     12  N   UNL     1       5.893  -0.439  23.260  0.00  0.00    -0.146 NA
ATOM     13  N   UNL     1       5.984   0.775  22.741  0.00  0.00    -0.110 NA
ATOM     25  C   UNL     1       3.695   0.148  23.128  0.00  0.00    +0.117 A 
ATOM     29  C   UNL     1       4.573  -0.798  23.482  0.00  0.00    +0.081 A 
ATOM     33  C   UNL     1       4.302  -2.130  24.061  0.00  0.00    +0.069 C 
ENDBRANCH  22  25
ENDBRANCH  14   9
TORSDOF 8
ENDMDL
