MODEL 1
REMARK VINA RESULT:       8.1      0.000      0.000
REMARK  Name = 44716821
REMARK  12 active torsions:
REMARK  status: ('A' for Active; 'I' for Inactive)
REMARK    1  A    between atoms: S_1  and  N_9
REMARK    2  A    between atoms: S_1  and  C_25
REMARK    3  A    between atoms: N_9  and  C_16
REMARK    4  A    between atoms: N_10  and  C_24
REMARK    5  A    between atoms: N_11  and  C_32
REMARK    6  A    between atoms: N_14  and  C_36
REMARK    7  A    between atoms: C_18  and  C_21
REMARK    8  A    between atoms: C_22  and  C_23
REMARK    9  A    between atoms: C_24  and  C_26
REMARK   10  A    between atoms: C_24  and  C_28
REMARK   11  A    between atoms: C_26  and  C_31
REMARK   12  A    between atoms: C_30  and  C_34
REMARK                            x       y       z     vdW  Elec       q    Type
REMARK                         _______ _______ _______ _____ _____    ______ ____
ROOT
ATOM      4  O   UNL     1      -1.931   3.549  26.977  0.00  0.00    -0.268 OA
ATOM      8  N   UNL     1      -1.496   2.146  25.149  0.00  0.00    -0.285 N 
ATOM     16  C   UNL     1      -0.005  -0.084  24.018  0.00  0.00    +0.080 C 
ATOM     17  C   UNL     1      -0.434   1.093  23.140  0.00  0.00    +0.052 C 
ATOM     18  C   UNL     1      -1.627   1.862  23.709  0.00  0.00    +0.164 C 
ATOM     19  C   UNL     1       0.203   0.369  25.461  0.00  0.00    +0.039 C 
ATOM     20  C   UNL     1      -1.054   1.036  26.002  0.00  0.00    +0.110 C 
ATOM     22  C   UNL     1      -1.905   3.338  25.765  0.00  0.00    +0.265 C 
ENDROOT
BRANCH  22  23
ATOM     11  N   UNL     1      -1.559   5.494  24.514  0.00  0.00    -0.262 N 
ATOM     13  N   UNL     1      -2.195   6.380  23.729  0.00  0.00    -0.176 NA
ATOM     23  C   UNL     1      -2.340   4.446  24.909  0.00  0.00    +0.123 A 
ATOM     27  C   UNL     1      -3.572   4.663  24.344  0.00  0.00    +0.057 A 
ATOM     30  C   UNL     1      -3.425   5.867  23.629  0.00  0.00    +0.061 A 
ATOM     32  C   UNL     1      -0.172   5.718  24.852  0.00  0.00    +0.173 C 
ATOM     34  C   UNL     1      -4.446   6.566  22.831  0.00  0.00    +0.067 C 
ENDBRANCH  22  23
BRANCH  18  21
ATOM      3  O   UNL     1      -3.133   0.425  22.536  0.00  0.00    -0.274 OA
ATOM     10  N   UNL     1      -3.799   1.334  24.573  0.00  0.00    -0.302 N 
ATOM     21  C   UNL     1      -2.919   1.118  23.527  0.00  0.00    +0.234 C 
ATOM     40  H   UNL     1      -3.508   1.920  25.351  0.00  0.00    +0.150 HD
BRANCH  10  24
ATOM     24  C   UNL     1      -5.120   0.750  24.627  0.00  0.00    +0.163 C 
BRANCH  24  28
ATOM      7  O   UNL     1      -5.721   2.566  26.127  0.00  0.00    -0.274 OA
ATOM     15  N   UNL     1      -7.284   1.829  24.612  0.00  0.00    -0.328 N 
ATOM     28  C   UNL     1      -6.049   1.798  25.226  0.00  0.00    +0.231 C 
ATOM     41  H   UNL     1      -7.992   2.494  24.905  0.00  0.00    +0.145 HD
ATOM     42  H   UNL     1      -7.537   1.197  23.861  0.00  0.00    +0.145 HD
ENDBRANCH  24  28
BRANCH  24  26
ATOM     26  C   UNL     1      -5.153  -0.533  25.466  0.00  0.00    +0.074 C 
BRANCH  26  31
ATOM      2  S   UNL     1      -4.118  -2.477  23.763  0.00  0.00    -0.102 S 
ATOM     31  C   UNL     1      -4.014  -1.469  25.143  0.00  0.00    -0.008 A 
ATOM     35  C   UNL     1      -2.832  -1.650  25.827  0.00  0.00    +0.011 A 
ATOM     37  C   UNL     1      -2.002  -2.630  25.211  0.00  0.00    +0.008 A 
ATOM     38  C   UNL     1      -2.579  -3.160  24.079  0.00  0.00    +0.045 A 
ENDBRANCH  26  31
ENDBRANCH  24  26
ENDBRANCH  10  24
ENDBRANCH  18  21
BRANCH  16   9
ATOM      9  N   UNL     1       1.261  -0.653  23.497  0.00  0.00    -0.185 NA
ATOM     39  H   UNL     1       1.650  -1.441  24.029  0.00  0.00    +0.148 HD
BRANCH   9   1
ATOM      1  S   UNL     1       2.318   0.322  22.594  0.00  0.00    +0.077 S 
ATOM      5  O   UNL     1       2.180   1.704  23.016  0.00  0.00    -0.152 OA
ATOM      6  O   UNL     1       2.193  -0.027  21.192  0.00  0.00    -0.152 OA
BRANCH   1  25
ATOM     12  N   UNL     1       4.049  -1.433  23.824  0.00  0.00    -0.216 NA
ATOM     14  N   UNL     1       6.025  -0.462  23.529  0.00  0.00    -0.338 N 
ATOM     25  C   UNL     1       3.899  -0.257  23.132  0.00  0.00    +0.211 A 
ATOM     29  C   UNL     1       5.110   0.362  22.937  0.00  0.00    +0.135 A 
ATOM     33  C   UNL     1       5.342  -1.527  24.048  0.00  0.00    +0.201 A 
ATOM     36  C   UNL     1       7.450  -0.250  23.594  0.00  0.00    +0.150 C 
ENDBRANCH   1  25
ENDBRANCH   9   1
ENDBRANCH  16   9
TORSDOF 9
ENDMDL
MODEL 2
REMARK VINA RESULT:       8.2      2.427      7.296
REMARK  Name = 44716821
REMARK  12 active torsions:
REMARK  status: ('A' for Active; 'I' for Inactive)
REMARK    1  A    between atoms: S_1  and  N_9
REMARK    2  A    between atoms: S_1  and  C_25
REMARK    3  A    between atoms: N_9  and  C_16
REMARK    4  A    between atoms: N_10  and  C_24
REMARK    5  A    between atoms: N_11  and  C_32
REMARK    6  A    between atoms: N_14  and  C_36
REMARK    7  A    between atoms: C_18  and  C_21
REMARK    8  A    between atoms: C_22  and  C_23
REMARK    9  A    between atoms: C_24  and  C_26
REMARK   10  A    between atoms: C_24  and  C_28
REMARK   11  A    between atoms: C_26  and  C_31
REMARK   12  A    between atoms: C_30  and  C_34
REMARK                            x       y       z     vdW  Elec       q    Type
REMARK                         _______ _______ _______ _____ _____    ______ ____
ROOT
ATOM      4  O   UNL     1       1.084  -0.799  21.421  0.00  0.00    -0.268 OA
ATOM      8  N   UNL     1       0.275   0.778  22.957  0.00  0.00    -0.285 N 
ATOM     16  C   UNL     1      -1.682   2.824  23.630  0.00  0.00    +0.080 C 
ATOM     17  C   UNL     1      -0.241   2.930  24.130  0.00  0.00    +0.052 C 
ATOM     18  C   UNL     1       0.478   1.581  24.176  0.00  0.00    +0.164 C 
ATOM     19  C   UNL     1      -1.739   2.066  22.307  0.00  0.00    +0.039 C 
ATOM     20  C   UNL     1      -1.098   0.692  22.446  0.00  0.00    +0.110 C 
ATOM     22  C   UNL     1       1.261  -0.018  22.355  0.00  0.00    +0.265 C 
ENDROOT
BRANCH  22  23
ATOM     11  N   UNL     1       3.403   1.202  22.862  0.00  0.00    -0.262 N 
ATOM     13  N   UNL     1       4.627   1.024  23.387  0.00  0.00    -0.176 NA
ATOM     23  C   UNL     1       2.633   0.075  22.865  0.00  0.00    +0.123 A 
ATOM     27  C   UNL     1       3.408  -0.908  23.431  0.00  0.00    +0.057 A 
ATOM     30  C   UNL     1       4.624  -0.267  23.733  0.00  0.00    +0.061 A 
ATOM     32  C   UNL     1       3.030   2.506  22.367  0.00  0.00    +0.173 C 
ATOM     34  C   UNL     1       5.818  -0.860  24.357  0.00  0.00    +0.067 C 
ENDBRANCH  22  23
BRANCH  18  21
ATOM      3  O   UNL     1      -0.187   1.221  26.442  0.00  0.00    -0.274 OA
ATOM     10  N   UNL     1      -0.085  -0.600  24.995  0.00  0.00    -0.302 N 
ATOM     21  C   UNL     1       0.027   0.738  25.334  0.00  0.00    +0.234 C 
ATOM     40  H   UNL     1       0.106  -0.885  24.039  0.00  0.00    +0.150 HD
BRANCH  10  24
ATOM     24  C   UNL     1      -0.480  -1.623  25.937  0.00  0.00    +0.163 C 
BRANCH  24  28
ATOM      7  O   UNL     1       0.079  -3.979  25.728  0.00  0.00    -0.274 OA
ATOM     15  N   UNL     1      -0.897  -2.918  23.939  0.00  0.00    -0.328 N 
ATOM     28  C   UNL     1      -0.376  -2.960  25.216  0.00  0.00    +0.231 C 
ATOM     41  H   UNL     1      -0.904  -3.748  23.355  0.00  0.00    +0.145 HD
ATOM     42  H   UNL     1      -1.280  -2.073  23.532  0.00  0.00    +0.145 HD
ENDBRANCH  24  28
BRANCH  24  26
ATOM     26  C   UNL     1      -1.905  -1.408  26.461  0.00  0.00    +0.074 C 
BRANCH  26  31
ATOM      2  S   UNL     1      -3.604  -2.986  24.920  0.00  0.00    -0.102 S 
ATOM     31  C   UNL     1      -2.943  -1.471  25.367  0.00  0.00    -0.008 A 
ATOM     35  C   UNL     1      -3.473  -0.438  24.626  0.00  0.00    +0.011 A 
ATOM     37  C   UNL     1      -4.434  -0.895  23.679  0.00  0.00    +0.008 A 
ATOM     38  C   UNL     1      -4.603  -2.261  23.732  0.00  0.00    +0.045 A 
ENDBRANCH  26  31
ENDBRANCH  24  26
ENDBRANCH  10  24
ENDBRANCH  18  21
BRANCH  16   9
ATOM      9  N   UNL     1      -2.240   4.185  23.439  0.00  0.00    -0.185 NA
ATOM     39  H   UNL     1      -1.710   4.801  22.811  0.00  0.00    +0.148 HD
BRANCH   9   1
ATOM      1  S   UNL     1      -3.194   4.886  24.656  0.00  0.00    +0.077 S 
ATOM      5  O   UNL     1      -3.913   6.023  24.112  0.00  0.00    -0.152 OA
ATOM      6  O   UNL     1      -2.388   5.038  25.852  0.00  0.00    -0.152 OA
BRANCH   1  25
ATOM     12  N   UNL     1      -4.864   2.799  23.989  0.00  0.00    -0.216 NA
ATOM     14  N   UNL     1      -5.749   2.233  25.946  0.00  0.00    -0.338 N 
ATOM     25  C   UNL     1      -4.367   3.605  24.983  0.00  0.00    +0.211 A 
ATOM     29  C   UNL     1      -4.902   3.273  26.205  0.00  0.00    +0.135 A 
ATOM     33  C   UNL     1      -5.694   1.983  24.603  0.00  0.00    +0.201 A 
ATOM     36  C   UNL     1      -6.554   1.527  26.912  0.00  0.00    +0.150 C 
ENDBRANCH   1  25
ENDBRANCH   9   1
ENDBRANCH  16   9
TORSDOF 9
ENDMDL
MODEL 3
REMARK VINA RESULT:       8.2      2.563      7.847
REMARK  Name = 44716821
REMARK  12 active torsions:
REMARK  status: ('A' for Active; 'I' for Inactive)
REMARK    1  A    between atoms: S_1  and  N_9
REMARK    2  A    between atoms: S_1  and  C_25
REMARK    3  A    between atoms: N_9  and  C_16
REMARK    4  A    between atoms: N_10  and  C_24
REMARK    5  A    between atoms: N_11  and  C_32
REMARK    6  A    between atoms: N_14  and  C_36
REMARK    7  A    between atoms: C_18  and  C_21
REMARK    8  A    between atoms: C_22  and  C_23
REMARK    9  A    between atoms: C_24  and  C_26
REMARK   10  A    between atoms: C_24  and  C_28
REMARK   11  A    between atoms: C_26  and  C_31
REMARK   12  A    between atoms: C_30  and  C_34
REMARK                            x       y       z     vdW  Elec       q    Type
REMARK                         _______ _______ _______ _____ _____    ______ ____
ROOT
ATOM      4  O   UNL     1      -2.110  -0.796  27.260  0.00  0.00    -0.268 OA
ATOM      8  N   UNL     1      -1.368   0.506  25.456  0.00  0.00    -0.285 N 
ATOM     16  C   UNL     1      -0.509   3.094  24.438  0.00  0.00    +0.080 C 
ATOM     17  C   UNL     1      -1.286   2.124  23.546  0.00  0.00    +0.052 C 
ATOM     18  C   UNL     1      -1.174   0.669  24.004  0.00  0.00    +0.164 C 
ATOM     19  C   UNL     1      -0.883   2.894  25.904  0.00  0.00    +0.039 C 
ATOM     20  C   UNL     1      -0.655   1.449  26.326  0.00  0.00    +0.110 C 
ATOM     22  C   UNL     1      -2.050  -0.564  26.053  0.00  0.00    +0.265 C 
ENDROOT
BRANCH  22  23
ATOM     11  N   UNL     1      -2.267  -2.682  24.710  0.00  0.00    -0.262 N 
ATOM     13  N   UNL     1      -3.124  -3.359  23.928  0.00  0.00    -0.176 NA
ATOM     23  C   UNL     1      -2.766  -1.501  25.181  0.00  0.00    +0.123 A 
ATOM     27  C   UNL     1      -4.037  -1.401  24.671  0.00  0.00    +0.057 A 
ATOM     30  C   UNL     1      -4.203  -2.571  23.908  0.00  0.00    +0.061 A 
ATOM     32  C   UNL     1      -0.959  -3.236  24.971  0.00  0.00    +0.173 C 
ATOM     34  C   UNL     1      -5.390  -2.977  23.137  0.00  0.00    +0.067 C 
ENDBRANCH  22  23
BRANCH  18  21
ATOM      3  O   UNL     1       0.387  -1.128  23.806  0.00  0.00    -0.274 OA
ATOM     10  N   UNL     1       1.068   1.024  23.238  0.00  0.00    -0.302 N 
ATOM     21  C   UNL     1       0.162   0.072  23.672  0.00  0.00    +0.234 C 
ATOM     40  H   UNL     1       0.766   1.991  23.154  0.00  0.00    +0.150 HD
BRANCH  10  24
ATOM     24  C   UNL     1       2.433   0.711  22.879  0.00  0.00    +0.163 C 
BRANCH  24  28
ATOM      7  O   UNL     1       3.361   0.194  20.693  0.00  0.00    -0.274 OA
ATOM     15  N   UNL     1       1.208  -0.462  21.156  0.00  0.00    -0.328 N 
ATOM     28  C   UNL     1       2.406   0.150  21.464  0.00  0.00    +0.231 C 
ATOM     41  H   UNL     1       1.064  -0.892  20.249  0.00  0.00    +0.145 HD
ATOM     42  H   UNL     1       0.431  -0.501  21.806  0.00  0.00    +0.145 HD
ENDBRANCH  24  28
BRANCH  24  26
ATOM     26  C   UNL     1       3.068  -0.299  23.842  0.00  0.00    +0.074 C 
BRANCH  26  31
ATOM      2  S   UNL     1       5.416  -1.795  23.841  0.00  0.00    -0.102 S 
ATOM     31  C   UNL     1       4.575  -0.305  23.769  0.00  0.00    -0.008 A 
ATOM     35  C   UNL     1       5.432   0.766  23.648  0.00  0.00    +0.011 A 
ATOM     37  C   UNL     1       6.797   0.359  23.614  0.00  0.00    +0.008 A 
ATOM     38  C   UNL     1       6.932  -1.008  23.710  0.00  0.00    +0.045 A 
ENDBRANCH  26  31
ENDBRANCH  24  26
ENDBRANCH  10  24
ENDBRANCH  18  21
BRANCH  16   9
ATOM      9  N   UNL     1      -0.821   4.488  24.040  0.00  0.00    -0.185 NA
ATOM     39  H   UNL     1      -0.019   5.060  23.748  0.00  0.00    +0.148 HD
BRANCH   9   1
ATOM      1  S   UNL     1      -2.187   5.266  24.682  0.00  0.00    +0.077 S 
ATOM      5  O   UNL     1      -2.606   6.326  23.785  0.00  0.00    -0.152 OA
ATOM      6  O   UNL     1      -1.947   5.550  26.084  0.00  0.00    -0.152 OA
BRANCH   1  25
ATOM     12  N   UNL     1      -3.755   3.372  23.437  0.00  0.00    -0.216 NA
ATOM     14  N   UNL     1      -4.915   2.510  25.124  0.00  0.00    -0.338 N 
ATOM     25  C   UNL     1      -3.402   3.983  24.615  0.00  0.00    +0.211 A 
ATOM     29  C   UNL     1      -4.108   3.465  25.674  0.00  0.00    +0.135 A 
ATOM     33  C   UNL     1      -4.668   2.490  23.780  0.00  0.00    +0.201 A 
ATOM     36  C   UNL     1      -5.854   1.674  25.831  0.00  0.00    +0.150 C 
ENDBRANCH   1  25
ENDBRANCH   9   1
ENDBRANCH  16   9
TORSDOF 9
ENDMDL
MODEL 4
REMARK VINA RESULT:       8.7      2.463      7.989
REMARK  Name = 44716821
REMARK  12 active torsions:
REMARK  status: ('A' for Active; 'I' for Inactive)
REMARK    1  A    between atoms: S_1  and  N_9
REMARK    2  A    between atoms: S_1  and  C_25
REMARK    3  A    between atoms: N_9  and  C_16
REMARK    4  A    between atoms: N_10  and  C_24
REMARK    5  A    between atoms: N_11  and  C_32
REMARK    6  A    between atoms: N_14  and  C_36
REMARK    7  A    between atoms: C_18  and  C_21
REMARK    8  A    between atoms: C_22  and  C_23
REMARK    9  A    between atoms: C_24  and  C_26
REMARK   10  A    between atoms: C_24  and  C_28
REMARK   11  A    between atoms: C_26  and  C_31
REMARK   12  A    between atoms: C_30  and  C_34
REMARK                            x       y       z     vdW  Elec       q    Type
REMARK                         _______ _______ _______ _____ _____    ______ ____
ROOT
ATOM      4  O   UNL     1      -1.134  -0.558  27.558  0.00  0.00    -0.268 OA
ATOM      8  N   UNL     1      -1.281   1.038  25.846  0.00  0.00    -0.285 N 
ATOM     16  C   UNL     1      -1.783   3.790  25.041  0.00  0.00    +0.080 C 
ATOM     17  C   UNL     1      -2.166   2.627  24.124  0.00  0.00    +0.052 C 
ATOM     18  C   UNL     1      -1.370   1.352  24.409  0.00  0.00    +0.164 C 
ATOM     19  C   UNL     1      -1.835   3.361  26.505  0.00  0.00    +0.039 C 
ATOM     20  C   UNL     1      -0.945   2.150  26.743  0.00  0.00    +0.110 C 
ATOM     22  C   UNL     1      -1.341  -0.256  26.383  0.00  0.00    +0.265 C 
ENDROOT
BRANCH  22  23
ATOM     11  N   UNL     1      -0.830  -2.356  25.094  0.00  0.00    -0.262 N 
ATOM     13  N   UNL     1      -1.388  -3.254  24.264  0.00  0.00    -0.176 NA
ATOM     23  C   UNL     1      -1.682  -1.364  25.484  0.00  0.00    +0.123 A 
ATOM     27  C   UNL     1      -2.879  -1.631  24.867  0.00  0.00    +0.057 A 
ATOM     30  C   UNL     1      -2.639  -2.806  24.129  0.00  0.00    +0.061 A 
ATOM     32  C   UNL     1       0.552  -2.515  25.480  0.00  0.00    +0.173 C 
ATOM     34  C   UNL     1      -3.590  -3.537  23.275  0.00  0.00    +0.067 C 
ENDBRANCH  22  23
BRANCH  18  21
ATOM      3  O   UNL     1       0.666   2.490  23.893  0.00  0.00    -0.274 OA
ATOM     10  N   UNL     1       0.492   0.219  23.414  0.00  0.00    -0.302 N 
ATOM     21  C   UNL     1       0.037   1.435  23.891  0.00  0.00    +0.234 C 
ATOM     40  H   UNL     1      -0.115  -0.595  23.475  0.00  0.00    +0.150 HD
BRANCH  10  24
ATOM     24  C   UNL     1       1.806   0.037  22.839  0.00  0.00    +0.163 C 
BRANCH  24  28
ATOM      7  O   UNL     1       2.516  -0.259  20.534  0.00  0.00    -0.274 OA
ATOM     15  N   UNL     1       0.313  -0.642  21.063  0.00  0.00    -0.328 N 
ATOM     28  C   UNL     1       1.610  -0.279  21.363  0.00  0.00    +0.231 C 
ATOM     41  H   UNL     1       0.051  -0.893  20.116  0.00  0.00    +0.145 HD
ATOM     42  H   UNL     1      -0.423  -0.665  21.760  0.00  0.00    +0.145 HD
ENDBRANCH  24  28
BRANCH  24  26
ATOM     26  C   UNL     1       2.586  -1.090  23.527  0.00  0.00    +0.074 C 
BRANCH  26  31
ATOM      2  S   UNL     1       4.661   0.713  23.084  0.00  0.00    -0.102 S 
ATOM     31  C   UNL     1       4.061  -0.791  23.642  0.00  0.00    -0.008 A 
ATOM     35  C   UNL     1       5.061  -1.588  24.154  0.00  0.00    +0.011 A 
ATOM     37  C   UNL     1       6.336  -0.957  24.089  0.00  0.00    +0.008 A 
ATOM     38  C   UNL     1       6.263   0.300  23.529  0.00  0.00    +0.045 A 
ENDBRANCH  26  31
ENDBRANCH  24  26
ENDBRANCH  10  24
ENDBRANCH  18  21
BRANCH  16   9
ATOM      9  N   UNL     1      -2.722   4.917  24.827  0.00  0.00    -0.185 NA
ATOM     39  H   UNL     1      -2.718   5.646  25.551  0.00  0.00    +0.148 HD
BRANCH   9   1
ATOM      1  S   UNL     1      -4.136   4.679  23.917  0.00  0.00    +0.077 S 
ATOM      5  O   UNL     1      -3.781   4.265  22.572  0.00  0.00    -0.152 OA
ATOM      6  O   UNL     1      -5.019   5.811  24.121  0.00  0.00    -0.152 OA
BRANCH   1  25
ATOM     12  N   UNL     1      -4.836   2.030  24.207  0.00  0.00    -0.216 NA
ATOM     14  N   UNL     1      -5.909   2.017  26.153  0.00  0.00    -0.338 N 
ATOM     25  C   UNL     1      -4.869   3.296  24.738  0.00  0.00    +0.211 A 
ATOM     29  C   UNL     1      -5.529   3.312  25.943  0.00  0.00    +0.135 A 
ATOM     33  C   UNL     1      -5.472   1.284  25.085  0.00  0.00    +0.201 A 
ATOM     36  C   UNL     1      -6.638   1.513  27.291  0.00  0.00    +0.150 C 
ENDBRANCH   1  25
ENDBRANCH   9   1
ENDBRANCH  16   9
TORSDOF 9
ENDMDL
MODEL 5
REMARK VINA RESULT:       9.4      1.920      3.621
REMARK  Name = 44716821
REMARK  12 active torsions:
REMARK  status: ('A' for Active; 'I' for Inactive)
REMARK    1  A    between atoms: S_1  and  N_9
REMARK    2  A    between atoms: S_1  and  C_25
REMARK    3  A    between atoms: N_9  and  C_16
REMARK    4  A    between atoms: N_10  and  C_24
REMARK    5  A    between atoms: N_11  and  C_32
REMARK    6  A    between atoms: N_14  and  C_36
REMARK    7  A    between atoms: C_18  and  C_21
REMARK    8  A    between atoms: C_22  and  C_23
REMARK    9  A    between atoms: C_24  and  C_26
REMARK   10  A    between atoms: C_24  and  C_28
REMARK   11  A    between atoms: C_26  and  C_31
REMARK   12  A    between atoms: C_30  and  C_34
REMARK                            x       y       z     vdW  Elec       q    Type
REMARK                         _______ _______ _______ _____ _____    ______ ____
ROOT
ATOM      4  O   UNL     1      -2.288   4.856  26.001  0.00  0.00    -0.268 OA
ATOM      8  N   UNL     1      -1.246   2.965  25.084  0.00  0.00    -0.285 N 
ATOM     16  C   UNL     1       1.105   1.764  23.858  0.00  0.00    +0.080 C 
ATOM     17  C   UNL     1      -0.300   1.300  23.470  0.00  0.00    +0.052 C 
ATOM     18  C   UNL     1      -1.347   1.598  24.544  0.00  0.00    +0.164 C 
ATOM     19  C   UNL     1       1.088   3.227  24.294  0.00  0.00    +0.039 C 
ATOM     20  C   UNL     1       0.100   3.438  25.432  0.00  0.00    +0.110 C 
ATOM     22  C   UNL     1      -2.343   3.770  25.425  0.00  0.00    +0.265 C 
ENDROOT
BRANCH  22  23
ATOM     11  N   UNL     1      -4.166   3.161  23.801  0.00  0.00    -0.262 N 
ATOM     13  N   UNL     1      -5.430   2.707  23.744  0.00  0.00    -0.176 NA
ATOM     23  C   UNL     1      -3.685   3.296  25.071  0.00  0.00    +0.123 A 
ATOM     27  C   UNL     1      -4.705   2.904  25.902  0.00  0.00    +0.057 A 
ATOM     30  C   UNL     1      -5.753   2.552  25.031  0.00  0.00    +0.061 A 
ATOM     32  C   UNL     1      -3.464   3.451  22.572  0.00  0.00    +0.173 C 
ATOM     34  C   UNL     1      -7.093   2.058  25.394  0.00  0.00    +0.067 C 
ENDBRANCH  22  23
BRANCH  18  21
ATOM      3  O   UNL     1      -1.252   1.063  26.870  0.00  0.00    -0.274 OA
ATOM     10  N   UNL     1      -1.120  -0.661  25.312  0.00  0.00    -0.302 N 
ATOM     21  C   UNL     1      -1.244   0.659  25.711  0.00  0.00    +0.234 C 
ATOM     40  H   UNL     1      -1.138  -0.881  24.319  0.00  0.00    +0.150 HD
BRANCH  10  24
ATOM     24  C   UNL     1      -0.980  -1.758  26.242  0.00  0.00    +0.163 C 
BRANCH  24  28
ATOM      7  O   UNL     1       0.024  -3.897  25.675  0.00  0.00    -0.274 OA
ATOM     15  N   UNL     1       1.181  -1.975  25.182  0.00  0.00    -0.328 N 
ATOM     28  C   UNL     1       0.108  -2.672  25.697  0.00  0.00    +0.231 C 
ATOM     41  H   UNL     1       1.969  -2.465  24.772  0.00  0.00    +0.145 HD
ATOM     42  H   UNL     1       1.233  -0.962  25.196  0.00  0.00    +0.145 HD
ENDBRANCH  24  28
BRANCH  24  26
ATOM     26  C   UNL     1      -2.290  -2.536  26.420  0.00  0.00    +0.074 C 
BRANCH  26  31
ATOM      2  S   UNL     1      -4.127  -0.769  25.301  0.00  0.00    -0.102 S 
ATOM     31  C   UNL     1      -3.286  -2.260  25.321  0.00  0.00    -0.008 A 
ATOM     35  C   UNL     1      -3.646  -3.070  24.267  0.00  0.00    +0.011 A 
ATOM     37  C   UNL     1      -4.626  -2.459  23.432  0.00  0.00    +0.008 A 
ATOM     38  C   UNL     1      -4.977  -1.205  23.879  0.00  0.00    +0.045 A 
ENDBRANCH  26  31
ENDBRANCH  24  26
ENDBRANCH  10  24
ENDBRANCH  18  21
BRANCH  16   9
ATOM      9  N   UNL     1       2.014   1.610  22.697  0.00  0.00    -0.185 NA
ATOM     39  H   UNL     1       2.052   2.406  22.049  0.00  0.00    +0.148 HD
BRANCH   9   1
ATOM      1  S   UNL     1       2.375   0.060  22.106  0.00  0.00    +0.077 S 
ATOM      5  O   UNL     1       2.644   0.135  20.682  0.00  0.00    -0.152 OA
ATOM      6  O   UNL     1       1.388  -0.875  22.612  0.00  0.00    -0.152 OA
BRANCH   1  25
ATOM     12  N   UNL     1       4.028  -1.362  23.790  0.00  0.00    -0.216 NA
ATOM     14  N   UNL     1       5.949  -0.258  23.640  0.00  0.00    -0.338 N 
ATOM     25  C   UNL     1       3.896  -0.300  22.930  0.00  0.00    +0.211 A 
ATOM     29  C   UNL     1       5.075   0.399  22.821  0.00  0.00    +0.135 A 
ATOM     33  C   UNL     1       5.276  -1.308  24.200  0.00  0.00    +0.201 A 
ATOM     36  C   UNL     1       7.330   0.091  23.871  0.00  0.00    +0.150 C 
ENDBRANCH   1  25
ENDBRANCH   9   1
ENDBRANCH  16   9
TORSDOF 9
ENDMDL
MODEL 6
REMARK VINA RESULT:      10.1      1.502      2.726
REMARK  Name = 44716821
REMARK  12 active torsions:
REMARK  status: ('A' for Active; 'I' for Inactive)
REMARK    1  A    between atoms: S_1  and  N_9
REMARK    2  A    between atoms: S_1  and  C_25
REMARK    3  A    between atoms: N_9  and  C_16
REMARK    4  A    between atoms: N_10  and  C_24
REMARK    5  A    between atoms: N_11  and  C_32
REMARK    6  A    between atoms: N_14  and  C_36
REMARK    7  A    between atoms: C_18  and  C_21
REMARK    8  A    between atoms: C_22  and  C_23
REMARK    9  A    between atoms: C_24  and  C_26
REMARK   10  A    between atoms: C_24  and  C_28
REMARK   11  A    between atoms: C_26  and  C_31
REMARK   12  A    between atoms: C_30  and  C_34
REMARK                            x       y       z     vdW  Elec       q    Type
REMARK                         _______ _______ _______ _____ _____    ______ ____
ROOT
ATOM      4  O   UNL     1      -1.652   3.271  27.023  0.00  0.00    -0.268 OA
ATOM      8  N   UNL     1      -1.269   1.871  25.181  0.00  0.00    -0.285 N 
ATOM     16  C   UNL     1       0.255  -0.294  23.971  0.00  0.00    +0.080 C 
ATOM     17  C   UNL     1      -0.293   0.849  23.113  0.00  0.00    +0.052 C 
ATOM     18  C   UNL     1      -1.483   1.562  23.756  0.00  0.00    +0.164 C 
ATOM     19  C   UNL     1       0.536   0.187  25.391  0.00  0.00    +0.039 C 
ATOM     20  C   UNL     1      -0.714   0.795  26.011  0.00  0.00    +0.110 C 
ATOM     22  C   UNL     1      -1.696   3.047  25.814  0.00  0.00    +0.265 C 
ENDROOT
BRANCH  22  23
ATOM     11  N   UNL     1      -1.570   5.240  24.586  0.00  0.00    -0.262 N 
ATOM     13  N   UNL     1      -2.298   6.074  23.824  0.00  0.00    -0.176 NA
ATOM     23  C   UNL     1      -2.245   4.122  24.980  0.00  0.00    +0.123 A 
ATOM     27  C   UNL     1      -3.502   4.232  24.438  0.00  0.00    +0.057 A 
ATOM     30  C   UNL     1      -3.478   5.452  23.737  0.00  0.00    +0.061 A 
ATOM     32  C   UNL     1      -0.204   5.586  24.903  0.00  0.00    +0.173 C 
ATOM     34  C   UNL     1      -4.572   6.065  22.965  0.00  0.00    +0.067 C 
ENDBRANCH  22  23
BRANCH  18  21
ATOM      3  O   UNL     1      -3.456   0.767  22.670  0.00  0.00    -0.274 OA
ATOM     10  N   UNL     1      -2.987   0.037  24.830  0.00  0.00    -0.302 N 
ATOM     21  C   UNL     1      -2.744   0.751  23.669  0.00  0.00    +0.234 C 
ATOM     40  H   UNL     1      -2.318   0.091  25.593  0.00  0.00    +0.150 HD
BRANCH  10  24
ATOM     24  C   UNL     1      -4.149  -0.804  25.011  0.00  0.00    +0.163 C 
BRANCH  24  28
ATOM      7  O   UNL     1      -4.650  -2.610  23.463  0.00  0.00    -0.274 OA
ATOM     15  N   UNL     1      -2.643  -2.645  24.582  0.00  0.00    -0.328 N 
ATOM     28  C   UNL     1      -3.877  -2.109  24.276  0.00  0.00    +0.231 C 
ATOM     41  H   UNL     1      -2.330  -3.507  24.147  0.00  0.00    +0.145 HD
ATOM     42  H   UNL     1      -2.009  -2.216  25.247  0.00  0.00    +0.145 HD
ENDBRANCH  24  28
BRANCH  24  26
ATOM     26  C   UNL     1      -5.427  -0.147  24.476  0.00  0.00    +0.074 C 
BRANCH  26  31
ATOM      2  S   UNL     1      -6.216   1.204  26.779  0.00  0.00    -0.102 S 
ATOM     31  C   UNL     1      -5.724   1.176  25.139  0.00  0.00    -0.008 A 
ATOM     35  C   UNL     1      -5.659   2.441  24.597  0.00  0.00    +0.011 A 
ATOM     37  C   UNL     1      -6.017   3.446  25.541  0.00  0.00    +0.008 A 
ATOM     38  C   UNL     1      -6.342   2.913  26.768  0.00  0.00    +0.045 A 
ENDBRANCH  26  31
ENDBRANCH  24  26
ENDBRANCH  10  24
ENDBRANCH  18  21
BRANCH  16   9
ATOM      9  N   UNL     1       1.511  -0.804  23.369  0.00  0.00    -0.185 NA
ATOM     39  H   UNL     1       1.906  -1.645  23.805  0.00  0.00    +0.148 HD
BRANCH   9   1
ATOM      1  S   UNL     1       2.555   0.264  22.561  0.00  0.00    +0.077 S 
ATOM      5  O   UNL     1       2.340   1.613  23.048  0.00  0.00    -0.152 OA
ATOM      6  O   UNL     1       2.499  -0.015  21.138  0.00  0.00    -0.152 OA
BRANCH   1  25
ATOM     12  N   UNL     1       4.294  -1.399  23.903  0.00  0.00    -0.216 NA
ATOM     14  N   UNL     1       6.268  -0.450  23.529  0.00  0.00    -0.338 N 
ATOM     25  C   UNL     1       4.139  -0.275  23.130  0.00  0.00    +0.211 A 
ATOM     29  C   UNL     1       5.349   0.330  22.886  0.00  0.00    +0.135 A 
ATOM     33  C   UNL     1       5.589  -1.476  24.125  0.00  0.00    +0.201 A 
ATOM     36  C   UNL     1       7.693  -0.233  23.572  0.00  0.00    +0.150 C 
ENDBRANCH   1  25
ENDBRANCH   9   1
ENDBRANCH  16   9
TORSDOF 9
ENDMDL
MODEL 7
REMARK VINA RESULT:      10.8      2.658      6.289
REMARK  Name = 44716821
REMARK  12 active torsions:
REMARK  status: ('A' for Active; 'I' for Inactive)
REMARK    1  A    between atoms: S_1  and  N_9
REMARK    2  A    between atoms: S_1  and  C_25
REMARK    3  A    between atoms: N_9  and  C_16
REMARK    4  A    between atoms: N_10  and  C_24
REMARK    5  A    between atoms: N_11  and  C_32
REMARK    6  A    between atoms: N_14  and  C_36
REMARK    7  A    between atoms: C_18  and  C_21
REMARK    8  A    between atoms: C_22  and  C_23
REMARK    9  A    between atoms: C_24  and  C_26
REMARK   10  A    between atoms: C_24  and  C_28
REMARK   11  A    between atoms: C_26  and  C_31
REMARK   12  A    between atoms: C_30  and  C_34
REMARK                            x       y       z     vdW  Elec       q    Type
REMARK                         _______ _______ _______ _____ _____    ______ ____
ROOT
ATOM      4  O   UNL     1       1.488  -0.542  20.799  0.00  0.00    -0.268 OA
ATOM      8  N   UNL     1       0.424   0.308  22.708  0.00  0.00    -0.285 N 
ATOM     16  C   UNL     1      -1.696   1.934  23.863  0.00  0.00    +0.080 C 
ATOM     17  C   UNL     1      -0.333   1.828  24.549  0.00  0.00    +0.052 C 
ATOM     18  C   UNL     1       0.437   0.566  24.159  0.00  0.00    +0.164 C 
ATOM     19  C   UNL     1      -1.555   1.757  22.354  0.00  0.00    +0.039 C 
ATOM     20  C   UNL     1      -0.871   0.437  22.028  0.00  0.00    +0.110 C 
ATOM     22  C   UNL     1       1.512  -0.192  21.978  0.00  0.00    +0.265 C 
ENDROOT
BRANCH  22  23
ATOM     11  N   UNL     1       3.711   0.695  22.823  0.00  0.00    -0.262 N 
ATOM     13  N   UNL     1       4.821   0.325  23.484  0.00  0.00    -0.176 NA
ATOM     23  C   UNL     1       2.805  -0.314  22.659  0.00  0.00    +0.123 A 
ATOM     27  C   UNL     1       3.363  -1.419  23.254  0.00  0.00    +0.057 A 
ATOM     30  C   UNL     1       4.602  -0.967  23.745  0.00  0.00    +0.061 A 
ATOM     32  C   UNL     1       3.581   2.059  22.368  0.00  0.00    +0.173 C 
ATOM     34  C   UNL     1       5.616  -1.748  24.474  0.00  0.00    +0.067 C 
ENDBRANCH  22  23
BRANCH  18  21
ATOM      3  O   UNL     1       0.596  -1.630  25.084  0.00  0.00    -0.274 OA
ATOM     10  N   UNL     1      -1.471  -0.559  25.073  0.00  0.00    -0.302 N 
ATOM     21  C   UNL     1      -0.113  -0.662  24.826  0.00  0.00    +0.234 C 
ATOM     40  H   UNL     1      -1.955   0.300  24.826  0.00  0.00    +0.150 HD
BRANCH  10  24
ATOM     24  C   UNL     1      -2.244  -1.616  25.685  0.00  0.00    +0.163 C 
BRANCH  24  28
ATOM      7  O   UNL     1      -3.616  -3.264  24.540  0.00  0.00    -0.274 OA
ATOM     15  N   UNL     1      -1.578  -2.711  23.635  0.00  0.00    -0.328 N 
ATOM     28  C   UNL     1      -2.568  -2.625  24.592  0.00  0.00    +0.231 C 
ATOM     41  H   UNL     1      -1.676  -3.335  22.842  0.00  0.00    +0.145 HD
ATOM     42  H   UNL     1      -0.721  -2.169  23.684  0.00  0.00    +0.145 HD
ENDBRANCH  24  28
BRANCH  24  26
ATOM     26  C   UNL     1      -3.535  -1.091  26.325  0.00  0.00    +0.074 C 
BRANCH  26  31
ATOM      2  S   UNL     1      -4.910   1.329  26.253  0.00  0.00    -0.102 S 
ATOM     31  C   UNL     1      -4.213  -0.035  25.487  0.00  0.00    -0.008 A 
ATOM     35  C   UNL     1      -4.371   0.005  24.120  0.00  0.00    +0.011 A 
ATOM     37  C   UNL     1      -5.072   1.169  23.694  0.00  0.00    +0.008 A 
ATOM     38  C   UNL     1      -5.424   1.977  24.753  0.00  0.00    +0.045 A 
ENDBRANCH  26  31
ENDBRANCH  24  26
ENDBRANCH  10  24
ENDBRANCH  18  21
BRANCH  16   9
ATOM      9  N   UNL     1      -2.290   3.263  24.146  0.00  0.00    -0.185 NA
ATOM     39  H   UNL     1      -3.034   3.567  23.506  0.00  0.00    +0.148 HD
BRANCH   9   1
ATOM      1  S   UNL     1      -1.372   4.445  24.949  0.00  0.00    +0.077 S 
ATOM      5  O   UNL     1      -2.261   5.392  25.595  0.00  0.00    -0.152 OA
ATOM      6  O   UNL     1      -0.331   4.916  24.055  0.00  0.00    -0.152 OA
BRANCH   1  25
ATOM     12  N   UNL     1      -1.202   2.445  26.836  0.00  0.00    -0.216 NA
ATOM     14  N   UNL     1       0.848   2.709  27.649  0.00  0.00    -0.338 N 
ATOM     25  C   UNL     1      -0.578   3.495  26.210  0.00  0.00    +0.211 A 
ATOM     29  C   UNL     1       0.694   3.678  26.698  0.00  0.00    +0.135 A 
ATOM     33  C   UNL     1      -0.316   1.994  27.697  0.00  0.00    +0.201 A 
ATOM     36  C   UNL     1       2.022   2.482  28.455  0.00  0.00    +0.150 C 
ENDBRANCH   1  25
ENDBRANCH   9   1
ENDBRANCH  16   9
TORSDOF 9
ENDMDL
MODEL 8
REMARK VINA RESULT:      10.9      2.356      7.439
REMARK  Name = 44716821
REMARK  12 active torsions:
REMARK  status: ('A' for Active; 'I' for Inactive)
REMARK    1  A    between atoms: S_1  and  N_9
REMARK    2  A    between atoms: S_1  and  C_25
REMARK    3  A    between atoms: N_9  and  C_16
REMARK    4  A    between atoms: N_10  and  C_24
REMARK    5  A    between atoms: N_11  and  C_32
REMARK    6  A    between atoms: N_14  and  C_36
REMARK    7  A    between atoms: C_18  and  C_21
REMARK    8  A    between atoms: C_22  and  C_23
REMARK    9  A    between atoms: C_24  and  C_26
REMARK   10  A    between atoms: C_24  and  C_28
REMARK   11  A    between atoms: C_26  and  C_31
REMARK   12  A    between atoms: C_30  and  C_34
REMARK                            x       y       z     vdW  Elec       q    Type
REMARK                         _______ _______ _______ _____ _____    ______ ____
ROOT
ATOM      4  O   UNL     1       2.031  -0.628  20.805  0.00  0.00    -0.268 OA
ATOM      8  N   UNL     1       0.857   0.264  22.629  0.00  0.00    -0.285 N 
ATOM     16  C   UNL     1      -1.340   1.895  23.622  0.00  0.00    +0.080 C 
ATOM     17  C   UNL     1      -0.015   1.826  24.382  0.00  0.00    +0.052 C 
ATOM     18  C   UNL     1       0.790   0.563  24.071  0.00  0.00    +0.164 C 
ATOM     19  C   UNL     1      -1.116   1.676  22.128  0.00  0.00    +0.039 C 
ATOM     20  C   UNL     1      -0.401   0.356  21.879  0.00  0.00    +0.110 C 
ATOM     22  C   UNL     1       1.988  -0.244  21.973  0.00  0.00    +0.265 C 
ENDROOT
BRANCH  22  23
ATOM     11  N   UNL     1       4.123   0.698  22.915  0.00  0.00    -0.262 N 
ATOM     13  N   UNL     1       5.202   0.361  23.642  0.00  0.00    -0.176 NA
ATOM     23  C   UNL     1       3.244  -0.329  22.725  0.00  0.00    +0.123 A 
ATOM     27  C   UNL     1       3.786  -1.412  23.373  0.00  0.00    +0.057 A 
ATOM     30  C   UNL     1       4.990  -0.929  23.919  0.00  0.00    +0.061 A 
ATOM     32  C   UNL     1       3.997   2.050  22.424  0.00  0.00    +0.173 C 
ATOM     34  C   UNL     1       5.975  -1.677  24.719  0.00  0.00    +0.067 C 
ENDBRANCH  22  23
BRANCH  18  21
ATOM      3  O   UNL     1       0.913  -1.628  25.014  0.00  0.00    -0.274 OA
ATOM     10  N   UNL     1      -1.139  -0.530  24.980  0.00  0.00    -0.302 N 
ATOM     21  C   UNL     1       0.219  -0.652  24.743  0.00  0.00    +0.234 C 
ATOM     40  H   UNL     1      -1.610   0.334  24.723  0.00  0.00    +0.150 HD
BRANCH  10  24
ATOM     24  C   UNL     1      -1.931  -1.571  25.595  0.00  0.00    +0.163 C 
BRANCH  24  28
ATOM      7  O   UNL     1      -1.568  -2.848  23.559  0.00  0.00    -0.274 OA
ATOM     15  N   UNL     1      -3.546  -3.128  24.695  0.00  0.00    -0.328 N 
ATOM     28  C   UNL     1      -2.306  -2.556  24.497  0.00  0.00    +0.231 C 
ATOM     41  H   UNL     1      -3.909  -3.815  24.043  0.00  0.00    +0.145 HD
ATOM     42  H   UNL     1      -4.140  -2.887  25.480  0.00  0.00    +0.145 HD
ENDBRANCH  24  28
BRANCH  24  26
ATOM     26  C   UNL     1      -3.192  -1.017  26.268  0.00  0.00    +0.074 C 
BRANCH  26  31
ATOM      2  S   UNL     1      -5.328   0.749  26.001  0.00  0.00    -0.102 S 
ATOM     31  C   UNL     1      -3.963  -0.076  25.376  0.00  0.00    -0.008 A 
ATOM     35  C   UNL     1      -3.728   0.241  24.056  0.00  0.00    +0.011 A 
ATOM     37  C   UNL     1      -4.680   1.174  23.551  0.00  0.00    +0.008 A 
ATOM     38  C   UNL     1      -5.606   1.534  24.504  0.00  0.00    +0.045 A 
ENDBRANCH  26  31
ENDBRANCH  24  26
ENDBRANCH  10  24
ENDBRANCH  18  21
BRANCH  16   9
ATOM      9  N   UNL     1      -1.963   3.224  23.834  0.00  0.00    -0.185 NA
ATOM     39  H   UNL     1      -2.043   3.819  23.001  0.00  0.00    +0.148 HD
BRANCH   9   1
ATOM      1  S   UNL     1      -1.875   3.964  25.359  0.00  0.00    +0.077 S 
ATOM      5  O   UNL     1      -1.232   5.259  25.232  0.00  0.00    -0.152 OA
ATOM      6  O   UNL     1      -1.381   2.997  26.321  0.00  0.00    -0.152 OA
BRANCH   1  25
ATOM     12  N   UNL     1      -4.159   3.774  26.888  0.00  0.00    -0.216 NA
ATOM     14  N   UNL     1      -5.664   4.852  25.659  0.00  0.00    -0.338 N 
ATOM     25  C   UNL     1      -3.581   4.237  25.732  0.00  0.00    +0.211 A 
ATOM     29  C   UNL     1      -4.494   4.908  24.954  0.00  0.00    +0.135 A 
ATOM     33  C   UNL     1      -5.414   4.161  26.812  0.00  0.00    +0.201 A 
ATOM     36  C   UNL     1      -6.929   5.417  25.260  0.00  0.00    +0.150 C 
ENDBRANCH   1  25
ENDBRANCH   9   1
ENDBRANCH  16   9
TORSDOF 9
ENDMDL
MODEL 9
REMARK VINA RESULT:      11.6      2.335      7.101
REMARK  Name = 44716821
REMARK  12 active torsions:
REMARK  status: ('A' for Active; 'I' for Inactive)
REMARK    1  A    between atoms: S_1  and  N_9
REMARK    2  A    between atoms: S_1  and  C_25
REMARK    3  A    between atoms: N_9  and  C_16
REMARK    4  A    between atoms: N_10  and  C_24
REMARK    5  A    between atoms: N_11  and  C_32
REMARK    6  A    between atoms: N_14  and  C_36
REMARK    7  A    between atoms: C_18  and  C_21
REMARK    8  A    between atoms: C_22  and  C_23
REMARK    9  A    between atoms: C_24  and  C_26
REMARK   10  A    between atoms: C_24  and  C_28
REMARK   11  A    between atoms: C_26  and  C_31
REMARK   12  A    between atoms: C_30  and  C_34
REMARK                            x       y       z     vdW  Elec       q    Type
REMARK                         _______ _______ _______ _____ _____    ______ ____
ROOT
ATOM      4  O   UNL     1       2.849   3.076  22.390  0.00  0.00    -0.268 OA
ATOM      8  N   UNL     1       1.146   2.264  23.783  0.00  0.00    -0.285 N 
ATOM     16  C   UNL     1      -1.045   2.813  25.618  0.00  0.00    +0.080 C 
ATOM     17  C   UNL     1      -0.172   1.570  25.796  0.00  0.00    +0.052 C 
ATOM     18  C   UNL     1       0.527   1.139  24.505  0.00  0.00    +0.164 C 
ATOM     19  C   UNL     1      -0.253   3.938  24.959  0.00  0.00    +0.039 C 
ATOM     20  C   UNL     1       0.333   3.477  23.631  0.00  0.00    +0.110 C 
ATOM     22  C   UNL     1       2.375   2.199  23.111  0.00  0.00    +0.265 C 
ENDROOT
BRANCH  22  23
ATOM     11  N   UNL     1       3.006  -0.181  22.587  0.00  0.00    -0.262 N 
ATOM     13  N   UNL     1       3.884  -1.143  22.915  0.00  0.00    -0.176 NA
ATOM     23  C   UNL     1       3.187   0.987  23.269  0.00  0.00    +0.123 A 
ATOM     27  C   UNL     1       4.258   0.773  24.102  0.00  0.00    +0.057 A 
ATOM     30  C   UNL     1       4.646  -0.554  23.841  0.00  0.00    +0.061 A 
ATOM     32  C   UNL     1       1.998  -0.455  21.589  0.00  0.00    +0.173 C 
ATOM     34  C   UNL     1       5.752  -1.303  24.463  0.00  0.00    +0.067 C 
ENDBRANCH  22  23
BRANCH  18  21
ATOM      3  O   UNL     1      -0.135  -0.590  22.996  0.00  0.00    -0.274 OA
ATOM     10  N   UNL     1      -1.579   1.198  23.364  0.00  0.00    -0.302 N 
ATOM     21  C   UNL     1      -0.416   0.471  23.547  0.00  0.00    +0.234 C 
ATOM     40  H   UNL     1      -1.710   2.062  23.885  0.00  0.00    +0.150 HD
BRANCH  10  24
ATOM     24  C   UNL     1      -2.639   0.784  22.472  0.00  0.00    +0.163 C 
BRANCH  24  28
ATOM      7  O   UNL     1      -3.657   2.893  21.824  0.00  0.00    -0.274 OA
ATOM     15  N   UNL     1      -2.222   1.867  20.352  0.00  0.00    -0.328 N 
ATOM     28  C   UNL     1      -2.921   1.952  21.538  0.00  0.00    +0.231 C 
ATOM     41  H   UNL     1      -2.307   2.591  19.646  0.00  0.00    +0.145 HD
ATOM     42  H   UNL     1      -1.609   1.089  20.133  0.00  0.00    +0.145 HD
ENDBRANCH  24  28
BRANCH  24  26
ATOM     26  C   UNL     1      -3.911   0.387  23.231  0.00  0.00    +0.074 C 
BRANCH  26  31
ATOM      2  S   UNL     1      -3.185  -0.828  25.628  0.00  0.00    -0.102 S 
ATOM     31  C   UNL     1      -3.748  -0.893  24.012  0.00  0.00    -0.008 A 
ATOM     35  C   UNL     1      -3.996  -2.185  23.604  0.00  0.00    +0.011 A 
ATOM     37  C   UNL     1      -3.719  -3.134  24.630  0.00  0.00    +0.008 A 
ATOM     38  C   UNL     1      -3.272  -2.531  25.785  0.00  0.00    +0.045 A 
ENDBRANCH  26  31
ENDBRANCH  24  26
ENDBRANCH  10  24
ENDBRANCH  18  21
BRANCH  16   9
ATOM      9  N   UNL     1      -1.531   3.269  26.943  0.00  0.00    -0.185 NA
ATOM     39  H   UNL     1      -1.362   2.626  27.727  0.00  0.00    +0.148 HD
BRANCH   9   1
ATOM      1  S   UNL     1      -2.840   4.347  27.039  0.00  0.00    +0.077 S 
ATOM      5  O   UNL     1      -2.464   5.617  26.448  0.00  0.00    -0.152 OA
ATOM      6  O   UNL     1      -3.385   4.301  28.383  0.00  0.00    -0.152 OA
BRANCH   1  25
ATOM     12  N   UNL     1      -4.119   3.890  24.642  0.00  0.00    -0.216 NA
ATOM     14  N   UNL     1      -5.627   2.348  25.176  0.00  0.00    -0.338 N 
ATOM     25  C   UNL     1      -4.024   3.578  25.976  0.00  0.00    +0.211 A 
ATOM     29  C   UNL     1      -4.949   2.625  26.330  0.00  0.00    +0.135 A 
ATOM     33  C   UNL     1      -5.094   3.131  24.190  0.00  0.00    +0.201 A 
ATOM     36  C   UNL     1      -6.706   1.404  25.025  0.00  0.00    +0.150 C 
ENDBRANCH   1  25
ENDBRANCH   9   1
ENDBRANCH  16   9
TORSDOF 9
ENDMDL
MODEL 10
REMARK VINA RESULT:      11.6      2.160      6.987
REMARK  Name = 44716821
REMARK  12 active torsions:
REMARK  status: ('A' for Active; 'I' for Inactive)
REMARK    1  A    between atoms: S_1  and  N_9
REMARK    2  A    between atoms: S_1  and  C_25
REMARK    3  A    between atoms: N_9  and  C_16
REMARK    4  A    between atoms: N_10  and  C_24
REMARK    5  A    between atoms: N_11  and  C_32
REMARK    6  A    between atoms: N_14  and  C_36
REMARK    7  A    between atoms: C_18  and  C_21
REMARK    8  A    between atoms: C_22  and  C_23
REMARK    9  A    between atoms: C_24  and  C_26
REMARK   10  A    between atoms: C_24  and  C_28
REMARK   11  A    between atoms: C_26  and  C_31
REMARK   12  A    between atoms: C_30  and  C_34
REMARK                            x       y       z     vdW  Elec       q    Type
REMARK                         _______ _______ _______ _____ _____    ______ ____
ROOT
ATOM      4  O   UNL     1      -3.186   3.019  22.350  0.00  0.00    -0.268 OA
ATOM      8  N   UNL     1      -2.002   1.339  23.480  0.00  0.00    -0.285 N 
ATOM     16  C   UNL     1      -1.430  -1.491  23.846  0.00  0.00    +0.080 C 
ATOM     17  C   UNL     1      -1.393  -0.528  25.034  0.00  0.00    +0.052 C 
ATOM     18  C   UNL     1      -1.163   0.926  24.619  0.00  0.00    +0.164 C 
ATOM     19  C   UNL     1      -2.416  -1.003  22.788  0.00  0.00    +0.039 C 
ATOM     20  C   UNL     1      -2.074   0.412  22.345  0.00  0.00    +0.110 C 
ATOM     22  C   UNL     1      -2.597   2.602  23.346  0.00  0.00    +0.265 C 
ENDROOT
BRANCH  22  23
ATOM     11  N   UNL     1      -1.580   4.490  24.664  0.00  0.00    -0.262 N 
ATOM     13  N   UNL     1      -1.738   5.203  25.792  0.00  0.00    -0.176 NA
ATOM     23  C   UNL     1      -2.528   3.524  24.485  0.00  0.00    +0.123 A 
ATOM     27  C   UNL     1      -3.363   3.612  25.572  0.00  0.00    +0.057 A 
ATOM     30  C   UNL     1      -2.829   4.662  26.342  0.00  0.00    +0.061 A 
ATOM     32  C   UNL     1      -0.475   4.795  23.785  0.00  0.00    +0.173 C 
ATOM     34  C   UNL     1      -3.338   5.183  27.622  0.00  0.00    +0.067 C 
ENDBRANCH  22  23
BRANCH  18  21
ATOM      3  O   UNL     1       0.808   2.264  24.443  0.00  0.00    -0.274 OA
ATOM     10  N   UNL     1       0.840   0.094  23.600  0.00  0.00    -0.302 N 
ATOM     21  C   UNL     1       0.263   1.185  24.228  0.00  0.00    +0.234 C 
ATOM     40  H   UNL     1       0.295  -0.756  23.487  0.00  0.00    +0.150 HD
BRANCH  10  24
ATOM     24  C   UNL     1       2.198   0.095  23.105  0.00  0.00    +0.163 C 
BRANCH  24  28
ATOM      7  O   UNL     1       3.048   0.214  20.831  0.00  0.00    -0.274 OA
ATOM     15  N   UNL     1       0.920  -0.584  21.168  0.00  0.00    -0.328 N 
ATOM     28  C   UNL     1       2.123  -0.058  21.592  0.00  0.00    +0.231 C 
ATOM     41  H   UNL     1       0.746  -0.751  20.183  0.00  0.00    +0.145 HD
ATOM     42  H   UNL     1       0.168  -0.814  21.808  0.00  0.00    +0.145 HD
ENDBRANCH  24  28
BRANCH  24  26
ATOM     26  C   UNL     1       3.036  -1.035  23.714  0.00  0.00    +0.074 C 
BRANCH  26  31
ATOM      2  S   UNL     1       5.025   0.899  23.480  0.00  0.00    -0.102 S 
ATOM     31  C   UNL     1       4.509  -0.710  23.756  0.00  0.00    -0.008 A 
ATOM     35  C   UNL     1       5.568  -1.558  23.995  0.00  0.00    +0.011 A 
ATOM     37  C   UNL     1       6.819  -0.878  23.951  0.00  0.00    +0.008 A 
ATOM     38  C   UNL     1       6.669   0.464  23.681  0.00  0.00    +0.045 A 
ENDBRANCH  26  31
ENDBRANCH  24  26
ENDBRANCH  10  24
ENDBRANCH  18  21
BRANCH  16   9
ATOM      9  N   UNL     1      -1.841  -2.837  24.314  0.00  0.00    -0.185 NA
ATOM     39  H   UNL     1      -1.255  -3.619  23.997  0.00  0.00    +0.148 HD
BRANCH   9   1
ATOM      1  S   UNL     1      -3.467  -3.139  24.698  0.00  0.00    +0.077 S 
ATOM      5  O   UNL     1      -3.538  -3.942  25.904  0.00  0.00    -0.152 OA
ATOM      6  O   UNL     1      -4.159  -3.565  23.496  0.00  0.00    -0.152 OA
BRANCH   1  25
ATOM     12  N   UNL     1      -3.760  -0.899  26.275  0.00  0.00    -0.216 NA
ATOM     14  N   UNL     1      -5.032   0.422  25.021  0.00  0.00    -0.338 N 
ATOM     25  C   UNL     1      -4.057  -1.519  25.086  0.00  0.00    +0.211 A 
ATOM     29  C   UNL     1      -4.844  -0.719  24.293  0.00  0.00    +0.135 A 
ATOM     33  C   UNL     1      -4.362   0.268  26.203  0.00  0.00    +0.201 A 
ATOM     36  C   UNL     1      -5.795   1.577  24.617  0.00  0.00    +0.150 C 
ENDBRANCH   1  25
ENDBRANCH   9   1
ENDBRANCH  16   9
TORSDOF 9
ENDMDL
