MODEL 1
REMARK VINA RESULT:       0.3      0.000      0.000
REMARK  Name = 45361572
REMARK  8 active torsions:
REMARK  status: ('A' for Active; 'I' for Inactive)
REMARK    1  A    between atoms: O_1  and  C_10
REMARK    2  A    between atoms: N_4  and  C_14
REMARK    3  A    between atoms: C_7  and  C_17
REMARK    4  A    between atoms: C_9  and  C_19
REMARK    5  A    between atoms: C_12  and  C_18
REMARK    6  A    between atoms: C_18  and  C_20
REMARK    7  A    between atoms: C_18  and  C_21
REMARK    8  A    between atoms: C_22  and  C_27
REMARK                            x       y       z     vdW  Elec       q    Type
REMARK                         _______ _______ _______ _____ _____    ______ ____
ROOT
ATOM      7  C   UNL     1      -2.597  -1.108  25.069  0.00  0.00    -0.027 C 
ATOM      8  C   UNL     1      -2.127   0.139  24.248  0.00  0.00    +0.028 C 
ATOM      9  C   UNL     1      -0.563   0.280  24.293  0.00  0.00    +0.012 C 
ATOM     10  C   UNL     1      -2.925   1.412  24.649  0.00  0.00    +0.122 C 
ATOM     11  C   UNL     1      -4.126  -1.284  24.910  0.00  0.00    +0.007 C 
ATOM     12  C   UNL     1      -4.456   1.198  24.588  0.00  0.00    +0.029 C 
ATOM     13  C   UNL     1      -1.916  -2.373  24.498  0.00  0.00    +0.009 C 
ATOM     14  C   UNL     1       0.111  -1.025  23.788  0.00  0.00    +0.076 C 
ATOM     15  C   UNL     1      -4.914  -0.054  25.340  0.00  0.00    +0.007 C 
ATOM     16  C   UNL     1      -0.397  -2.284  24.492  0.00  0.00    +0.023 C 
ATOM     17  C   UNL     1      -2.264  -0.986  26.577  0.00  0.00    +0.011 C 
ATOM     19  C   UNL     1      -0.029   1.472  23.481  0.00  0.00    +0.010 C 
ENDROOT
BRANCH  14   4
ATOM      3  O   UNL     1       1.981  -0.005  21.863  0.00  0.00    -0.270 OA
ATOM      4  N   UNL     1       1.552  -0.973  23.925  0.00  0.00    -0.308 N 
ATOM     22  C   UNL     1       2.372  -0.460  22.934  0.00  0.00    +0.244 C 
ATOM     33  H   UNL     1       1.953  -1.434  24.736  0.00  0.00    +0.149 HD
BRANCH  22  27
ATOM      6  N   UNL     1       6.571  -0.580  23.756  0.00  0.00    -0.263 NA
ATOM     27  C   UNL     1       3.829  -0.502  23.218  0.00  0.00    +0.040 A 
ATOM     29  C   UNL     1       4.391  -1.620  23.824  0.00  0.00    +0.033 A 
ATOM     30  C   UNL     1       4.639   0.577  22.880  0.00  0.00    +0.033 A 
ATOM     31  C   UNL     1       5.754  -1.610  24.070  0.00  0.00    +0.111 A 
ATOM     32  C   UNL     1       5.990   0.489  23.168  0.00  0.00    +0.111 A 
ENDBRANCH  22  27
ENDBRANCH  14   4
BRANCH  10   1
ATOM      1  O   UNL     1      -2.625   2.470  23.738  0.00  0.00    -0.391 OA
ATOM     34  H   UNL     1      -1.820   2.917  24.050  0.00  0.00    +0.210 HD
ENDBRANCH  10   1
BRANCH  12  18
ATOM     18  C   UNL     1      -5.223   2.418  25.111  0.00  0.00    +0.078 C 
ATOM     20  C   UNL     1      -6.666   2.401  24.641  0.00  0.00    +0.017 C 
BRANCH  18  21
ATOM      2  O   UNL     1      -4.955   4.230  23.608  0.00  0.00    -0.275 OA
ATOM      5  N   UNL     1      -3.439   4.108  25.365  0.00  0.00    -0.301 N 
ATOM     21  C   UNL     1      -4.534   3.666  24.621  0.00  0.00    +0.219 C 
ATOM     23  C   UNL     1      -2.941   3.484  26.597  0.00  0.00    +0.108 C 
ATOM     24  C   UNL     1      -2.715   5.312  24.951  0.00  0.00    +0.108 C 
ATOM     25  C   UNL     1      -1.452   3.165  26.481  0.00  0.00    +0.019 C 
ATOM     26  C   UNL     1      -1.223   5.027  24.803  0.00  0.00    +0.019 C 
ATOM     28  C   UNL     1      -0.651   4.400  26.073  0.00  0.00    +0.003 C 
ENDBRANCH  18  21
ENDBRANCH  12  18
TORSDOF 5
ENDMDL
