MODEL 1
REMARK VINA RESULT:       3.1      0.000      0.000
REMARK  Name = 11879578
REMARK  11 active torsions:
REMARK  status: ('A' for Active; 'I' for Inactive)
REMARK    1  A    between atoms: S_1  and  N_8
REMARK    2  A    between atoms: S_1  and  C_22
REMARK    3  A    between atoms: O_4  and  C_21
REMARK    4  A    between atoms: O_4  and  C_25
REMARK    5  A    between atoms: N_8  and  C_17
REMARK    6  A    between atoms: N_9  and  C_18
REMARK    7  A    between atoms: N_13  and  C_28
REMARK    8  A    between atoms: N_14  and  C_31
REMARK    9  A    between atoms: N_14  and  C_35
REMARK   10  A    between atoms: N_14  and  C_36
REMARK   11  A    between atoms: C_34  and  C_37
REMARK                            x       y       z     vdW  Elec       q    Type
REMARK                         _______ _______ _______ _____ _____    ______ ____
ROOT
ATOM      2  O   UNL     1      -0.772   4.059  23.662  0.00  0.00    -0.370 OA
ATOM      3  O   UNL     1      -0.985   2.075  26.108  0.00  0.00    -0.370 OA
ATOM     15  C   UNL     1      -1.019   1.923  24.682  0.00  0.00    +0.170 C 
ATOM     16  C   UNL     1      -1.761   3.115  24.107  0.00  0.00    +0.175 C 
ATOM     17  C   UNL     1       0.375   2.038  24.112  0.00  0.00    +0.133 C 
ATOM     18  C   UNL     1      -2.533   3.691  25.279  0.00  0.00    +0.171 C 
ATOM     19  C   UNL     1       0.537   3.531  23.916  0.00  0.00    +0.183 C 
ATOM     20  C   UNL     1      -1.702   3.260  26.482  0.00  0.00    +0.190 C 
ENDROOT
BRANCH  18   9
ATOM      9  N   UNL     1      -3.930   3.252  25.302  0.00  0.00    -0.187 N 
ATOM     10  N   UNL     1      -4.840   3.869  26.069  0.00  0.00    -0.041 NA
ATOM     11  N   UNL     1      -5.791   2.199  24.941  0.00  0.00    -0.071 NA
ATOM     12  N   UNL     1      -5.976   3.221  25.844  0.00  0.00    -0.020 NA
ATOM     21  C   UNL     1      -4.519   2.236  24.618  0.00  0.00    +0.342 A 
BRANCH  21   4
ATOM      4  O   UNL     1      -3.894   1.433  23.777  0.00  0.00    -0.423 OA
BRANCH   4  25
ATOM     25  C   UNL     1      -3.655   0.096  24.060  0.00  0.00    +0.134 A 
ATOM     29  C   UNL     1      -2.538  -0.268  24.813  0.00  0.00    +0.069 A 
ATOM     30  C   UNL     1      -4.529  -0.885  23.592  0.00  0.00    +0.046 A 
ATOM     31  C   UNL     1      -2.296  -1.612  25.097  0.00  0.00    +0.033 A 
ATOM     32  C   UNL     1      -4.287  -2.229  23.876  0.00  0.00    +0.005 A 
ATOM     33  C   UNL     1      -3.170  -2.592  24.629  0.00  0.00    +0.023 A 
BRANCH  31  14
ATOM     14  N   UNL     1      -1.166  -1.980  25.857  0.00  0.00    -0.336 N 
ATOM     35  C   UNL     1      -0.764  -1.191  27.004  0.00  0.00    +0.129 C 
ATOM     36  C   UNL     1      -0.385  -3.144  25.493  0.00  0.00    +0.129 C 
ENDBRANCH  31  14
ENDBRANCH   4  25
ENDBRANCH  21   4
ENDBRANCH  18   9
BRANCH  17   8
ATOM      8  N   UNL     1       0.443   1.353  22.800  0.00  0.00    -0.182 NA
ATOM     38  H   UNL     1      -0.050   1.787  22.009  0.00  0.00    +0.148 HD
BRANCH   8   1
ATOM      1  S   UNL     1       0.955  -0.264  22.716  0.00  0.00    +0.059 S 
ATOM      5  O   UNL     1       0.767  -0.760  21.366  0.00  0.00    -0.153 OA
ATOM      6  O   UNL     1       0.401  -0.988  23.844  0.00  0.00    -0.153 OA
BRANCH   1  22
ATOM     22  C   UNL     1       2.692  -0.112  23.004  0.00  0.00    +0.105 A 
ATOM     23  C   UNL     1       3.396  -1.163  23.592  0.00  0.00    +0.030 A 
ATOM     24  C   UNL     1       3.359   1.058  22.643  0.00  0.00    +0.030 A 
ATOM     26  C   UNL     1       4.767  -1.043  23.819  0.00  0.00    +0.025 A 
ATOM     27  C   UNL     1       4.731   1.178  22.870  0.00  0.00    +0.025 A 
ATOM     28  C   UNL     1       5.435   0.127  23.458  0.00  0.00    +0.033 A 
BRANCH  28  13
ATOM      7  O   UNL     1       7.764  -1.203  22.091  0.00  0.00    -0.276 OA
ATOM     13  N   UNL     1       6.806   0.247  23.684  0.00  0.00    -0.286 N 
ATOM     34  C   UNL     1       7.852  -0.402  23.015  0.00  0.00    +0.214 C 
ATOM     37  C   UNL     1       9.200  -0.001  23.562  0.00  0.00    +0.109 C 
ATOM     39  H   UNL     1       7.068   0.885  24.432  0.00  0.00    +0.155 HD
ENDBRANCH  28  13
ENDBRANCH   1  22
ENDBRANCH   8   1
ENDBRANCH  17   8
TORSDOF 8
ENDMDL
MODEL 2
REMARK VINA RESULT:       3.1      1.657      2.249
REMARK  Name = 11879578
REMARK  11 active torsions:
REMARK  status: ('A' for Active; 'I' for Inactive)
REMARK    1  A    between atoms: S_1  and  N_8
REMARK    2  A    between atoms: S_1  and  C_22
REMARK    3  A    between atoms: O_4  and  C_21
REMARK    4  A    between atoms: O_4  and  C_25
REMARK    5  A    between atoms: N_8  and  C_17
REMARK    6  A    between atoms: N_9  and  C_18
REMARK    7  A    between atoms: N_13  and  C_28
REMARK    8  A    between atoms: N_14  and  C_31
REMARK    9  A    between atoms: N_14  and  C_35
REMARK   10  A    between atoms: N_14  and  C_36
REMARK   11  A    between atoms: C_34  and  C_37
REMARK                            x       y       z     vdW  Elec       q    Type
REMARK                         _______ _______ _______ _____ _____    ______ ____
ROOT
ATOM      2  O   UNL     1      -3.342   4.887  23.827  0.00  0.00    -0.370 OA
ATOM      3  O   UNL     1      -2.635   4.124  26.808  0.00  0.00    -0.370 OA
ATOM     15  C   UNL     1      -2.358   3.542  25.526  0.00  0.00    +0.170 C 
ATOM     16  C   UNL     1      -3.584   3.736  24.655  0.00  0.00    +0.175 C 
ATOM     17  C   UNL     1      -1.271   4.321  24.824  0.00  0.00    +0.133 C 
ATOM     18  C   UNL     1      -4.708   4.030  25.631  0.00  0.00    +0.171 C 
ATOM     19  C   UNL     1      -2.043   5.419  24.122  0.00  0.00    +0.183 C 
ATOM     20  C   UNL     1      -3.977   4.630  26.826  0.00  0.00    +0.190 C 
ENDROOT
BRANCH  18   9
ATOM      9  N   UNL     1      -5.516   2.845  25.930  0.00  0.00    -0.187 N 
ATOM     10  N   UNL     1      -6.495   2.884  26.845  0.00  0.00    -0.041 NA
ATOM     11  N   UNL     1      -6.357   0.846  25.955  0.00  0.00    -0.071 NA
ATOM     12  N   UNL     1      -7.005   1.659  26.855  0.00  0.00    -0.020 NA
ATOM     21  C   UNL     1      -5.440   1.599  25.392  0.00  0.00    +0.342 A 
BRANCH  21   4
ATOM      4  O   UNL     1      -4.577   1.232  24.464  0.00  0.00    -0.423 OA
BRANCH   4  25
ATOM     25  C   UNL     1      -4.035  -0.045  24.411  0.00  0.00    +0.134 A 
ATOM     29  C   UNL     1      -2.827  -0.317  25.053  0.00  0.00    +0.069 A 
ATOM     30  C   UNL     1      -4.697  -1.056  23.714  0.00  0.00    +0.046 A 
ATOM     31  C   UNL     1      -2.282  -1.600  25.000  0.00  0.00    +0.033 A 
ATOM     32  C   UNL     1      -4.152  -2.339  23.661  0.00  0.00    +0.005 A 
ATOM     33  C   UNL     1      -2.944  -2.611  24.304  0.00  0.00    +0.023 A 
BRANCH  31  14
ATOM     14  N   UNL     1      -1.060  -1.874  25.649  0.00  0.00    -0.336 N 
ATOM     35  C   UNL     1      -0.667  -1.121  26.823  0.00  0.00    +0.129 C 
ATOM     36  C   UNL     1      -0.175  -2.904  25.142  0.00  0.00    +0.129 C 
ENDBRANCH  31  14
ENDBRANCH   4  25
ENDBRANCH  21   4
ENDBRANCH  18   9
BRANCH  17   8
ATOM      8  N   UNL     1      -0.601   3.462  23.819  0.00  0.00    -0.182 NA
ATOM     38  H   UNL     1      -0.259   3.910  22.961  0.00  0.00    +0.148 HD
BRANCH   8   1
ATOM      1  S   UNL     1      -0.768   1.775  23.906  0.00  0.00    +0.059 S 
ATOM      5  O   UNL     1      -1.662   1.324  22.857  0.00  0.00    -0.153 OA
ATOM      6  O   UNL     1      -1.012   1.400  25.285  0.00  0.00    -0.153 OA
BRANCH   1  22
ATOM     22  C   UNL     1       0.864   1.225  23.504  0.00  0.00    +0.105 A 
ATOM     23  C   UNL     1       1.923   2.132  23.499  0.00  0.00    +0.030 A 
ATOM     24  C   UNL     1       1.091  -0.115  23.195  0.00  0.00    +0.030 A 
ATOM     26  C   UNL     1       3.211   1.699  23.183  0.00  0.00    +0.025 A 
ATOM     27  C   UNL     1       2.379  -0.549  22.878  0.00  0.00    +0.025 A 
ATOM     28  C   UNL     1       3.439   0.358  22.872  0.00  0.00    +0.033 A 
BRANCH  28  13
ATOM      7  O   UNL     1       5.794  -0.232  24.653  0.00  0.00    -0.276 OA
ATOM     13  N   UNL     1       4.727  -0.076  22.557  0.00  0.00    -0.286 N 
ATOM     34  C   UNL     1       5.791  -0.334  23.431  0.00  0.00    +0.214 C 
ATOM     37  C   UNL     1       7.025  -0.787  22.692  0.00  0.00    +0.109 C 
ATOM     39  H   UNL     1       4.906  -0.217  21.565  0.00  0.00    +0.155 HD
ENDBRANCH  28  13
ENDBRANCH   1  22
ENDBRANCH   8   1
ENDBRANCH  17   8
TORSDOF 8
ENDMDL
MODEL 3
REMARK VINA RESULT:       3.9      0.981      1.733
REMARK  Name = 11879578
REMARK  11 active torsions:
REMARK  status: ('A' for Active; 'I' for Inactive)
REMARK    1  A    between atoms: S_1  and  N_8
REMARK    2  A    between atoms: S_1  and  C_22
REMARK    3  A    between atoms: O_4  and  C_21
REMARK    4  A    between atoms: O_4  and  C_25
REMARK    5  A    between atoms: N_8  and  C_17
REMARK    6  A    between atoms: N_9  and  C_18
REMARK    7  A    between atoms: N_13  and  C_28
REMARK    8  A    between atoms: N_14  and  C_31
REMARK    9  A    between atoms: N_14  and  C_35
REMARK   10  A    between atoms: N_14  and  C_36
REMARK   11  A    between atoms: C_34  and  C_37
REMARK                            x       y       z     vdW  Elec       q    Type
REMARK                         _______ _______ _______ _____ _____    ______ ____
ROOT
ATOM      2  O   UNL     1      -0.764   4.066  23.691  0.00  0.00    -0.370 OA
ATOM      3  O   UNL     1      -1.095   2.160  26.186  0.00  0.00    -0.370 OA
ATOM     15  C   UNL     1      -1.123   1.972  24.764  0.00  0.00    +0.170 C 
ATOM     16  C   UNL     1      -1.802   3.181  24.150  0.00  0.00    +0.175 C 
ATOM     17  C   UNL     1       0.280   2.005  24.206  0.00  0.00    +0.133 C 
ATOM     18  C   UNL     1      -2.556   3.825  25.299  0.00  0.00    +0.171 C 
ATOM     19  C   UNL     1       0.516   3.483  23.974  0.00  0.00    +0.183 C 
ATOM     20  C   UNL     1      -1.758   3.387  26.522  0.00  0.00    +0.190 C 
ENDROOT
BRANCH  18   9
ATOM      9  N   UNL     1      -3.973   3.453  25.318  0.00  0.00    -0.187 N 
ATOM     10  N   UNL     1      -4.885   4.224  25.927  0.00  0.00    -0.041 NA
ATOM     11  N   UNL     1      -5.866   2.432  25.034  0.00  0.00    -0.071 NA
ATOM     12  N   UNL     1      -6.041   3.595  25.749  0.00  0.00    -0.020 NA
ATOM     21  C   UNL     1      -4.580   2.364  24.776  0.00  0.00    +0.342 A 
BRANCH  21   4
ATOM      4  O   UNL     1      -3.957   1.410  24.110  0.00  0.00    -0.423 OA
BRANCH   4  25
ATOM     25  C   UNL     1      -3.738   0.147  24.644  0.00  0.00    +0.134 A 
ATOM     29  C   UNL     1      -3.713  -0.969  23.807  0.00  0.00    +0.069 A 
ATOM     30  C   UNL     1      -3.544  -0.006  26.016  0.00  0.00    +0.046 A 
ATOM     31  C   UNL     1      -3.493  -2.237  24.344  0.00  0.00    +0.033 A 
ATOM     32  C   UNL     1      -3.324  -1.274  26.553  0.00  0.00    +0.005 A 
ATOM     33  C   UNL     1      -3.299  -2.390  25.716  0.00  0.00    +0.023 A 
BRANCH  31  14
ATOM     14  N   UNL     1      -3.469  -3.366  23.498  0.00  0.00    -0.336 N 
ATOM     35  C   UNL     1      -2.219  -4.034  23.202  0.00  0.00    +0.129 C 
ATOM     36  C   UNL     1      -4.694  -3.863  22.904  0.00  0.00    +0.129 C 
ENDBRANCH  31  14
ENDBRANCH   4  25
ENDBRANCH  21   4
ENDBRANCH  18   9
BRANCH  17   8
ATOM      8  N   UNL     1       0.328   1.283  22.913  0.00  0.00    -0.182 NA
ATOM     38  H   UNL     1      -0.179   1.694  22.118  0.00  0.00    +0.148 HD
BRANCH   8   1
ATOM      1  S   UNL     1       0.842  -0.334  22.866  0.00  0.00    +0.059 S 
ATOM      5  O   UNL     1       0.609  -0.877  21.542  0.00  0.00    -0.153 OA
ATOM      6  O   UNL     1       0.331  -1.020  24.037  0.00  0.00    -0.153 OA
BRANCH   1  22
ATOM     22  C   UNL     1       2.588  -0.168  23.088  0.00  0.00    +0.105 A 
ATOM     23  C   UNL     1       3.235   0.998  22.680  0.00  0.00    +0.030 A 
ATOM     24  C   UNL     1       3.318  -1.203  23.672  0.00  0.00    +0.030 A 
ATOM     26  C   UNL     1       4.613   1.129  22.856  0.00  0.00    +0.025 A 
ATOM     27  C   UNL     1       4.696  -1.072  23.847  0.00  0.00    +0.025 A 
ATOM     28  C   UNL     1       5.344   0.094  23.439  0.00  0.00    +0.033 A 
BRANCH  28  13
ATOM      7  O   UNL     1       7.632  -1.275  22.040  0.00  0.00    -0.276 OA
ATOM     13  N   UNL     1       6.721   0.225  23.615  0.00  0.00    -0.286 N 
ATOM     34  C   UNL     1       7.748  -0.443  22.933  0.00  0.00    +0.214 C 
ATOM     37  C   UNL     1       9.111  -0.019  23.421  0.00  0.00    +0.109 C 
ATOM     39  H   UNL     1       7.005   0.889  24.332  0.00  0.00    +0.155 HD
ENDBRANCH  28  13
ENDBRANCH   1  22
ENDBRANCH   8   1
ENDBRANCH  17   8
TORSDOF 8
ENDMDL
MODEL 4
REMARK VINA RESULT:       4.1      2.837      5.043
REMARK  Name = 11879578
REMARK  11 active torsions:
REMARK  status: ('A' for Active; 'I' for Inactive)
REMARK    1  A    between atoms: S_1  and  N_8
REMARK    2  A    between atoms: S_1  and  C_22
REMARK    3  A    between atoms: O_4  and  C_21
REMARK    4  A    between atoms: O_4  and  C_25
REMARK    5  A    between atoms: N_8  and  C_17
REMARK    6  A    between atoms: N_9  and  C_18
REMARK    7  A    between atoms: N_13  and  C_28
REMARK    8  A    between atoms: N_14  and  C_31
REMARK    9  A    between atoms: N_14  and  C_35
REMARK   10  A    between atoms: N_14  and  C_36
REMARK   11  A    between atoms: C_34  and  C_37
REMARK                            x       y       z     vdW  Elec       q    Type
REMARK                         _______ _______ _______ _____ _____    ______ ____
ROOT
ATOM      2  O   UNL     1      -5.060   2.600  26.096  0.00  0.00    -0.370 OA
ATOM      3  O   UNL     1      -4.095   2.571  23.090  0.00  0.00    -0.370 OA
ATOM     15  C   UNL     1      -3.737   1.837  24.270  0.00  0.00    +0.170 C 
ATOM     16  C   UNL     1      -3.792   2.794  25.445  0.00  0.00    +0.175 C 
ATOM     17  C   UNL     1      -4.793   0.802  24.580  0.00  0.00    +0.133 C 
ATOM     18  C   UNL     1      -3.740   4.176  24.820  0.00  0.00    +0.171 C 
ATOM     19  C   UNL     1      -5.796   1.580  25.407  0.00  0.00    +0.183 C 
ATOM     20  C   UNL     1      -4.323   3.946  23.431  0.00  0.00    +0.190 C 
ENDROOT
BRANCH  18   9
ATOM      9  N   UNL     1      -2.393   4.751  24.840  0.00  0.00    -0.187 N 
ATOM     10  N   UNL     1      -2.204   6.078  24.854  0.00  0.00    -0.041 NA
ATOM     11  N   UNL     1      -0.241   5.022  24.864  0.00  0.00    -0.071 NA
ATOM     12  N   UNL     1      -0.886   6.237  24.870  0.00  0.00    -0.020 NA
ATOM     21  C   UNL     1      -1.191   4.116  24.846  0.00  0.00    +0.342 A 
BRANCH  21   4
ATOM      4  O   UNL     1      -1.033   2.806  24.833  0.00  0.00    -0.423 OA
BRANCH   4  25
ATOM     25  C   UNL     1      -0.623   2.092  25.952  0.00  0.00    +0.134 A 
ATOM     29  C   UNL     1       0.219   2.689  26.890  0.00  0.00    +0.069 A 
ATOM     30  C   UNL     1      -1.052   0.778  26.137  0.00  0.00    +0.046 A 
ATOM     31  C   UNL     1       0.630   1.972  28.013  0.00  0.00    +0.033 A 
ATOM     32  C   UNL     1      -0.641   0.061  27.260  0.00  0.00    +0.005 A 
ATOM     33  C   UNL     1       0.201   0.658  28.198  0.00  0.00    +0.023 A 
BRANCH  31  14
ATOM     14  N   UNL     1       1.483   2.576  28.962  0.00  0.00    -0.336 N 
ATOM     35  C   UNL     1       1.054   2.737  30.336  0.00  0.00    +0.129 C 
ATOM     36  C   UNL     1       2.793   3.054  28.570  0.00  0.00    +0.129 C 
ENDBRANCH  31  14
ENDBRANCH   4  25
ENDBRANCH  21   4
ENDBRANCH  18   9
BRANCH  17   8
ATOM      8  N   UNL     1      -4.210  -0.287  25.398  0.00  0.00    -0.182 NA
ATOM     38  H   UNL     1      -3.902  -0.055  26.351  0.00  0.00    +0.148 HD
BRANCH   8   1
ATOM      1  S   UNL     1      -3.702  -1.725  24.653  0.00  0.00    +0.059 S 
ATOM      5  O   UNL     1      -4.474  -1.940  23.444  0.00  0.00    -0.153 OA
ATOM      6  O   UNL     1      -3.615  -2.766  25.658  0.00  0.00    -0.153 OA
BRANCH   1  22
ATOM     22  C   UNL     1      -2.047  -1.326  24.179  0.00  0.00    +0.105 A 
ATOM     23  C   UNL     1      -0.981  -2.083  24.665  0.00  0.00    +0.030 A 
ATOM     24  C   UNL     1      -1.807  -0.256  23.318  0.00  0.00    +0.030 A 
ATOM     26  C   UNL     1       0.326  -1.769  24.290  0.00  0.00    +0.025 A 
ATOM     27  C   UNL     1      -0.500   0.059  22.944  0.00  0.00    +0.025 A 
ATOM     28  C   UNL     1       0.567  -0.698  23.430  0.00  0.00    +0.033 A 
BRANCH  28  13
ATOM      7  O   UNL     1       2.081   1.898  23.606  0.00  0.00    -0.276 OA
ATOM     13  N   UNL     1       1.873  -0.384  23.055  0.00  0.00    -0.286 N 
ATOM     34  C   UNL     1       2.530   0.849  23.158  0.00  0.00    +0.214 C 
ATOM     37  C   UNL     1       3.944   0.775  22.639  0.00  0.00    +0.109 C 
ATOM     39  H   UNL     1       2.406  -1.153  22.655  0.00  0.00    +0.155 HD
ENDBRANCH  28  13
ENDBRANCH   1  22
ENDBRANCH   8   1
ENDBRANCH  17   8
TORSDOF 8
ENDMDL
MODEL 5
REMARK VINA RESULT:       4.3      2.402      7.431
REMARK  Name = 11879578
REMARK  11 active torsions:
REMARK  status: ('A' for Active; 'I' for Inactive)
REMARK    1  A    between atoms: S_1  and  N_8
REMARK    2  A    between atoms: S_1  and  C_22
REMARK    3  A    between atoms: O_4  and  C_21
REMARK    4  A    between atoms: O_4  and  C_25
REMARK    5  A    between atoms: N_8  and  C_17
REMARK    6  A    between atoms: N_9  and  C_18
REMARK    7  A    between atoms: N_13  and  C_28
REMARK    8  A    between atoms: N_14  and  C_31
REMARK    9  A    between atoms: N_14  and  C_35
REMARK   10  A    between atoms: N_14  and  C_36
REMARK   11  A    between atoms: C_34  and  C_37
REMARK                            x       y       z     vdW  Elec       q    Type
REMARK                         _______ _______ _______ _____ _____    ______ ____
ROOT
ATOM      2  O   UNL     1      -0.583   3.238  26.706  0.00  0.00    -0.370 OA
ATOM      3  O   UNL     1      -0.768   3.076  23.558  0.00  0.00    -0.370 OA
ATOM     15  C   UNL     1      -1.722   3.012  24.628  0.00  0.00    +0.170 C 
ATOM     16  C   UNL     1      -1.079   2.258  25.776  0.00  0.00    +0.175 C 
ATOM     17  C   UNL     1      -1.978   4.393  25.182  0.00  0.00    +0.133 C 
ATOM     18  C   UNL     1       0.081   1.511  25.146  0.00  0.00    +0.171 C 
ATOM     19  C   UNL     1      -0.880   4.552  26.213  0.00  0.00    +0.183 C 
ATOM     20  C   UNL     1       0.421   2.367  23.932  0.00  0.00    +0.190 C 
ENDROOT
BRANCH  18   9
ATOM      9  N   UNL     1      -0.245   0.114  24.849  0.00  0.00    -0.187 N 
ATOM     10  N   UNL     1      -0.956  -0.631  25.706  0.00  0.00    -0.041 NA
ATOM     11  N   UNL     1      -0.420  -1.832  23.907  0.00  0.00    -0.071 NA
ATOM     12  N   UNL     1      -1.060  -1.819  25.125  0.00  0.00    -0.020 NA
ATOM     21  C   UNL     1       0.077  -0.626  23.755  0.00  0.00    +0.342 A 
BRANCH  21   4
ATOM      4  O   UNL     1       0.776  -0.183  22.726  0.00  0.00    -0.423 OA
BRANCH   4  25
ATOM     25  C   UNL     1       2.115   0.169  22.829  0.00  0.00    +0.134 A 
ATOM     29  C   UNL     1       3.043  -0.754  23.313  0.00  0.00    +0.069 A 
ATOM     30  C   UNL     1       2.532   1.444  22.451  0.00  0.00    +0.046 A 
ATOM     31  C   UNL     1       4.388  -0.401  23.416  0.00  0.00    +0.033 A 
ATOM     32  C   UNL     1       3.877   1.798  22.555  0.00  0.00    +0.005 A 
ATOM     33  C   UNL     1       4.805   0.875  23.038  0.00  0.00    +0.023 A 
BRANCH  31  14
ATOM     14  N   UNL     1       5.326  -1.333  23.907  0.00  0.00    -0.336 N 
ATOM     35  C   UNL     1       4.948  -2.718  24.107  0.00  0.00    +0.129 C 
ATOM     36  C   UNL     1       6.676  -0.916  24.229  0.00  0.00    +0.129 C 
ENDBRANCH  31  14
ENDBRANCH   4  25
ENDBRANCH  21   4
ENDBRANCH  18   9
BRANCH  17   8
ATOM      8  N   UNL     1      -3.300   4.434  25.850  0.00  0.00    -0.182 NA
ATOM     38  H   UNL     1      -3.315   4.419  26.878  0.00  0.00    +0.148 HD
BRANCH   8   1
ATOM      1  S   UNL     1      -4.707   4.103  24.960  0.00  0.00    +0.059 S 
ATOM      5  O   UNL     1      -4.677   4.848  23.716  0.00  0.00    -0.153 OA
ATOM      6  O   UNL     1      -5.853   4.203  25.844  0.00  0.00    -0.153 OA
BRANCH   1  22
ATOM     22  C   UNL     1      -4.502   2.390  24.576  0.00  0.00    +0.105 A 
ATOM     23  C   UNL     1      -3.817   2.012  23.421  0.00  0.00    +0.030 A 
ATOM     24  C   UNL     1      -5.024   1.417  25.427  0.00  0.00    +0.030 A 
ATOM     26  C   UNL     1      -3.655   0.660  23.118  0.00  0.00    +0.025 A 
ATOM     27  C   UNL     1      -4.862   0.065  25.124  0.00  0.00    +0.025 A 
ATOM     28  C   UNL     1      -4.178  -0.314  23.969  0.00  0.00    +0.033 A 
BRANCH  28  13
ATOM      7  O   UNL     1      -3.636  -2.668  25.765  0.00  0.00    -0.276 OA
ATOM     13  N   UNL     1      -4.015  -1.665  23.666  0.00  0.00    -0.286 N 
ATOM     34  C   UNL     1      -3.761  -2.725  24.547  0.00  0.00    +0.214 C 
ATOM     37  C   UNL     1      -3.649  -4.043  23.821  0.00  0.00    +0.109 C 
ATOM     39  H   UNL     1      -4.089  -1.901  22.678  0.00  0.00    +0.155 HD
ENDBRANCH  28  13
ENDBRANCH   1  22
ENDBRANCH   8   1
ENDBRANCH  17   8
TORSDOF 8
ENDMDL
MODEL 6
REMARK VINA RESULT:       4.4      2.652      6.256
REMARK  Name = 11879578
REMARK  11 active torsions:
REMARK  status: ('A' for Active; 'I' for Inactive)
REMARK    1  A    between atoms: S_1  and  N_8
REMARK    2  A    between atoms: S_1  and  C_22
REMARK    3  A    between atoms: O_4  and  C_21
REMARK    4  A    between atoms: O_4  and  C_25
REMARK    5  A    between atoms: N_8  and  C_17
REMARK    6  A    between atoms: N_9  and  C_18
REMARK    7  A    between atoms: N_13  and  C_28
REMARK    8  A    between atoms: N_14  and  C_31
REMARK    9  A    between atoms: N_14  and  C_35
REMARK   10  A    between atoms: N_14  and  C_36
REMARK   11  A    between atoms: C_34  and  C_37
REMARK                            x       y       z     vdW  Elec       q    Type
REMARK                         _______ _______ _______ _____ _____    ______ ____
ROOT
ATOM      2  O   UNL     1      -5.559  -0.122  25.027  0.00  0.00    -0.370 OA
ATOM      3  O   UNL     1      -2.605   0.217  26.089  0.00  0.00    -0.370 OA
ATOM     15  C   UNL     1      -3.299   0.614  24.897  0.00  0.00    +0.170 C 
ATOM     16  C   UNL     1      -4.263  -0.499  24.531  0.00  0.00    +0.175 C 
ATOM     17  C   UNL     1      -4.187   1.801  25.183  0.00  0.00    +0.133 C 
ATOM     18  C   UNL     1      -3.755  -1.713  25.285  0.00  0.00    +0.171 C 
ATOM     19  C   UNL     1      -5.467   1.156  25.674  0.00  0.00    +0.183 C 
ATOM     20  C   UNL     1      -3.027  -1.098  26.475  0.00  0.00    +0.190 C 
ENDROOT
BRANCH  18   9
ATOM      9  N   UNL     1      -2.939  -2.594  24.446  0.00  0.00    -0.187 N 
ATOM     10  N   UNL     1      -3.440  -3.728  23.936  0.00  0.00    -0.041 NA
ATOM     11  N   UNL     1      -1.315  -3.478  23.312  0.00  0.00    -0.071 NA
ATOM     12  N   UNL     1      -2.443  -4.263  23.243  0.00  0.00    -0.020 NA
ATOM     21  C   UNL     1      -1.644  -2.450  24.060  0.00  0.00    +0.342 A 
BRANCH  21   4
ATOM      4  O   UNL     1      -0.866  -1.438  24.397  0.00  0.00    -0.423 OA
BRANCH   4  25
ATOM     25  C   UNL     1       0.129  -0.950  23.561  0.00  0.00    +0.134 A 
ATOM     29  C   UNL     1       1.463  -0.995  23.966  0.00  0.00    +0.069 A 
ATOM     30  C   UNL     1      -0.205  -0.414  22.318  0.00  0.00    +0.046 A 
ATOM     31  C   UNL     1       2.463  -0.504  23.127  0.00  0.00    +0.033 A 
ATOM     32  C   UNL     1       0.795   0.077  21.479  0.00  0.00    +0.005 A 
ATOM     33  C   UNL     1       2.129   0.032  21.883  0.00  0.00    +0.023 A 
BRANCH  31  14
ATOM     14  N   UNL     1       3.812  -0.548  23.537  0.00  0.00    -0.336 N 
ATOM     35  C   UNL     1       4.633   0.645  23.490  0.00  0.00    +0.129 C 
ATOM     36  C   UNL     1       4.399  -1.790  23.998  0.00  0.00    +0.129 C 
ENDBRANCH  31  14
ENDBRANCH   4  25
ENDBRANCH  21   4
ENDBRANCH  18   9
BRANCH  17   8
ATOM      8  N   UNL     1      -4.454   2.547  23.930  0.00  0.00    -0.182 NA
ATOM     38  H   UNL     1      -5.306   2.308  23.406  0.00  0.00    +0.148 HD
BRANCH   8   1
ATOM      1  S   UNL     1      -3.212   3.443  23.199  0.00  0.00    +0.059 S 
ATOM      5  O   UNL     1      -3.570   4.848  23.193  0.00  0.00    -0.153 OA
ATOM      6  O   UNL     1      -2.823   2.783  21.967  0.00  0.00    -0.153 OA
BRANCH   1  22
ATOM     22  C   UNL     1      -1.882   3.223  24.342  0.00  0.00    +0.105 A 
ATOM     23  C   UNL     1      -1.988   3.724  25.640  0.00  0.00    +0.030 A 
ATOM     24  C   UNL     1      -0.727   2.549  23.947  0.00  0.00    +0.030 A 
ATOM     26  C   UNL     1      -0.939   3.550  26.543  0.00  0.00    +0.025 A 
ATOM     27  C   UNL     1       0.323   2.375  24.850  0.00  0.00    +0.025 A 
ATOM     28  C   UNL     1       0.217   2.876  26.148  0.00  0.00    +0.033 A 
BRANCH  28  13
ATOM      7  O   UNL     1       0.191   2.606  29.146  0.00  0.00    -0.276 OA
ATOM     13  N   UNL     1       1.266   2.702  27.050  0.00  0.00    -0.286 N 
ATOM     34  C   UNL     1       1.197   2.583  28.445  0.00  0.00    +0.214 C 
ATOM     37  C   UNL     1       2.563   2.408  29.060  0.00  0.00    +0.109 C 
ATOM     39  H   UNL     1       2.194   2.659  26.634  0.00  0.00    +0.155 HD
ENDBRANCH  28  13
ENDBRANCH   1  22
ENDBRANCH   8   1
ENDBRANCH  17   8
TORSDOF 8
ENDMDL
MODEL 7
REMARK VINA RESULT:       4.6      2.777      7.059
REMARK  Name = 11879578
REMARK  11 active torsions:
REMARK  status: ('A' for Active; 'I' for Inactive)
REMARK    1  A    between atoms: S_1  and  N_8
REMARK    2  A    between atoms: S_1  and  C_22
REMARK    3  A    between atoms: O_4  and  C_21
REMARK    4  A    between atoms: O_4  and  C_25
REMARK    5  A    between atoms: N_8  and  C_17
REMARK    6  A    between atoms: N_9  and  C_18
REMARK    7  A    between atoms: N_13  and  C_28
REMARK    8  A    between atoms: N_14  and  C_31
REMARK    9  A    between atoms: N_14  and  C_35
REMARK   10  A    between atoms: N_14  and  C_36
REMARK   11  A    between atoms: C_34  and  C_37
REMARK                            x       y       z     vdW  Elec       q    Type
REMARK                         _______ _______ _______ _____ _____    ______ ____
ROOT
ATOM      2  O   UNL     1      -2.709  -0.801  23.569  0.00  0.00    -0.370 OA
ATOM      3  O   UNL     1      -3.096  -0.943  26.699  0.00  0.00    -0.370 OA
ATOM     15  C   UNL     1      -3.614  -0.103  25.657  0.00  0.00    +0.170 C 
ATOM     16  C   UNL     1      -2.502   0.124  24.651  0.00  0.00    +0.175 C 
ATOM     17  C   UNL     1      -4.681  -0.836  24.879  0.00  0.00    +0.133 C 
ATOM     18  C   UNL     1      -1.229  -0.231  25.396  0.00  0.00    +0.171 C 
ATOM     19  C   UNL     1      -3.881  -1.585  23.833  0.00  0.00    +0.183 C 
ATOM     20  C   UNL     1      -1.712  -1.222  26.448  0.00  0.00    +0.190 C 
ENDROOT
BRANCH  18   9
ATOM      9  N   UNL     1      -0.540   0.949  25.925  0.00  0.00    -0.187 N 
ATOM     10  N   UNL     1      -0.527   1.215  27.238  0.00  0.00    -0.041 NA
ATOM     11  N   UNL     1       0.601   2.782  26.126  0.00  0.00    -0.071 NA
ATOM     12  N   UNL     1       0.173   2.336  27.355  0.00  0.00    -0.020 NA
ATOM     21  C   UNL     1       0.150   1.909  25.255  0.00  0.00    +0.342 A 
BRANCH  21   4
ATOM      4  O   UNL     1       0.321   1.938  23.946  0.00  0.00    -0.423 OA
BRANCH   4  25
ATOM     25  C   UNL     1       1.123   1.023  23.278  0.00  0.00    +0.134 A 
ATOM     29  C   UNL     1       2.443   0.827  23.682  0.00  0.00    +0.069 A 
ATOM     30  C   UNL     1       0.609   0.301  22.201  0.00  0.00    +0.046 A 
ATOM     31  C   UNL     1       3.249  -0.092  23.010  0.00  0.00    +0.033 A 
ATOM     32  C   UNL     1       1.415  -0.618  21.529  0.00  0.00    +0.005 A 
ATOM     33  C   UNL     1       2.736  -0.814  21.933  0.00  0.00    +0.023 A 
BRANCH  31  14
ATOM     14  N   UNL     1       4.585  -0.289  23.419  0.00  0.00    -0.336 N 
ATOM     35  C   UNL     1       5.045  -1.605  23.814  0.00  0.00    +0.129 C 
ATOM     36  C   UNL     1       5.511   0.824  23.460  0.00  0.00    +0.129 C 
ENDBRANCH  31  14
ENDBRANCH   4  25
ENDBRANCH  21   4
ENDBRANCH  18   9
BRANCH  17   8
ATOM      8  N   UNL     1      -5.581   0.137  24.215  0.00  0.00    -0.182 NA
ATOM     38  H   UNL     1      -5.604   0.141  23.188  0.00  0.00    +0.148 HD
BRANCH   8   1
ATOM      1  S   UNL     1      -6.216   1.439  25.100  0.00  0.00    +0.059 S 
ATOM      5  O   UNL     1      -6.479   1.015  26.462  0.00  0.00    -0.153 OA
ATOM      6  O   UNL     1      -7.262   2.069  24.316  0.00  0.00    -0.153 OA
BRANCH   1  22
ATOM     22  C   UNL     1      -4.850   2.560  25.131  0.00  0.00    +0.105 A 
ATOM     23  C   UNL     1      -4.185   2.883  23.949  0.00  0.00    +0.030 A 
ATOM     24  C   UNL     1      -4.439   3.123  26.339  0.00  0.00    +0.030 A 
ATOM     26  C   UNL     1      -3.108   3.768  23.974  0.00  0.00    +0.025 A 
ATOM     27  C   UNL     1      -3.361   4.009  26.364  0.00  0.00    +0.025 A 
ATOM     28  C   UNL     1      -2.695   4.331  25.181  0.00  0.00    +0.033 A 
BRANCH  28  13
ATOM      7  O   UNL     1      -0.318   4.571  23.349  0.00  0.00    -0.276 OA
ATOM     13  N   UNL     1      -1.618   5.217  25.206  0.00  0.00    -0.286 N 
ATOM     34  C   UNL     1      -0.531   5.283  24.324  0.00  0.00    +0.214 C 
ATOM     37  C   UNL     1       0.426   6.388  24.696  0.00  0.00    +0.109 C 
ATOM     39  H   UNL     1      -1.631   5.894  25.966  0.00  0.00    +0.155 HD
ENDBRANCH  28  13
ENDBRANCH   1  22
ENDBRANCH   8   1
ENDBRANCH  17   8
TORSDOF 8
ENDMDL
MODEL 8
REMARK VINA RESULT:       5.0      2.533      6.604
REMARK  Name = 11879578
REMARK  11 active torsions:
REMARK  status: ('A' for Active; 'I' for Inactive)
REMARK    1  A    between atoms: S_1  and  N_8
REMARK    2  A    between atoms: S_1  and  C_22
REMARK    3  A    between atoms: O_4  and  C_21
REMARK    4  A    between atoms: O_4  and  C_25
REMARK    5  A    between atoms: N_8  and  C_17
REMARK    6  A    between atoms: N_9  and  C_18
REMARK    7  A    between atoms: N_13  and  C_28
REMARK    8  A    between atoms: N_14  and  C_31
REMARK    9  A    between atoms: N_14  and  C_35
REMARK   10  A    between atoms: N_14  and  C_36
REMARK   11  A    between atoms: C_34  and  C_37
REMARK                            x       y       z     vdW  Elec       q    Type
REMARK                         _______ _______ _______ _____ _____    ______ ____
ROOT
ATOM      2  O   UNL     1      -3.481   1.540  23.287  0.00  0.00    -0.370 OA
ATOM      3  O   UNL     1      -5.188  -0.749  24.634  0.00  0.00    -0.370 OA
ATOM     15  C   UNL     1      -4.524   0.429  25.115  0.00  0.00    +0.170 C 
ATOM     16  C   UNL     1      -3.234   0.585  24.334  0.00  0.00    +0.175 C 
ATOM     17  C   UNL     1      -5.327   1.659  24.764  0.00  0.00    +0.133 C 
ATOM     18  C   UNL     1      -2.979  -0.785  23.732  0.00  0.00    +0.171 C 
ATOM     19  C   UNL     1      -4.839   1.994  23.369  0.00  0.00    +0.183 C 
ATOM     20  C   UNL     1      -4.378  -1.381  23.633  0.00  0.00    +0.190 C 
ENDROOT
BRANCH  18   9
ATOM      9  N   UNL     1      -2.023  -1.572  24.514  0.00  0.00    -0.187 N 
ATOM     10  N   UNL     1      -2.362  -2.760  25.033  0.00  0.00    -0.041 NA
ATOM     11  N   UNL     1      -0.250  -2.269  25.550  0.00  0.00    -0.071 NA
ATOM     12  N   UNL     1      -1.273  -3.182  25.665  0.00  0.00    -0.020 NA
ATOM     21  C   UNL     1      -0.734  -1.282  24.834  0.00  0.00    +0.342 A 
BRANCH  21   4
ATOM      4  O   UNL     1      -0.099  -0.182  24.474  0.00  0.00    -0.423 OA
BRANCH   4  25
ATOM     25  C   UNL     1       0.927  -0.184  23.539  0.00  0.00    +0.134 A 
ATOM     29  C   UNL     1       2.256  -0.216  23.963  0.00  0.00    +0.069 A 
ATOM     30  C   UNL     1       0.630  -0.151  22.177  0.00  0.00    +0.046 A 
ATOM     31  C   UNL     1       3.287  -0.218  23.024  0.00  0.00    +0.033 A 
ATOM     32  C   UNL     1       1.662  -0.153  21.238  0.00  0.00    +0.005 A 
ATOM     33  C   UNL     1       2.990  -0.186  21.661  0.00  0.00    +0.023 A 
BRANCH  31  14
ATOM     14  N   UNL     1       4.631  -0.250  23.452  0.00  0.00    -0.336 N 
ATOM     35  C   UNL     1       5.215  -1.481  23.944  0.00  0.00    +0.129 C 
ATOM     36  C   UNL     1       5.440   0.951  23.418  0.00  0.00    +0.129 C 
ENDBRANCH  31  14
ENDBRANCH   4  25
ENDBRANCH  21   4
ENDBRANCH  18   9
BRANCH  17   8
ATOM      8  N   UNL     1      -4.988   2.766  25.689  0.00  0.00    -0.182 NA
ATOM     38  H   UNL     1      -5.531   2.845  26.558  0.00  0.00    +0.148 HD
BRANCH   8   1
ATOM      1  S   UNL     1      -4.040   4.063  25.142  0.00  0.00    +0.059 S 
ATOM      5  O   UNL     1      -4.475   5.286  25.790  0.00  0.00    -0.153 OA
ATOM      6  O   UNL     1      -3.947   3.996  23.697  0.00  0.00    -0.153 OA
BRANCH   1  22
ATOM     22  C   UNL     1      -2.446   3.646  25.781  0.00  0.00    +0.105 A 
ATOM     23  C   UNL     1      -1.337   3.631  24.935  0.00  0.00    +0.030 A 
ATOM     24  C   UNL     1      -2.296   3.333  27.132  0.00  0.00    +0.030 A 
ATOM     26  C   UNL     1      -0.079   3.302  25.439  0.00  0.00    +0.025 A 
ATOM     27  C   UNL     1      -1.038   3.004  27.637  0.00  0.00    +0.025 A 
ATOM     28  C   UNL     1       0.071   2.988  26.790  0.00  0.00    +0.033 A 
BRANCH  28  13
ATOM      7  O   UNL     1       1.028   2.719  29.632  0.00  0.00    -0.276 OA
ATOM     13  N   UNL     1       1.329   2.660  27.295  0.00  0.00    -0.286 N 
ATOM     34  C   UNL     1       1.722   2.550  28.635  0.00  0.00    +0.214 C 
ATOM     37  C   UNL     1       3.178   2.175  28.763  0.00  0.00    +0.109 C 
ATOM     39  H   UNL     1       2.045   2.483  26.593  0.00  0.00    +0.155 HD
ENDBRANCH  28  13
ENDBRANCH   1  22
ENDBRANCH   8   1
ENDBRANCH  17   8
TORSDOF 8
ENDMDL
MODEL 9
REMARK VINA RESULT:       5.0      1.650      3.712
REMARK  Name = 11879578
REMARK  11 active torsions:
REMARK  status: ('A' for Active; 'I' for Inactive)
REMARK    1  A    between atoms: S_1  and  N_8
REMARK    2  A    between atoms: S_1  and  C_22
REMARK    3  A    between atoms: O_4  and  C_21
REMARK    4  A    between atoms: O_4  and  C_25
REMARK    5  A    between atoms: N_8  and  C_17
REMARK    6  A    between atoms: N_9  and  C_18
REMARK    7  A    between atoms: N_13  and  C_28
REMARK    8  A    between atoms: N_14  and  C_31
REMARK    9  A    between atoms: N_14  and  C_35
REMARK   10  A    between atoms: N_14  and  C_36
REMARK   11  A    between atoms: C_34  and  C_37
REMARK                            x       y       z     vdW  Elec       q    Type
REMARK                         _______ _______ _______ _____ _____    ______ ____
ROOT
ATOM      2  O   UNL     1      -1.994  -1.412  26.208  0.00  0.00    -0.370 OA
ATOM      3  O   UNL     1      -3.278  -1.441  23.324  0.00  0.00    -0.370 OA
ATOM     15  C   UNL     1      -2.168  -0.759  23.925  0.00  0.00    +0.170 C 
ATOM     16  C   UNL     1      -2.558  -0.406  25.347  0.00  0.00    +0.175 C 
ATOM     17  C   UNL     1      -0.999  -1.703  24.079  0.00  0.00    +0.133 C 
ATOM     18  C   UNL     1      -4.072  -0.501  25.368  0.00  0.00    +0.171 C 
ATOM     19  C   UNL     1      -1.273  -2.365  25.414  0.00  0.00    +0.183 C 
ATOM     20  C   UNL     1      -4.368  -1.499  24.254  0.00  0.00    +0.190 C 
ENDROOT
BRANCH  18   9
ATOM      9  N   UNL     1      -4.719   0.805  25.218  0.00  0.00    -0.187 N 
ATOM     10  N   UNL     1      -5.937   1.039  25.726  0.00  0.00    -0.041 NA
ATOM     11  N   UNL     1      -5.166   2.864  24.703  0.00  0.00    -0.071 NA
ATOM     12  N   UNL     1      -6.205   2.300  25.409  0.00  0.00    -0.020 NA
ATOM     21  C   UNL     1      -4.257   1.922  24.597  0.00  0.00    +0.342 A 
BRANCH  21   4
ATOM      4  O   UNL     1      -3.088   2.019  23.993  0.00  0.00    -0.423 OA
BRANCH   4  25
ATOM     25  C   UNL     1      -2.024   2.727  24.534  0.00  0.00    +0.134 A 
ATOM     29  C   UNL     1      -1.308   2.198  25.608  0.00  0.00    +0.069 A 
ATOM     30  C   UNL     1      -1.672   3.969  24.006  0.00  0.00    +0.046 A 
ATOM     31  C   UNL     1      -0.239   2.910  26.152  0.00  0.00    +0.033 A 
ATOM     32  C   UNL     1      -0.603   4.681  24.551  0.00  0.00    +0.005 A 
ATOM     33  C   UNL     1       0.113   4.152  25.624  0.00  0.00    +0.023 A 
BRANCH  31  14
ATOM     14  N   UNL     1       0.484   2.375  27.239  0.00  0.00    -0.336 N 
ATOM     35  C   UNL     1       0.084   1.119  27.839  0.00  0.00    +0.129 C 
ATOM     36  C   UNL     1       1.629   3.082  27.777  0.00  0.00    +0.129 C 
ENDBRANCH  31  14
ENDBRANCH   4  25
ENDBRANCH  21   4
ENDBRANCH  18   9
BRANCH  17   8
ATOM      8  N   UNL     1       0.265  -0.933  24.156  0.00  0.00    -0.182 NA
ATOM     38  H   UNL     1       0.669  -0.770  25.087  0.00  0.00    +0.148 HD
BRANCH   8   1
ATOM      1  S   UNL     1       0.784  -0.026  22.818  0.00  0.00    +0.059 S 
ATOM      5  O   UNL     1       0.271   1.327  22.924  0.00  0.00    -0.153 OA
ATOM      6  O   UNL     1       0.557  -0.801  21.613  0.00  0.00    -0.153 OA
BRANCH   1  22
ATOM     22  C   UNL     1       2.532   0.032  23.071  0.00  0.00    +0.105 A 
ATOM     23  C   UNL     1       3.191  -1.059  23.637  0.00  0.00    +0.030 A 
ATOM     24  C   UNL     1       3.253   1.168  22.703  0.00  0.00    +0.030 A 
ATOM     26  C   UNL     1       4.572  -1.014  23.836  0.00  0.00    +0.025 A 
ATOM     27  C   UNL     1       4.633   1.213  22.902  0.00  0.00    +0.025 A 
ATOM     28  C   UNL     1       5.292   0.123  23.469  0.00  0.00    +0.033 A 
BRANCH  28  13
ATOM      7  O   UNL     1       7.529  -1.211  21.958  0.00  0.00    -0.276 OA
ATOM     13  N   UNL     1       6.672   0.168  23.667  0.00  0.00    -0.286 N 
ATOM     34  C   UNL     1       7.674  -0.478  22.930  0.00  0.00    +0.214 C 
ATOM     37  C   UNL     1       9.050  -0.173  23.468  0.00  0.00    +0.109 C 
ATOM     39  H   UNL     1       6.979   0.743  24.449  0.00  0.00    +0.155 HD
ENDBRANCH  28  13
ENDBRANCH   1  22
ENDBRANCH   8   1
ENDBRANCH  17   8
TORSDOF 8
ENDMDL
MODEL 10
REMARK VINA RESULT:       5.5      2.702      6.571
REMARK  Name = 11879578
REMARK  11 active torsions:
REMARK  status: ('A' for Active; 'I' for Inactive)
REMARK    1  A    between atoms: S_1  and  N_8
REMARK    2  A    between atoms: S_1  and  C_22
REMARK    3  A    between atoms: O_4  and  C_21
REMARK    4  A    between atoms: O_4  and  C_25
REMARK    5  A    between atoms: N_8  and  C_17
REMARK    6  A    between atoms: N_9  and  C_18
REMARK    7  A    between atoms: N_13  and  C_28
REMARK    8  A    between atoms: N_14  and  C_31
REMARK    9  A    between atoms: N_14  and  C_35
REMARK   10  A    between atoms: N_14  and  C_36
REMARK   11  A    between atoms: C_34  and  C_37
REMARK                            x       y       z     vdW  Elec       q    Type
REMARK                         _______ _______ _______ _____ _____    ______ ____
ROOT
ATOM      2  O   UNL     1      -3.439   5.201  25.841  0.00  0.00    -0.370 OA
ATOM      3  O   UNL     1      -2.724   3.078  23.617  0.00  0.00    -0.370 OA
ATOM     15  C   UNL     1      -3.450   3.035  24.854  0.00  0.00    +0.170 C 
ATOM     16  C   UNL     1      -2.739   3.944  25.838  0.00  0.00    +0.175 C 
ATOM     17  C   UNL     1      -4.813   3.662  24.679  0.00  0.00    +0.133 C 
ATOM     18  C   UNL     1      -1.349   4.129  25.259  0.00  0.00    +0.171 C 
ATOM     19  C   UNL     1      -4.543   5.131  24.927  0.00  0.00    +0.183 C 
ATOM     20  C   UNL     1      -1.569   3.914  23.766  0.00  0.00    +0.190 C 
ENDROOT
BRANCH  18   9
ATOM      9  N   UNL     1      -0.361   3.240  25.875  0.00  0.00    -0.187 N 
ATOM     10  N   UNL     1       0.297   3.598  26.986  0.00  0.00    -0.041 NA
ATOM     11  N   UNL     1       0.948   1.571  26.326  0.00  0.00    -0.071 NA
ATOM     12  N   UNL     1       1.096   2.573  27.258  0.00  0.00    -0.020 NA
ATOM     21  C   UNL     1       0.041   2.004  25.481  0.00  0.00    +0.342 A 
BRANCH  21   4
ATOM      4  O   UNL     1      -0.416   1.367  24.419  0.00  0.00    -0.423 OA
BRANCH   4  25
ATOM     25  C   UNL     1       0.418   0.707  23.527  0.00  0.00    +0.134 A 
ATOM     29  C   UNL     1       1.781   0.593  23.801  0.00  0.00    +0.069 A 
ATOM     30  C   UNL     1      -0.105   0.159  22.356  0.00  0.00    +0.046 A 
ATOM     31  C   UNL     1       2.620  -0.069  22.905  0.00  0.00    +0.033 A 
ATOM     32  C   UNL     1       0.734  -0.503  21.460  0.00  0.00    +0.005 A 
ATOM     33  C   UNL     1       2.097  -0.617  21.734  0.00  0.00    +0.023 A 
BRANCH  31  14
ATOM     14  N   UNL     1       3.999  -0.182  23.182  0.00  0.00    -0.336 N 
ATOM     35  C   UNL     1       4.896   0.922  22.907  0.00  0.00    +0.129 C 
ATOM     36  C   UNL     1       4.538  -1.409  23.733  0.00  0.00    +0.129 C 
ENDBRANCH  31  14
ENDBRANCH   4  25
ENDBRANCH  21   4
ENDBRANCH  18   9
BRANCH  17   8
ATOM      8  N   UNL     1      -5.742   3.145  25.712  0.00  0.00    -0.182 NA
ATOM     38  H   UNL     1      -5.722   3.591  26.638  0.00  0.00    +0.148 HD
BRANCH   8   1
ATOM      1  S   UNL     1      -6.494   1.639  25.495  0.00  0.00    +0.059 S 
ATOM      5  O   UNL     1      -7.256   1.653  24.261  0.00  0.00    -0.153 OA
ATOM      6  O   UNL     1      -7.128   1.250  26.740  0.00  0.00    -0.153 OA
BRANCH   1  22
ATOM     22  C   UNL     1      -5.106   0.568  25.267  0.00  0.00    +0.105 A 
ATOM     23  C   UNL     1      -4.702   0.214  23.980  0.00  0.00    +0.030 A 
ATOM     24  C   UNL     1      -4.415   0.077  26.374  0.00  0.00    +0.030 A 
ATOM     26  C   UNL     1      -3.607  -0.631  23.800  0.00  0.00    +0.025 A 
ATOM     27  C   UNL     1      -3.320  -0.768  26.194  0.00  0.00    +0.025 A 
ATOM     28  C   UNL     1      -2.916  -1.122  24.907  0.00  0.00    +0.033 A 
BRANCH  28  13
ATOM      7  O   UNL     1      -0.315  -1.298  26.415  0.00  0.00    -0.276 OA
ATOM     13  N   UNL     1      -1.820  -1.966  24.727  0.00  0.00    -0.286 N 
ATOM     34  C   UNL     1      -0.627  -2.004  25.461  0.00  0.00    +0.214 C 
ATOM     37  C   UNL     1       0.313  -3.066  24.948  0.00  0.00    +0.109 C 
ATOM     39  H   UNL     1      -1.907  -2.633  23.963  0.00  0.00    +0.155 HD
ENDBRANCH  28  13
ENDBRANCH   1  22
ENDBRANCH   8   1
ENDBRANCH  17   8
TORSDOF 8
ENDMDL
