MODEL 1
REMARK VINA RESULT:      -2.7      0.000      0.000
REMARK  Name = 40533400
REMARK  3 active torsions:
REMARK  status: ('A' for Active; 'I' for Inactive)
REMARK    1  A    between atoms: N_3  and  C_13
REMARK    2  A    between atoms: C_13  and  C_18
REMARK    3  A    between atoms: C_16  and  C_19
REMARK                            x       y       z     vdW  Elec       q    Type
REMARK                         _______ _______ _______ _____ _____    ______ ____
ROOT
ATOM      2  O   UNL     1      -4.942  -7.476  10.982  0.00  0.00    -0.267 OA
ATOM      3  N   UNL     1      -9.477  -9.607  10.792  0.00  0.00    -0.294 NA
ATOM      4  N   UNL     1      -6.607  -8.615   9.815  0.00  0.00    -0.311 N 
ATOM      6  C   UNL     1      -8.926  -7.612   9.377  0.00  0.00    +0.024 C 
ATOM      7  C   UNL     1      -8.398  -9.856   8.553  0.00  0.00    +0.050 C 
ATOM      8  C   UNL     1      -8.902  -8.479   8.127  0.00  0.00    +0.017 C 
ATOM      9  C   UNL     1      -9.859  -8.235  10.437  0.00  0.00    +0.090 C 
ATOM     10  C   UNL     1      -9.363 -10.458   9.597  0.00  0.00    +0.094 C 
ATOM     11  C   UNL     1      -7.488  -7.439   9.887  0.00  0.00    +0.130 C 
ATOM     12  C   UNL     1      -6.992  -9.763   9.118  0.00  0.00    +0.026 A 
ATOM     14  C   UNL     1      -6.131 -10.781   8.968  0.00  0.00    +0.022 A 
ATOM     15  C   UNL     1      -5.328  -8.485  10.390  0.00  0.00    +0.259 A 
ATOM     16  C   UNL     1      -4.396  -9.657  10.236  0.00  0.00    +0.048 A 
ATOM     17  C   UNL     1      -4.816 -10.725   9.543  0.00  0.00    +0.015 A 
ENDROOT
BRANCH  16  19
ATOM      5  N   UNL     1      -1.544 -10.463  12.542  0.00  0.00    -0.263 NA
ATOM     19  C   UNL     1      -3.051  -9.647  10.836  0.00  0.00    +0.005 A 
ATOM     23  C   UNL     1      -2.037  -8.855  10.309  0.00  0.00    +0.011 A 
ATOM     24  C   UNL     1      -2.756 -10.426  11.943  0.00  0.00    +0.119 A 
ATOM     27  C   UNL     1      -0.777  -8.865  10.897  0.00  0.00    +0.020 A 
ATOM     30  C   UNL     1      -0.584  -9.679  12.002  0.00  0.00    +0.111 A 
ENDBRANCH  16  19
BRANCH   3  13
ATOM     13  C   UNL     1     -10.415 -10.179  11.755  0.00  0.00    +0.158 C 
BRANCH  13  18
ATOM      1  O   UNL     1      -8.772 -10.187  13.548  0.00  0.00    -0.458 OA
ATOM     18  C   UNL     1     -10.033  -9.849  13.174  0.00  0.00    +0.120 A 
ATOM     20  C   UNL     1     -10.709  -9.258  14.215  0.00  0.00    +0.054 A 
ATOM     21  C   UNL     1      -9.808  -9.224  15.311  0.00  0.00    +0.020 A 
ATOM     22  C   UNL     1      -8.631  -9.807  14.850  0.00  0.00    +0.135 A 
ATOM     25  C   UNL     1      -9.854  -8.768  16.640  0.00  0.00    +0.011 A 
ATOM     26  C   UNL     1      -7.483  -9.969  15.624  0.00  0.00    +0.047 A 
ATOM     28  C   UNL     1      -8.716  -8.918  17.443  0.00  0.00    +0.001 A 
ATOM     29  C   UNL     1      -7.552  -9.508  16.942  0.00  0.00    +0.004 A 
ENDBRANCH  13  18
ENDBRANCH   3  13
TORSDOF 3
ENDMDL
