MODEL 1
REMARK VINA RESULT:      -4.7      0.000      0.000
REMARK  Name = 25338259
REMARK  4 active torsions:
REMARK  status: ('A' for Active; 'I' for Inactive)
REMARK    1  A    between atoms: O_4  and  C_10
REMARK    2  A    between atoms: N_6  and  C_9
REMARK    3  A    between atoms: N_7  and  C_11
REMARK    4  A    between atoms: N_8  and  C_20
REMARK                            x       y       z     vdW  Elec       q    Type
REMARK                         _______ _______ _______ _____ _____    ______ ____
ROOT
ATOM      2  O   UNL     1      -1.916   1.573  25.773  0.00  0.00    -0.342 OA
ATOM      3  O   UNL     1      -3.753   2.981  25.626  0.00  0.00    -0.347 OA
ATOM      9  C   UNL     1      -3.766   0.910  24.375  0.00  0.00    +0.143 C 
ATOM     10  C   UNL     1      -3.125   1.615  23.158  0.00  0.00    +0.159 C 
ATOM     11  C   UNL     1      -1.722   2.192  23.451  0.00  0.00    +0.136 C 
ATOM     12  C   UNL     1      -3.346   1.603  25.684  0.00  0.00    +0.270 C 
ATOM     13  C   UNL     1      -1.548   2.655  24.911  0.00  0.00    +0.170 C 
ATOM     14  C   UNL     1      -2.546   3.709  25.351  0.00  0.00    +0.196 C 
ENDROOT
BRANCH  11   7
ATOM      5  O   UNL     1       1.059   2.326  24.124  0.00  0.00    -0.252 OA
ATOM      7  N   UNL     1      -0.704   1.218  23.120  0.00  0.00    -0.291 N 
ATOM      8  N   UNL     1       1.382   0.272  23.035  0.00  0.00    -0.269 N 
ATOM     19  C   UNL     1       0.635   1.362  23.490  0.00  0.00    +0.304 C 
ATOM     26  H   UNL     1      -0.962   0.434  22.528  0.00  0.00    +0.151 HD
ATOM     28  H   UNL     1       0.875  -0.446  22.522  0.00  0.00    +0.156 HD
BRANCH   8  20
ATOM      1  F   UNL     1       6.811  -0.645  23.684  0.00  0.00    -0.205 F 
ATOM     20  C   UNL     1       2.767   0.038  23.201  0.00  0.00    +0.035 A 
ATOM     21  C   UNL     1       3.685   1.042  22.893  0.00  0.00    +0.026 A 
ATOM     22  C   UNL     1       3.215  -1.197  23.671  0.00  0.00    +0.026 A 
ATOM     23  C   UNL     1       5.051   0.811  23.056  0.00  0.00    +0.040 A 
ATOM     24  C   UNL     1       4.580  -1.427  23.835  0.00  0.00    +0.040 A 
ATOM     25  C   UNL     1       5.499  -0.423  23.526  0.00  0.00    +0.124 A 
ENDBRANCH   8  20
ENDBRANCH  11   7
BRANCH   9   6
ATOM      6  N   UNL     1      -3.368  -0.490  24.410  0.00  0.00    -0.293 NA
ATOM     15  C   UNL     1      -3.419  -1.051  25.760  0.00  0.00    +0.085 C 
ATOM     16  C   UNL     1      -4.248  -1.341  23.611  0.00  0.00    +0.085 C 
ATOM     17  C   UNL     1      -3.357  -2.551  25.508  0.00  0.00    +0.017 C 
ATOM     18  C   UNL     1      -3.900  -2.740  24.094  0.00  0.00    +0.017 C 
ENDBRANCH   9   6
BRANCH  10   4
ATOM      4  O   UNL     1      -3.992   2.688  22.769  0.00  0.00    -0.388 OA
ATOM     27  H   UNL     1      -3.751   2.949  21.863  0.00  0.00    +0.210 HD
ENDBRANCH  10   4
TORSDOF 4
ENDMDL
MODEL 2
REMARK VINA RESULT:      -4.0      1.721      3.669
REMARK  Name = 25338259
REMARK  4 active torsions:
REMARK  status: ('A' for Active; 'I' for Inactive)
REMARK    1  A    between atoms: O_4  and  C_10
REMARK    2  A    between atoms: N_6  and  C_9
REMARK    3  A    between atoms: N_7  and  C_11
REMARK    4  A    between atoms: N_8  and  C_20
REMARK                            x       y       z     vdW  Elec       q    Type
REMARK                         _______ _______ _______ _____ _____    ______ ____
ROOT
ATOM      2  O   UNL     1      -3.637   0.752  23.165  0.00  0.00    -0.342 OA
ATOM      3  O   UNL     1      -5.038   0.012  24.858  0.00  0.00    -0.347 OA
ATOM      9  C   UNL     1      -3.036   1.233  25.451  0.00  0.00    +0.143 C 
ATOM     10  C   UNL     1      -2.232  -0.085  25.536  0.00  0.00    +0.159 C 
ATOM     11  C   UNL     1      -2.158  -0.849  24.196  0.00  0.00    +0.136 C 
ATOM     12  C   UNL     1      -4.191   1.095  24.441  0.00  0.00    +0.270 C 
ATOM     13  C   UNL     1      -3.408  -0.652  23.315  0.00  0.00    +0.170 C 
ATOM     14  C   UNL     1      -4.706  -1.073  23.978  0.00  0.00    +0.196 C 
ENDROOT
BRANCH  11   7
ATOM      5  O   UNL     1       0.562  -1.139  25.047  0.00  0.00    -0.252 OA
ATOM      7  N   UNL     1      -0.975  -0.453  23.462  0.00  0.00    -0.291 N 
ATOM      8  N   UNL     1       1.257  -0.158  23.031  0.00  0.00    -0.269 N 
ATOM     19  C   UNL     1       0.320  -0.633  23.954  0.00  0.00    +0.304 C 
ATOM     26  H   UNL     1      -1.096   0.046  22.586  0.00  0.00    +0.151 HD
ATOM     28  H   UNL     1       0.889   0.234  22.168  0.00  0.00    +0.156 HD
BRANCH   8  20
ATOM      1  F   UNL     1       6.782  -0.146  23.490  0.00  0.00    -0.205 F 
ATOM     20  C   UNL     1       2.667  -0.155  23.148  0.00  0.00    +0.035 A 
ATOM     21  C   UNL     1       3.330  -1.291  23.614  0.00  0.00    +0.026 A 
ATOM     22  C   UNL     1       3.393   0.984  22.799  0.00  0.00    +0.026 A 
ATOM     23  C   UNL     1       4.720  -1.287  23.729  0.00  0.00    +0.040 A 
ATOM     24  C   UNL     1       4.783   0.986  22.914  0.00  0.00    +0.040 A 
ATOM     25  C   UNL     1       5.447  -0.149  23.380  0.00  0.00    +0.124 A 
ENDBRANCH   8  20
ENDBRANCH  11   7
BRANCH   9   6
ATOM      6  N   UNL     1      -2.162   2.327  25.053  0.00  0.00    -0.293 NA
ATOM     15  C   UNL     1      -2.758   3.638  25.313  0.00  0.00    +0.085 C 
ATOM     16  C   UNL     1      -0.900   2.330  25.791  0.00  0.00    +0.085 C 
ATOM     17  C   UNL     1      -1.568   4.581  25.202  0.00  0.00    +0.017 C 
ATOM     18  C   UNL     1      -0.347   3.720  25.514  0.00  0.00    +0.017 C 
ENDBRANCH   9   6
BRANCH  10   4
ATOM      4  O   UNL     1      -2.870  -0.923  26.509  0.00  0.00    -0.388 OA
ATOM     27  H   UNL     1      -3.788  -1.064  26.220  0.00  0.00    +0.210 HD
ENDBRANCH  10   4
TORSDOF 4
ENDMDL
MODEL 3
REMARK VINA RESULT:      -3.5     15.262     18.394
REMARK  Name = 25338259
REMARK  4 active torsions:
REMARK  status: ('A' for Active; 'I' for Inactive)
REMARK    1  A    between atoms: O_4  and  C_10
REMARK    2  A    between atoms: N_6  and  C_9
REMARK    3  A    between atoms: N_7  and  C_11
REMARK    4  A    between atoms: N_8  and  C_20
REMARK                            x       y       z     vdW  Elec       q    Type
REMARK                         _______ _______ _______ _____ _____    ______ ____
ROOT
ATOM      2  O   UNL     1      14.110  -5.922  29.882  0.00  0.00    -0.342 OA
ATOM      3  O   UNL     1      16.199  -5.291  30.668  0.00  0.00    -0.347 OA
ATOM      9  C   UNL     1      15.786  -7.627  30.197  0.00  0.00    +0.143 C 
ATOM     10  C   UNL     1      15.307  -7.858  31.648  0.00  0.00    +0.159 C 
ATOM     11  C   UNL     1      14.053  -7.036  32.020  0.00  0.00    +0.136 C 
ATOM     12  C   UNL     1      15.516  -6.175  29.764  0.00  0.00    +0.270 C 
ATOM     13  C   UNL     1      13.976  -5.682  31.286  0.00  0.00    +0.170 C 
ATOM     14  C   UNL     1      15.169  -4.777  31.527  0.00  0.00    +0.196 C 
ENDROOT
BRANCH  11   7
ATOM      5  O   UNL     1      11.391  -6.409  32.872  0.00  0.00    -0.252 OA
ATOM      7  N   UNL     1      12.857  -7.805  31.756  0.00  0.00    -0.291 N 
ATOM      8  N   UNL     1      10.632  -8.357  31.806  0.00  0.00    -0.269 N 
ATOM     19  C   UNL     1      11.592  -7.425  32.211  0.00  0.00    +0.304 C 
ATOM     26  H   UNL     1      12.954  -8.700  31.285  0.00  0.00    +0.151 HD
ATOM     28  H   UNL     1      10.967  -9.148  31.260  0.00  0.00    +0.156 HD
BRANCH   8  20
ATOM      1  F   UNL     1       5.180  -8.286  32.806  0.00  0.00    -0.205 F 
ATOM     20  C   UNL     1       9.242  -8.339  32.061  0.00  0.00    +0.035 A 
ATOM     21  C   UNL     1       8.650  -7.207  32.622  0.00  0.00    +0.026 A 
ATOM     22  C   UNL     1       8.461  -9.454  31.753  0.00  0.00    +0.026 A 
ATOM     23  C   UNL     1       7.279  -7.189  32.873  0.00  0.00    +0.040 A 
ATOM     24  C   UNL     1       7.089  -9.435  32.004  0.00  0.00    +0.040 A 
ATOM     25  C   UNL     1       6.498  -8.303  32.565  0.00  0.00    +0.124 A 
ENDBRANCH   8  20
ENDBRANCH  11   7
BRANCH   9   6
ATOM      6  N   UNL     1      15.107  -8.545  29.294  0.00  0.00    -0.293 NA
ATOM     15  C   UNL     1      15.767  -8.636  27.992  0.00  0.00    +0.085 C 
ATOM     16  C   UNL     1      15.082  -9.914  29.804  0.00  0.00    +0.085 C 
ATOM     17  C   UNL     1      15.153  -9.890  27.386  0.00  0.00    +0.017 C 
ATOM     18  C   UNL     1      14.700 -10.729  28.577  0.00  0.00    +0.017 C 
ENDBRANCH   9   6
BRANCH  10   4
ATOM      4  O   UNL     1      16.378  -7.486  32.526  0.00  0.00    -0.388 OA
ATOM     27  H   UNL     1      17.213  -7.751  32.102  0.00  0.00    +0.210 HD
ENDBRANCH  10   4
TORSDOF 4
ENDMDL
