MODEL 1
REMARK VINA RESULT:      -0.3      0.000      0.000
REMARK  Name = 11885051
REMARK  13 active torsions:
REMARK  status: ('A' for Active; 'I' for Inactive)
REMARK    1  A    between atoms: O_2  and  C_14
REMARK    2  A    between atoms: O_3  and  C_19
REMARK    3  A    between atoms: O_4  and  C_23
REMARK    4  A    between atoms: C_9  and  C_17
REMARK    5  A    between atoms: C_11  and  C_19
REMARK    6  A    between atoms: C_11  and  C_20
REMARK    7  A    between atoms: C_12  and  C_22
REMARK    8  A    between atoms: C_22  and  C_23
REMARK    9  A    between atoms: C_25  and  C_26
REMARK   10  A    between atoms: C_26  and  C_27
REMARK   11  A    between atoms: C_27  and  C_28
REMARK   12  A    between atoms: C_27  and  C_29
REMARK   13  A    between atoms: C_27  and  C_30
REMARK                            x       y       z     vdW  Elec       q    Type
REMARK                         _______ _______ _______ _____ _____    ______ ____
ROOT
ATOM      1  S   UNL     1       0.578   2.724  24.239  0.00  0.00    -0.057 S 
ATOM      6  O   UNL     1       2.689  -1.014  22.426  0.00  0.00    -0.275 OA
ATOM      7  N   UNL     1       0.234   0.278  23.472  0.00  0.00    -0.229 NA
ATOM      8  N   UNL     1       2.456   1.184  23.249  0.00  0.00    -0.265 N 
ATOM      9  C   UNL     1      -3.360   0.488  24.853  0.00  0.00    -0.019 C 
ATOM     10  C   UNL     1      -3.472   2.047  24.545  0.00  0.00    +0.011 C 
ATOM     11  C   UNL     1      -4.779   2.782  25.034  0.00  0.00    +0.021 C 
ATOM     12  C   UNL     1      -2.218  -0.120  23.916  0.00  0.00    +0.055 C 
ATOM     13  C   UNL     1      -4.702  -0.204  24.499  0.00  0.00    +0.010 C 
ATOM     14  C   UNL     1      -6.021   1.933  24.641  0.00  0.00    +0.123 C 
ATOM     15  C   UNL     1      -2.157   2.795  24.913  0.00  0.00    +0.049 C 
ATOM     16  C   UNL     1      -5.925   0.480  25.094  0.00  0.00    +0.032 C 
ATOM     17  C   UNL     1      -3.023   0.192  26.335  0.00  0.00    +0.012 C 
ATOM     18  C   UNL     1      -0.982   0.743  23.939  0.00  0.00    +0.058 A 
ATOM     20  C   UNL     1      -4.898   4.147  24.298  0.00  0.00    +0.016 C 
ATOM     21  C   UNL     1      -0.981   2.053  24.374  0.00  0.00    +0.015 A 
ATOM     24  C   UNL     1       1.129   1.234  23.588  0.00  0.00    +0.165 A 
ATOM     25  C   UNL     1       3.147   0.092  22.700  0.00  0.00    +0.219 C 
ATOM     33  H   UNL     1       2.973   2.041  23.425  0.00  0.00    +0.157 HD
ENDROOT
BRANCH  14   2
ATOM      2  O   UNL     1      -7.212   2.505  25.181  0.00  0.00    -0.391 OA
ATOM     31  H   UNL     1      -6.970   3.326  25.640  0.00  0.00    +0.210 HD
ENDBRANCH  14   2
BRANCH  11  19
ATOM     19  C   UNL     1      -4.798   3.120  26.541  0.00  0.00    +0.165 C 
BRANCH  19   3
ATOM      3  O   UNL     1      -3.898   4.185  26.756  0.00  0.00    -0.394 OA
ATOM     32  H   UNL     1      -3.682   4.576  25.893  0.00  0.00    +0.209 HD
ENDBRANCH  19   3
ENDBRANCH  11  19
BRANCH  12  22
ATOM     22  C   UNL     1      -1.882  -1.591  24.191  0.00  0.00    +0.130 C 
BRANCH  22  23
ATOM      5  O   UNL     1      -3.920  -2.611  23.326  0.00  0.00    -0.251 OA
ATOM     23  C   UNL     1      -3.120  -2.437  24.234  0.00  0.00    +0.305 C 
BRANCH  23   4
ATOM      4  O   UNL     1      -3.240  -3.005  25.463  0.00  0.00    -0.481 OA
ATOM     34  H   UNL     1      -3.084  -2.356  26.181  0.00  0.00    +0.295 HD
ENDBRANCH  23   4
ENDBRANCH  22  23
ENDBRANCH  12  22
BRANCH  25  26
ATOM     26  C   UNL     1       4.621   0.390  22.454  0.00  0.00    +0.102 C 
BRANCH  26  27
ATOM     27  C   UNL     1       5.588  -0.220  23.497  0.00  0.00    -0.029 C 
ATOM     28  C   UNL     1       5.051  -1.547  24.057  0.00  0.00    +0.011 C 
ATOM     29  C   UNL     1       5.722   0.779  24.664  0.00  0.00    +0.011 C 
ATOM     30  C   UNL     1       6.982  -0.451  22.892  0.00  0.00    +0.011 C 
ENDBRANCH  26  27
ENDBRANCH  25  26
TORSDOF 8
ENDMDL
MODEL 2
REMARK VINA RESULT:       0.1      2.113      3.860
REMARK  Name = 11885051
REMARK  13 active torsions:
REMARK  status: ('A' for Active; 'I' for Inactive)
REMARK    1  A    between atoms: O_2  and  C_14
REMARK    2  A    between atoms: O_3  and  C_19
REMARK    3  A    between atoms: O_4  and  C_23
REMARK    4  A    between atoms: C_9  and  C_17
REMARK    5  A    between atoms: C_11  and  C_19
REMARK    6  A    between atoms: C_11  and  C_20
REMARK    7  A    between atoms: C_12  and  C_22
REMARK    8  A    between atoms: C_22  and  C_23
REMARK    9  A    between atoms: C_25  and  C_26
REMARK   10  A    between atoms: C_26  and  C_27
REMARK   11  A    between atoms: C_27  and  C_28
REMARK   12  A    between atoms: C_27  and  C_29
REMARK   13  A    between atoms: C_27  and  C_30
REMARK                            x       y       z     vdW  Elec       q    Type
REMARK                         _______ _______ _______ _____ _____    ______ ____
ROOT
ATOM      1  S   UNL     1      -0.372  -0.798  23.443  0.00  0.00    -0.057 S 
ATOM      6  O   UNL     1       3.288   2.057  23.028  0.00  0.00    -0.275 OA
ATOM      7  N   UNL     1       0.436   1.644  23.722  0.00  0.00    -0.229 NA
ATOM      8  N   UNL     1       2.062   0.043  22.948  0.00  0.00    -0.265 N 
ATOM      9  C   UNL     1      -3.212   2.624  24.498  0.00  0.00    -0.019 C 
ATOM     10  C   UNL     1      -3.537   1.208  25.150  0.00  0.00    +0.011 C 
ATOM     11  C   UNL     1      -5.030   0.946  25.586  0.00  0.00    +0.021 C 
ATOM     12  C   UNL     1      -1.629   2.838  24.545  0.00  0.00    +0.055 C 
ATOM     13  C   UNL     1      -3.881   3.743  25.337  0.00  0.00    +0.010 C 
ATOM     14  C   UNL     1      -5.558   2.180  26.373  0.00  0.00    +0.123 C 
ATOM     15  C   UNL     1      -2.912   0.045  24.325  0.00  0.00    +0.049 C 
ATOM     16  C   UNL     1      -5.354   3.497  25.632  0.00  0.00    +0.032 C 
ATOM     17  C   UNL     1      -3.704   2.739  23.034  0.00  0.00    +0.012 C 
ATOM     18  C   UNL     1      -0.902   1.605  24.070  0.00  0.00    +0.058 A 
ATOM     20  C   UNL     1      -5.070  -0.271  26.553  0.00  0.00    +0.016 C 
ATOM     21  C   UNL     1      -1.492   0.360  23.996  0.00  0.00    +0.015 A 
ATOM     24  C   UNL     1       0.819   0.437  23.369  0.00  0.00    +0.165 A 
ATOM     25  C   UNL     1       3.201   0.853  22.804  0.00  0.00    +0.219 C 
ATOM     33  H   UNL     1       2.142  -0.944  22.720  0.00  0.00    +0.157 HD
ENDROOT
BRANCH  14   2
ATOM      2  O   UNL     1      -6.946   2.030  26.670  0.00  0.00    -0.391 OA
ATOM     31  H   UNL     1      -7.443   2.120  25.841  0.00  0.00    +0.210 HD
ENDBRANCH  14   2
BRANCH  11  19
ATOM     19  C   UNL     1      -5.983   0.584  24.425  0.00  0.00    +0.165 C 
BRANCH  19   3
ATOM      3  O   UNL     1      -7.001   1.559  24.382  0.00  0.00    -0.394 OA
ATOM     32  H   UNL     1      -7.455   1.483  23.526  0.00  0.00    +0.209 HD
ENDBRANCH  19   3
ENDBRANCH  11  19
BRANCH  12  22
ATOM     22  C   UNL     1      -1.133   4.097  23.822  0.00  0.00    +0.130 C 
BRANCH  22  23
ATOM      5  O   UNL     1      -1.343   6.286  24.874  0.00  0.00    -0.251 OA
ATOM     23  C   UNL     1      -0.803   5.192  24.794  0.00  0.00    +0.305 C 
BRANCH  23   4
ATOM      4  O   UNL     1       0.214   4.792  25.600  0.00  0.00    -0.481 OA
ATOM     34  H   UNL     1       0.311   3.816  25.609  0.00  0.00    +0.295 HD
ENDBRANCH  23   4
ENDBRANCH  22  23
ENDBRANCH  12  22
BRANCH  25  26
ATOM     26  C   UNL     1       4.415   0.079  22.305  0.00  0.00    +0.102 C 
BRANCH  26  27
ATOM     27  C   UNL     1       5.391  -0.381  23.414  0.00  0.00    -0.029 C 
ATOM     28  C   UNL     1       6.802  -0.633  22.858  0.00  0.00    +0.011 C 
ATOM     29  C   UNL     1       4.857  -1.704  23.999  0.00  0.00    +0.011 C 
ATOM     30  C   UNL     1       5.469   0.655  24.547  0.00  0.00    +0.011 C 
ENDBRANCH  26  27
ENDBRANCH  25  26
TORSDOF 8
ENDMDL
