MODEL 1
REMARK VINA RESULT:      -5.5      0.000      0.000
REMARK  Name = 26761840
REMARK  4 active torsions:
REMARK  status: ('A' for Active; 'I' for Inactive)
REMARK    1  A    between atoms: O_2  and  C_17
REMARK    2  A    between atoms: O_2  and  C_19
REMARK    3  A    between atoms: N_4  and  C_7
REMARK    4  A    between atoms: C_8  and  C_17
REMARK                            x       y       z     vdW  Elec       q    Type
REMARK                         _______ _______ _______ _____ _____    ______ ____
ROOT
ATOM      4  N   UNL     1      -2.092   1.277  24.373  0.00  0.00    -0.281 NA
ATOM      5  N   UNL     1       1.583   1.660  23.869  0.00  0.00    -0.347 N 
ATOM      6  N   UNL     1       1.427  -0.309  22.822  0.00  0.00    -0.240 NA
ATOM      8  C   UNL     1      -2.082  -0.207  24.312  0.00  0.00    +0.173 C 
ATOM     11  C   UNL     1      -0.804   1.891  24.769  0.00  0.00    +0.140 C 
ATOM     12  C   UNL     1      -1.019  -0.769  23.323  0.00  0.00    +0.087 C 
ATOM     13  C   UNL     1       0.300   1.235  24.034  0.00  0.00    +0.053 A 
ATOM     14  C   UNL     1       0.230   0.026  23.388  0.00  0.00    +0.065 A 
ATOM     18  C   UNL     1       2.224   0.696  23.130  0.00  0.00    +0.197 A 
ATOM     20  H   UNL     1       1.991   2.516  24.221  0.00  0.00    +0.167 HD
ENDROOT
BRANCH   4   7
ATOM      1  O   UNL     1      -5.545   3.486  25.281  0.00  0.00    -0.380 OA
ATOM      7  C   UNL     1      -3.203   1.817  25.153  0.00  0.00    +0.062 C 
ATOM      9  C   UNL     1      -3.120   3.344  25.211  0.00  0.00    +0.047 C 
ATOM     10  C   UNL     1      -4.550   1.387  24.565  0.00  0.00    +0.047 C 
ATOM     15  C   UNL     1      -4.343   3.915  25.920  0.00  0.00    +0.161 C 
ATOM     16  C   UNL     1      -5.695   2.067  25.310  0.00  0.00    +0.161 C 
ENDBRANCH   4   7
BRANCH   8  17
ATOM      3  O   UNL     1      -0.823  -0.697  26.310  0.00  0.00    -0.249 OA
ATOM     17  C   UNL     1      -1.872  -0.782  25.684  0.00  0.00    +0.325 C 
BRANCH  17   2
ATOM      2  O   UNL     1      -3.014  -1.398  26.101  0.00  0.00    -0.467 OA
ATOM     19  C   UNL     1      -3.541  -2.386  25.209  0.00  0.00    +0.280 C 
ENDBRANCH  17   2
ENDBRANCH   8  17
TORSDOF 3
ENDMDL
MODEL 2
REMARK VINA RESULT:      -5.4      2.323      4.598
REMARK  Name = 26761840
REMARK  4 active torsions:
REMARK  status: ('A' for Active; 'I' for Inactive)
REMARK    1  A    between atoms: O_2  and  C_17
REMARK    2  A    between atoms: O_2  and  C_19
REMARK    3  A    between atoms: N_4  and  C_7
REMARK    4  A    between atoms: C_8  and  C_17
REMARK                            x       y       z     vdW  Elec       q    Type
REMARK                         _______ _______ _______ _____ _____    ______ ____
ROOT
ATOM      4  N   UNL     1      -2.951   1.301  25.437  0.00  0.00    -0.281 NA
ATOM      5  N   UNL     1      -0.327   3.532  24.006  0.00  0.00    -0.347 N 
ATOM      6  N   UNL     1      -1.343   5.130  25.195  0.00  0.00    -0.240 NA
ATOM      8  C   UNL     1      -3.949   2.381  25.642  0.00  0.00    +0.173 C 
ATOM     11  C   UNL     1      -1.940   1.579  24.391  0.00  0.00    +0.140 C 
ATOM     12  C   UNL     1      -3.302   3.744  26.026  0.00  0.00    +0.087 C 
ATOM     13  C   UNL     1      -1.440   2.964  24.546  0.00  0.00    +0.053 A 
ATOM     14  C   UNL     1      -2.048   3.963  25.266  0.00  0.00    +0.065 A 
ATOM     18  C   UNL     1      -0.311   4.839  24.428  0.00  0.00    +0.197 A 
ATOM     20  H   UNL     1       0.357   3.085  23.410  0.00  0.00    +0.167 HD
ENDROOT
BRANCH   4   7
ATOM      1  O   UNL     1      -3.345  -2.709  24.256  0.00  0.00    -0.380 OA
ATOM      7  C   UNL     1      -3.553  -0.018  25.258  0.00  0.00    +0.062 C 
ATOM      9  C   UNL     1      -3.675  -0.351  23.769  0.00  0.00    +0.047 C 
ATOM     10  C   UNL     1      -2.735  -1.099  25.972  0.00  0.00    +0.047 C 
ATOM     15  C   UNL     1      -4.189  -1.774  23.584  0.00  0.00    +0.161 C 
ATOM     16  C   UNL     1      -3.301  -2.481  25.665  0.00  0.00    +0.161 C 
ENDBRANCH   4   7
BRANCH   8  17
ATOM      3  O   UNL     1      -4.411   3.027  23.364  0.00  0.00    -0.249 OA
ATOM     17  C   UNL     1      -4.804   2.538  24.416  0.00  0.00    +0.325 C 
BRANCH  17   2
ATOM      2  O   UNL     1      -6.055   2.059  24.668  0.00  0.00    -0.467 OA
ATOM     19  C   UNL     1      -6.416   1.981  26.051  0.00  0.00    +0.280 C 
ENDBRANCH  17   2
ENDBRANCH   8  17
TORSDOF 3
ENDMDL
MODEL 3
REMARK VINA RESULT:      -5.0      2.355      4.109
REMARK  Name = 26761840
REMARK  4 active torsions:
REMARK  status: ('A' for Active; 'I' for Inactive)
REMARK    1  A    between atoms: O_2  and  C_17
REMARK    2  A    between atoms: O_2  and  C_19
REMARK    3  A    between atoms: N_4  and  C_7
REMARK    4  A    between atoms: C_8  and  C_17
REMARK                            x       y       z     vdW  Elec       q    Type
REMARK                         _______ _______ _______ _____ _____    ______ ____
ROOT
ATOM      4  N   UNL     1      -2.369   1.121  24.910  0.00  0.00    -0.281 NA
ATOM      5  N   UNL     1      -4.334  -1.879  23.885  0.00  0.00    -0.347 N 
ATOM      6  N   UNL     1      -2.684  -3.027  24.864  0.00  0.00    -0.240 NA
ATOM      8  C   UNL     1      -1.059   0.423  24.930  0.00  0.00    +0.173 C 
ATOM     11  C   UNL     1      -3.391   0.498  24.038  0.00  0.00    +0.140 C 
ATOM     12  C   UNL     1      -1.166  -1.061  25.390  0.00  0.00    +0.087 C 
ATOM     13  C   UNL     1      -3.390  -0.967  24.247  0.00  0.00    +0.053 A 
ATOM     14  C   UNL     1      -2.388  -1.694  24.840  0.00  0.00    +0.065 A 
ATOM     18  C   UNL     1      -3.864  -3.107  24.280  0.00  0.00    +0.197 A 
ATOM     20  H   UNL     1      -5.211  -1.694  23.416  0.00  0.00    +0.167 HD
ENDROOT
BRANCH   4   7
ATOM      1  O   UNL     1      -2.406   5.252  25.657  0.00  0.00    -0.380 OA
ATOM      7  C   UNL     1      -2.257   2.556  24.659  0.00  0.00    +0.062 C 
ATOM      9  C   UNL     1      -3.590   3.252  24.947  0.00  0.00    +0.047 C 
ATOM     10  C   UNL     1      -1.146   3.179  25.510  0.00  0.00    +0.047 C 
ATOM     15  C   UNL     1      -3.440   4.763  24.803  0.00  0.00    +0.161 C 
ATOM     16  C   UNL     1      -1.132   4.694  25.335  0.00  0.00    +0.161 C 
ENDBRANCH   4   7
BRANCH   8  17
ATOM      3  O   UNL     1      -0.704   1.324  22.721  0.00  0.00    -0.249 OA
ATOM     17  C   UNL     1      -0.406   0.503  23.579  0.00  0.00    +0.325 C 
BRANCH  17   2
ATOM      2  O   UNL     1       0.547  -0.466  23.475  0.00  0.00    -0.467 OA
ATOM     19  C   UNL     1       1.685  -0.127  22.675  0.00  0.00    +0.280 C 
ENDBRANCH  17   2
ENDBRANCH   8  17
TORSDOF 3
ENDMDL
MODEL 4
REMARK VINA RESULT:      -4.5     14.689     17.988
REMARK  Name = 26761840
REMARK  4 active torsions:
REMARK  status: ('A' for Active; 'I' for Inactive)
REMARK    1  A    between atoms: O_2  and  C_17
REMARK    2  A    between atoms: O_2  and  C_19
REMARK    3  A    between atoms: N_4  and  C_7
REMARK    4  A    between atoms: C_8  and  C_17
REMARK                            x       y       z     vdW  Elec       q    Type
REMARK                         _______ _______ _______ _____ _____    ______ ____
ROOT
ATOM      4  N   UNL     1      13.487   8.438  19.749  0.00  0.00    -0.281 NA
ATOM      5  N   UNL     1      12.331   8.493  16.203  0.00  0.00    -0.347 N 
ATOM      6  N   UNL     1      10.364   9.094  17.080  0.00  0.00    -0.240 NA
ATOM      8  C   UNL     1      12.144   8.170  20.324  0.00  0.00    +0.173 C 
ATOM     11  C   UNL     1      13.657   8.010  18.342  0.00  0.00    +0.140 C 
ATOM     12  C   UNL     1      10.993   8.853  19.528  0.00  0.00    +0.087 C 
ATOM     13  C   UNL     1      12.472   8.420  17.556  0.00  0.00    +0.053 A 
ATOM     14  C   UNL     1      11.253   8.789  18.070  0.00  0.00    +0.065 A 
ATOM     18  C   UNL     1      11.043   8.904  15.965  0.00  0.00    +0.197 A 
ATOM     20  H   UNL     1      13.033   8.284  15.506  0.00  0.00    +0.167 HD
ENDROOT
BRANCH   4   7
ATOM      1  O   UNL     1      17.405   7.517  20.944  0.00  0.00    -0.380 OA
ATOM      7  C   UNL     1      14.582   7.959  20.588  0.00  0.00    +0.062 C 
ATOM      9  C   UNL     1      15.329   6.820  19.890  0.00  0.00    +0.047 C 
ATOM     10  C   UNL     1      15.555   9.094  20.926  0.00  0.00    +0.047 C 
ATOM     15  C   UNL     1      16.545   6.402  20.710  0.00  0.00    +0.161 C 
ATOM     16  C   UNL     1      16.759   8.550  21.688  0.00  0.00    +0.161 C 
ENDBRANCH   4   7
BRANCH   8  17
ATOM      3  O   UNL     1      12.080   5.907  19.494  0.00  0.00    -0.249 OA
ATOM     17  C   UNL     1      11.905   6.689  20.418  0.00  0.00    +0.325 C 
BRANCH  17   2
ATOM      2  O   UNL     1      11.472   6.377  21.672  0.00  0.00    -0.467 OA
ATOM     19  C   UNL     1      10.877   5.082  21.813  0.00  0.00    +0.280 C 
ENDBRANCH  17   2
ENDBRANCH   8  17
TORSDOF 3
ENDMDL
MODEL 5
REMARK VINA RESULT:      -4.5      2.556      5.461
REMARK  Name = 26761840
REMARK  4 active torsions:
REMARK  status: ('A' for Active; 'I' for Inactive)
REMARK    1  A    between atoms: O_2  and  C_17
REMARK    2  A    between atoms: O_2  and  C_19
REMARK    3  A    between atoms: N_4  and  C_7
REMARK    4  A    between atoms: C_8  and  C_17
REMARK                            x       y       z     vdW  Elec       q    Type
REMARK                         _______ _______ _______ _____ _____    ______ ____
ROOT
ATOM      4  N   UNL     1      -3.863   0.665  24.027  0.00  0.00    -0.281 NA
ATOM      5  N   UNL     1      -5.801   3.004  26.193  0.00  0.00    -0.347 N 
ATOM      6  N   UNL     1      -5.111   4.567  24.751  0.00  0.00    -0.240 NA
ATOM      8  C   UNL     1      -2.919   1.696  23.528  0.00  0.00    +0.173 C 
ATOM     11  C   UNL     1      -4.490   0.977  25.332  0.00  0.00    +0.140 C 
ATOM     12  C   UNL     1      -3.577   3.096  23.360  0.00  0.00    +0.087 C 
ATOM     13  C   UNL     1      -4.938   2.388  25.338  0.00  0.00    +0.053 A 
ATOM     14  C   UNL     1      -4.525   3.366  24.468  0.00  0.00    +0.065 A 
ATOM     18  C   UNL     1      -5.873   4.317  25.797  0.00  0.00    +0.197 A 
ATOM     20  H   UNL     1      -6.293   2.582  26.969  0.00  0.00    +0.167 HD
ENDROOT
BRANCH   4   7
ATOM      1  O   UNL     1      -3.229  -3.332  25.144  0.00  0.00    -0.380 OA
ATOM      7  C   UNL     1      -3.308  -0.686  24.013  0.00  0.00    +0.062 C 
ATOM      9  C   UNL     1      -2.611  -0.990  25.341  0.00  0.00    +0.047 C 
ATOM     10  C   UNL     1      -4.398  -1.727  23.742  0.00  0.00    +0.047 C 
ATOM     15  C   UNL     1      -2.139  -2.439  25.373  0.00  0.00    +0.161 C 
ATOM     16  C   UNL     1      -3.826  -3.136  23.862  0.00  0.00    +0.161 C 
ENDBRANCH   4   7
BRANCH   8  17
ATOM      3  O   UNL     1      -1.741   2.310  25.541  0.00  0.00    -0.249 OA
ATOM     17  C   UNL     1      -1.723   1.788  24.434  0.00  0.00    +0.325 C 
BRANCH  17   2
ATOM      2  O   UNL     1      -0.647   1.209  23.829  0.00  0.00    -0.467 OA
ATOM     19  C   UNL     1       0.629   1.738  24.206  0.00  0.00    +0.280 C 
ENDBRANCH  17   2
ENDBRANCH   8  17
TORSDOF 3
ENDMDL
MODEL 6
REMARK VINA RESULT:      -4.2      2.408      3.634
REMARK  Name = 26761840
REMARK  4 active torsions:
REMARK  status: ('A' for Active; 'I' for Inactive)
REMARK    1  A    between atoms: O_2  and  C_17
REMARK    2  A    between atoms: O_2  and  C_19
REMARK    3  A    between atoms: N_4  and  C_7
REMARK    4  A    between atoms: C_8  and  C_17
REMARK                            x       y       z     vdW  Elec       q    Type
REMARK                         _______ _______ _______ _____ _____    ______ ____
ROOT
ATOM      4  N   UNL     1      -3.150   1.056  25.205  0.00  0.00    -0.281 NA
ATOM      5  N   UNL     1      -2.046  -2.397  24.328  0.00  0.00    -0.347 N 
ATOM      6  N   UNL     1      -0.121  -1.794  25.292  0.00  0.00    -0.240 NA
ATOM      8  C   UNL     1      -1.784   1.637  25.208  0.00  0.00    +0.173 C 
ATOM     11  C   UNL     1      -3.304  -0.166  24.382  0.00  0.00    +0.140 C 
ATOM     12  C   UNL     1      -0.699   0.642  25.715  0.00  0.00    +0.087 C 
ATOM     13  C   UNL     1      -2.165  -1.076  24.634  0.00  0.00    +0.053 A 
ATOM     14  C   UNL     1      -0.972  -0.728  25.220  0.00  0.00    +0.065 A 
ATOM     18  C   UNL     1      -0.797  -2.786  24.745  0.00  0.00    +0.197 A 
ATOM     20  H   UNL     1      -2.739  -2.982  23.879  0.00  0.00    +0.167 HD
ENDROOT
BRANCH   4   7
ATOM      1  O   UNL     1      -6.379   3.665  25.834  0.00  0.00    -0.380 OA
ATOM      7  C   UNL     1      -4.195   2.033  24.909  0.00  0.00    +0.062 C 
ATOM      9  C   UNL     1      -5.574   1.452  25.231  0.00  0.00    +0.047 C 
ATOM     10  C   UNL     1      -3.976   3.330  25.695  0.00  0.00    +0.047 C 
ATOM     15  C   UNL     1      -6.654   2.512  25.038  0.00  0.00    +0.161 C 
ATOM     16  C   UNL     1      -5.144   4.286  25.476  0.00  0.00    +0.161 C 
ENDBRANCH   4   7
BRANCH   8  17
ATOM      3  O   UNL     1      -1.967   1.755  22.806  0.00  0.00    -0.249 OA
ATOM     17  C   UNL     1      -1.429   2.139  23.837  0.00  0.00    +0.325 C 
BRANCH  17   2
ATOM      2  O   UNL     1      -0.436   3.067  23.934  0.00  0.00    -0.467 OA
ATOM     19  C   UNL     1      -0.719   4.185  24.782  0.00  0.00    +0.280 C 
ENDBRANCH  17   2
ENDBRANCH   8  17
TORSDOF 3
ENDMDL
MODEL 7
REMARK VINA RESULT:      -3.7      2.436      4.620
REMARK  Name = 26761840
REMARK  4 active torsions:
REMARK  status: ('A' for Active; 'I' for Inactive)
REMARK    1  A    between atoms: O_2  and  C_17
REMARK    2  A    between atoms: O_2  and  C_19
REMARK    3  A    between atoms: N_4  and  C_7
REMARK    4  A    between atoms: C_8  and  C_17
REMARK                            x       y       z     vdW  Elec       q    Type
REMARK                         _______ _______ _______ _____ _____    ______ ____
ROOT
ATOM      4  N   UNL     1      -2.579   0.929  24.030  0.00  0.00    -0.281 NA
ATOM      5  N   UNL     1      -3.148   3.790  26.354  0.00  0.00    -0.347 N 
ATOM      6  N   UNL     1      -1.909   4.943  24.893  0.00  0.00    -0.240 NA
ATOM      8  C   UNL     1      -1.301   1.452  23.485  0.00  0.00    +0.173 C 
ATOM     11  C   UNL     1      -2.930   1.431  25.378  0.00  0.00    +0.140 C 
ATOM     12  C   UNL     1      -1.271   3.005  23.382  0.00  0.00    +0.087 C 
ATOM     13  C   UNL     1      -2.698   2.892  25.435  0.00  0.00    +0.053 A 
ATOM     14  C   UNL     1      -1.938   3.621  24.554  0.00  0.00    +0.065 A 
ATOM     18  C   UNL     1      -2.647   5.014  25.984  0.00  0.00    +0.197 A 
ATOM     20  H   UNL     1      -3.735   3.599  27.155  0.00  0.00    +0.167 HD
ENDROOT
BRANCH   4   7
ATOM      1  O   UNL     1      -3.720  -2.979  25.057  0.00  0.00    -0.380 OA
ATOM      7  C   UNL     1      -2.688  -0.526  23.959  0.00  0.00    +0.062 C 
ATOM      9  C   UNL     1      -2.110  -1.166  25.223  0.00  0.00    +0.047 C 
ATOM     10  C   UNL     1      -4.144  -0.961  23.769  0.00  0.00    +0.047 C 
ATOM     15  C   UNL     1      -2.333  -2.675  25.203  0.00  0.00    +0.161 C 
ATOM     16  C   UNL     1      -4.255  -2.481  23.830  0.00  0.00    +0.161 C 
ENDBRANCH   4   7
BRANCH   8  17
ATOM      3  O   UNL     1       0.247   1.509  25.334  0.00  0.00    -0.249 OA
ATOM     17  C   UNL     1      -0.144   0.962  24.310  0.00  0.00    +0.325 C 
BRANCH  17   2
ATOM      2  O   UNL     1       0.380  -0.160  23.741  0.00  0.00    -0.467 OA
ATOM     19  C   UNL     1       1.304   0.068  22.670  0.00  0.00    +0.280 C 
ENDBRANCH  17   2
ENDBRANCH   8  17
TORSDOF 3
ENDMDL
MODEL 8
REMARK VINA RESULT:      -3.7      2.281      4.694
REMARK  Name = 26761840
REMARK  4 active torsions:
REMARK  status: ('A' for Active; 'I' for Inactive)
REMARK    1  A    between atoms: O_2  and  C_17
REMARK    2  A    between atoms: O_2  and  C_19
REMARK    3  A    between atoms: N_4  and  C_7
REMARK    4  A    between atoms: C_8  and  C_17
REMARK                            x       y       z     vdW  Elec       q    Type
REMARK                         _______ _______ _______ _____ _____    ______ ____
ROOT
ATOM      4  N   UNL     1      -2.155   0.977  25.700  0.00  0.00    -0.281 NA
ATOM      5  N   UNL     1      -0.179   4.052  24.957  0.00  0.00    -0.347 N 
ATOM      6  N   UNL     1      -2.149   5.097  25.117  0.00  0.00    -0.240 NA
ATOM      8  C   UNL     1      -3.433   1.505  25.160  0.00  0.00    +0.173 C 
ATOM     11  C   UNL     1      -0.937   1.612  25.146  0.00  0.00    +0.140 C 
ATOM     12  C   UNL     1      -3.607   3.035  25.391  0.00  0.00    +0.087 C 
ATOM     13  C   UNL     1      -1.120   3.080  25.110  0.00  0.00    +0.053 A 
ATOM     14  C   UNL     1      -2.319   3.744  25.202  0.00  0.00    +0.065 A 
ATOM     18  C   UNL     1      -0.848   5.251  24.969  0.00  0.00    +0.197 A 
ATOM     20  H   UNL     1       0.819   3.923  24.853  0.00  0.00    +0.167 HD
ENDROOT
BRANCH   4   7
ATOM      1  O   UNL     1      -2.644  -2.945  24.285  0.00  0.00    -0.380 OA
ATOM      7  C   UNL     1      -2.064  -0.480  25.654  0.00  0.00    +0.062 C 
ATOM      9  C   UNL     1      -3.463  -1.100  25.640  0.00  0.00    +0.047 C 
ATOM     10  C   UNL     1      -1.271  -0.944  24.428  0.00  0.00    +0.047 C 
ATOM     15  C   UNL     1      -3.370  -2.613  25.468  0.00  0.00    +0.161 C 
ATOM     16  C   UNL     1      -1.300  -2.466  24.324  0.00  0.00    +0.161 C 
ENDBRANCH   4   7
BRANCH   8  17
ATOM      3  O   UNL     1      -3.828   0.073  23.260  0.00  0.00    -0.249 OA
ATOM     17  C   UNL     1      -3.552   1.183  23.697  0.00  0.00    +0.325 C 
BRANCH  17   2
ATOM      2  O   UNL     1      -3.306   2.304  22.961  0.00  0.00    -0.467 OA
ATOM     19  C   UNL     1      -2.498   2.110  21.795  0.00  0.00    +0.280 C 
ENDBRANCH  17   2
ENDBRANCH   8  17
TORSDOF 3
ENDMDL
MODEL 9
REMARK VINA RESULT:      -3.5     15.037     17.900
REMARK  Name = 26761840
REMARK  4 active torsions:
REMARK  status: ('A' for Active; 'I' for Inactive)
REMARK    1  A    between atoms: O_2  and  C_17
REMARK    2  A    between atoms: O_2  and  C_19
REMARK    3  A    between atoms: N_4  and  C_7
REMARK    4  A    between atoms: C_8  and  C_17
REMARK                            x       y       z     vdW  Elec       q    Type
REMARK                         _______ _______ _______ _____ _____    ______ ____
ROOT
ATOM      4  N   UNL     1      13.675   7.162  20.967  0.00  0.00    -0.281 NA
ATOM      5  N   UNL     1      11.362   9.093  23.165  0.00  0.00    -0.347 N 
ATOM      6  N   UNL     1       9.782   7.765  22.305  0.00  0.00    -0.240 NA
ATOM      8  C   UNL     1      12.638   6.794  19.970  0.00  0.00    +0.173 C 
ATOM     11  C   UNL     1      13.377   8.382  21.752  0.00  0.00    +0.140 C 
ATOM     12  C   UNL     1      11.236   6.560  20.607  0.00  0.00    +0.087 C 
ATOM     13  C   UNL     1      11.968   8.347  22.201  0.00  0.00    +0.053 A 
ATOM     14  C   UNL     1      10.979   7.544  21.686  0.00  0.00    +0.065 A 
ATOM     18  C   UNL     1      10.045   8.705  23.191  0.00  0.00    +0.197 A 
ATOM     20  H   UNL     1      11.792   9.798  23.748  0.00  0.00    +0.167 HD
ENDROOT
BRANCH   4   7
ATOM      1  O   UNL     1      17.361   5.788  19.499  0.00  0.00    -0.380 OA
ATOM      7  C   UNL     1      15.025   7.203  20.410  0.00  0.00    +0.062 C 
ATOM      9  C   UNL     1      16.019   6.553  21.375  0.00  0.00    +0.047 C 
ATOM     10  C   UNL     1      15.081   6.502  19.049  0.00  0.00    +0.047 C 
ATOM     15  C   UNL     1      17.405   6.486  20.743  0.00  0.00    +0.161 C 
ATOM     16  C   UNL     1      16.520   6.438  18.545  0.00  0.00    +0.161 C 
ENDBRANCH   4   7
BRANCH   8  17
ATOM      3  O   UNL     1      13.092   8.940  18.966  0.00  0.00    -0.249 OA
ATOM     17  C   UNL     1      12.553   7.843  18.897  0.00  0.00    +0.325 C 
BRANCH  17   2
ATOM      2  O   UNL     1      11.796   7.377  17.863  0.00  0.00    -0.467 OA
ATOM     19  C   UNL     1      10.967   8.351  17.220  0.00  0.00    +0.280 C 
ENDBRANCH  17   2
ENDBRANCH   8  17
TORSDOF 3
ENDMDL
MODEL 10
REMARK VINA RESULT:      -2.8      2.282      5.311
REMARK  Name = 26761840
REMARK  4 active torsions:
REMARK  status: ('A' for Active; 'I' for Inactive)
REMARK    1  A    between atoms: O_2  and  C_17
REMARK    2  A    between atoms: O_2  and  C_19
REMARK    3  A    between atoms: N_4  and  C_7
REMARK    4  A    between atoms: C_8  and  C_17
REMARK                            x       y       z     vdW  Elec       q    Type
REMARK                         _______ _______ _______ _____ _____    ______ ____
ROOT
ATOM      4  N   UNL     1      -2.397   1.223  25.474  0.00  0.00    -0.281 NA
ATOM      5  N   UNL     1      -4.464   4.323  25.300  0.00  0.00    -0.347 N 
ATOM      6  N   UNL     1      -6.183   2.938  25.655  0.00  0.00    -0.240 NA
ATOM      8  C   UNL     1      -3.486   0.311  25.044  0.00  0.00    +0.173 C 
ATOM     11  C   UNL     1      -2.558   2.631  25.042  0.00  0.00    +0.140 C 
ATOM     12  C   UNL     1      -4.889   0.755  25.551  0.00  0.00    +0.087 C 
ATOM     13  C   UNL     1      -3.954   3.061  25.276  0.00  0.00    +0.053 A 
ATOM     14  C   UNL     1      -5.027   2.230  25.491  0.00  0.00    +0.065 A 
ATOM     18  C   UNL     1      -5.811   4.198  25.534  0.00  0.00    +0.197 A 
ATOM     20  H   UNL     1      -3.955   5.188  25.171  0.00  0.00    +0.167 HD
ENDROOT
BRANCH   4   7
ATOM      1  O   UNL     1       0.738  -0.486  23.265  0.00  0.00    -0.380 OA
ATOM      7  C   UNL     1      -1.061   0.719  25.161  0.00  0.00    +0.062 C 
ATOM      9  C   UNL     1      -1.124  -0.767  24.801  0.00  0.00    +0.047 C 
ATOM     10  C   UNL     1      -0.429   1.511  24.013  0.00  0.00    +0.047 C 
ATOM     15  C   UNL     1       0.248  -1.263  24.357  0.00  0.00    +0.161 C 
ATOM     16  C   UNL     1       0.905   0.889  23.612  0.00  0.00    +0.161 C 
ENDBRANCH   4   7
BRANCH   8  17
ATOM      3  O   UNL     1      -3.154   1.069  22.778  0.00  0.00    -0.249 OA
ATOM     17  C   UNL     1      -3.493   0.178  23.546  0.00  0.00    +0.325 C 
BRANCH  17   2
ATOM      2  O   UNL     1      -3.927  -1.066  23.201  0.00  0.00    -0.467 OA
ATOM     19  C   UNL     1      -3.916  -2.036  24.254  0.00  0.00    +0.280 C 
ENDBRANCH  17   2
ENDBRANCH   8  17
TORSDOF 3
ENDMDL
