MODEL 1
REMARK VINA RESULT:      -1.6      0.000      0.000
REMARK  Name = 45783279
REMARK  8 active torsions:
REMARK  status: ('A' for Active; 'I' for Inactive)
REMARK    1  A    between atoms: O_2  and  C_27
REMARK    2  A    between atoms: O_2  and  C_28
REMARK    3  A    between atoms: N_3  and  C_13
REMARK    4  A    between atoms: N_7  and  C_26
REMARK    5  A    between atoms: C_9  and  C_14
REMARK    6  A    between atoms: C_13  and  C_15
REMARK    7  A    between atoms: C_16  and  C_19
REMARK    8  A    between atoms: C_26  and  C_27
REMARK                            x       y       z     vdW  Elec       q    Type
REMARK                         _______ _______ _______ _____ _____    ______ ____
ROOT
ATOM      1  O   UNL     1      -1.182   2.304  25.581  0.00  0.00    -0.336 OA
ATOM      4  N   UNL     1      -1.527   1.767  23.433  0.00  0.00    -0.190 NA
ATOM      5  N   UNL     1      -0.021   1.648  25.152  0.00  0.00    -0.056 NA
ATOM     14  C   UNL     1      -2.016   2.332  24.508  0.00  0.00    +0.245 A 
ATOM     16  C   UNL     1      -0.301   1.363  23.877  0.00  0.00    +0.202 A 
ENDROOT
BRANCH  16  19
ATOM      7  N   UNL     1       4.230   0.401  22.468  0.00  0.00    -0.327 N 
ATOM      8  N   UNL     1       2.418  -0.673  21.355  0.00  0.00    -0.240 NA
ATOM     19  C   UNL     1       0.620   0.674  23.021  0.00  0.00    +0.027 A 
ATOM     22  C   UNL     1       1.989   0.875  23.162  0.00  0.00    +0.055 A 
ATOM     23  C   UNL     1       0.149  -0.201  22.048  0.00  0.00    +0.031 A 
ATOM     24  C   UNL     1       2.838   0.185  22.313  0.00  0.00    +0.119 A 
ATOM     25  C   UNL     1       1.081  -0.843  21.248  0.00  0.00    +0.113 A 
ATOM     29  H   UNL     1       4.840  -0.112  21.843  0.00  0.00    +0.148 HD
BRANCH   7  26
ATOM     26  C   UNL     1       4.766   1.288  23.449  0.00  0.00    +0.131 C 
BRANCH  26  27
ATOM     27  C   UNL     1       5.688   0.528  24.387  0.00  0.00    +0.178 C 
BRANCH  27   2
ATOM      2  O   UNL     1       6.001  -0.738  23.821  0.00  0.00    -0.381 OA
ATOM     28  C   UNL     1       5.000  -1.703  24.118  0.00  0.00    +0.194 C 
ENDBRANCH  27   2
ENDBRANCH  26  27
ENDBRANCH   7  26
ENDBRANCH  16  19
BRANCH  14   9
ATOM      3  N   UNL     1      -4.293   2.167  25.500  0.00  0.00    -0.287 NA
ATOM      9  C   UNL     1      -3.360   3.000  24.715  0.00  0.00    +0.146 C 
ATOM     10  C   UNL     1      -3.253   4.318  25.505  0.00  0.00    +0.030 C 
ATOM     11  C   UNL     1      -4.205   4.155  26.681  0.00  0.00    +0.017 C 
ATOM     12  C   UNL     1      -5.177   3.092  26.208  0.00  0.00    +0.085 C 
BRANCH   3  13
ATOM     13  C   UNL     1      -5.035   1.214  24.686  0.00  0.00    +0.121 C 
BRANCH  13  15
ATOM      6  N   UNL     1      -3.169  -1.808  25.995  0.00  0.00    -0.263 NA
ATOM     15  C   UNL     1      -4.440  -0.167  24.756  0.00  0.00    -0.015 A 
ATOM     17  C   UNL     1      -4.584  -1.064  23.703  0.00  0.00    +0.008 A 
ATOM     18  C   UNL     1      -3.730  -0.584  25.870  0.00  0.00    +0.115 A 
ATOM     20  C   UNL     1      -4.022  -2.332  23.795  0.00  0.00    +0.020 A 
ATOM     21  C   UNL     1      -3.331  -2.653  24.952  0.00  0.00    +0.111 A 
ENDBRANCH  13  15
ENDBRANCH   3  13
ENDBRANCH  14   9
TORSDOF 7
ENDMDL
MODEL 2
REMARK VINA RESULT:       0.8      2.068      3.947
REMARK  Name = 45783279
REMARK  8 active torsions:
REMARK  status: ('A' for Active; 'I' for Inactive)
REMARK    1  A    between atoms: O_2  and  C_27
REMARK    2  A    between atoms: O_2  and  C_28
REMARK    3  A    between atoms: N_3  and  C_13
REMARK    4  A    between atoms: N_7  and  C_26
REMARK    5  A    between atoms: C_9  and  C_14
REMARK    6  A    between atoms: C_13  and  C_15
REMARK    7  A    between atoms: C_16  and  C_19
REMARK    8  A    between atoms: C_26  and  C_27
REMARK                            x       y       z     vdW  Elec       q    Type
REMARK                         _______ _______ _______ _____ _____    ______ ____
ROOT
ATOM      1  O   UNL     1      -3.801   1.177  23.671  0.00  0.00    -0.336 OA
ATOM      4  N   UNL     1      -2.782   0.537  25.561  0.00  0.00    -0.190 NA
ATOM      5  N   UNL     1      -2.698   0.409  23.278  0.00  0.00    -0.056 NA
ATOM     14  C   UNL     1      -3.777   1.202  25.030  0.00  0.00    +0.245 A 
ATOM     16  C   UNL     1      -2.148   0.068  24.448  0.00  0.00    +0.202 A 
ENDROOT
BRANCH  16  19
ATOM      7  N   UNL     1       2.463  -0.794  23.251  0.00  0.00    -0.327 N 
ATOM      8  N   UNL     1       1.344  -2.304  24.716  0.00  0.00    -0.240 NA
ATOM     19  C   UNL     1      -0.965  -0.737  24.537  0.00  0.00    +0.027 A 
ATOM     22  C   UNL     1       0.184  -0.371  23.844  0.00  0.00    +0.055 A 
ATOM     23  C   UNL     1      -0.960  -1.887  25.320  0.00  0.00    +0.031 A 
ATOM     24  C   UNL     1       1.301  -1.180  23.965  0.00  0.00    +0.119 A 
ATOM     25  C   UNL     1       0.209  -2.629  25.374  0.00  0.00    +0.113 A 
ATOM     29  H   UNL     1       3.275  -1.393  23.351  0.00  0.00    +0.148 HD
BRANCH   7  26
ATOM     26  C   UNL     1       2.511   0.374  22.434  0.00  0.00    +0.131 C 
BRANCH  26  27
ATOM     27  C   UNL     1       3.860   1.058  22.584  0.00  0.00    +0.178 C 
BRANCH  27   2
ATOM      2  O   UNL     1       4.858   0.082  22.854  0.00  0.00    -0.381 OA
ATOM     28  C   UNL     1       5.550   0.364  24.063  0.00  0.00    +0.194 C 
ENDBRANCH  27   2
ENDBRANCH  26  27
ENDBRANCH   7  26
ENDBRANCH  16  19
BRANCH  14   9
ATOM      3  N   UNL     1      -4.801   3.431  25.452  0.00  0.00    -0.287 NA
ATOM      9  C   UNL     1      -4.884   1.980  25.711  0.00  0.00    +0.146 C 
ATOM     10  C   UNL     1      -6.286   1.575  25.217  0.00  0.00    +0.030 C 
ATOM     11  C   UNL     1      -6.935   2.872  24.756  0.00  0.00    +0.017 C 
ATOM     12  C   UNL     1      -6.170   3.941  25.510  0.00  0.00    +0.085 C 
BRANCH   3  13
ATOM     13  C   UNL     1      -3.916   4.129  26.376  0.00  0.00    +0.121 C 
BRANCH  13  15
ATOM      6  N   UNL     1      -0.313   3.107  25.819  0.00  0.00    -0.263 NA
ATOM     15  C   UNL     1      -2.494   4.150  25.882  0.00  0.00    -0.015 A 
ATOM     17  C   UNL     1      -2.032   5.179  25.068  0.00  0.00    +0.008 A 
ATOM     18  C   UNL     1      -1.602   3.147  26.226  0.00  0.00    +0.115 A 
ATOM     20  C   UNL     1      -0.713   5.173  24.629  0.00  0.00    +0.020 A 
ATOM     21  C   UNL     1       0.099   4.124  25.029  0.00  0.00    +0.111 A 
ENDBRANCH  13  15
ENDBRANCH   3  13
ENDBRANCH  14   9
TORSDOF 7
ENDMDL
MODEL 3
REMARK VINA RESULT:       1.0      2.264      7.219
REMARK  Name = 45783279
REMARK  8 active torsions:
REMARK  status: ('A' for Active; 'I' for Inactive)
REMARK    1  A    between atoms: O_2  and  C_27
REMARK    2  A    between atoms: O_2  and  C_28
REMARK    3  A    between atoms: N_3  and  C_13
REMARK    4  A    between atoms: N_7  and  C_26
REMARK    5  A    between atoms: C_9  and  C_14
REMARK    6  A    between atoms: C_13  and  C_15
REMARK    7  A    between atoms: C_16  and  C_19
REMARK    8  A    between atoms: C_26  and  C_27
REMARK                            x       y       z     vdW  Elec       q    Type
REMARK                         _______ _______ _______ _____ _____    ______ ____
ROOT
ATOM      1  O   UNL     1      -3.545  -1.559  23.877  0.00  0.00    -0.336 OA
ATOM      4  N   UNL     1      -2.476   0.255  24.643  0.00  0.00    -0.190 NA
ATOM      5  N   UNL     1      -4.535  -0.599  24.124  0.00  0.00    -0.056 NA
ATOM     14  C   UNL     1      -2.363  -0.975  24.208  0.00  0.00    +0.245 A 
ATOM     16  C   UNL     1      -3.826   0.441  24.573  0.00  0.00    +0.202 A 
ENDROOT
BRANCH  16  19
ATOM      7  N   UNL     1      -3.507   5.171  25.555  0.00  0.00    -0.327 N 
ATOM      8  N   UNL     1      -5.626   4.095  25.715  0.00  0.00    -0.240 NA
ATOM     19  C   UNL     1      -4.436   1.679  24.962  0.00  0.00    +0.027 A 
ATOM     22  C   UNL     1      -3.667   2.834  25.070  0.00  0.00    +0.055 A 
ATOM     23  C   UNL     1      -5.800   1.733  25.229  0.00  0.00    +0.031 A 
ATOM     24  C   UNL     1      -4.303   4.004  25.447  0.00  0.00    +0.119 A 
ATOM     25  C   UNL     1      -6.341   2.953  25.600  0.00  0.00    +0.113 A 
ATOM     29  H   UNL     1      -3.985   6.022  25.828  0.00  0.00    +0.148 HD
BRANCH   7  26
ATOM     26  C   UNL     1      -2.104   5.172  25.293  0.00  0.00    +0.131 C 
BRANCH  26  27
ATOM     27  C   UNL     1      -1.457   3.950  25.924  0.00  0.00    +0.178 C 
BRANCH  27   2
ATOM      2  O   UNL     1      -0.421   3.471  25.075  0.00  0.00    -0.381 OA
ATOM     28  C   UNL     1       0.205   2.317  25.618  0.00  0.00    +0.194 C 
ENDBRANCH  27   2
ENDBRANCH  26  27
ENDBRANCH   7  26
ENDBRANCH  16  19
BRANCH  14   9
ATOM      3  N   UNL     1       0.124  -1.057  24.258  0.00  0.00    -0.287 NA
ATOM      9  C   UNL     1      -1.119  -1.820  24.027  0.00  0.00    +0.146 C 
ATOM     10  C   UNL     1      -1.048  -2.995  25.022  0.00  0.00    +0.030 C 
ATOM     11  C   UNL     1       0.294  -2.841  25.722  0.00  0.00    +0.017 C 
ATOM     12  C   UNL     1       1.112  -2.017  24.748  0.00  0.00    +0.085 C 
BRANCH   3  13
ATOM     13  C   UNL     1       0.589  -0.346  23.075  0.00  0.00    +0.121 C 
BRANCH  13  15
ATOM      6  N   UNL     1       4.292  -1.047  23.438  0.00  0.00    -0.263 NA
ATOM     15  C   UNL     1       2.079  -0.133  23.099  0.00  0.00    -0.015 A 
ATOM     17  C   UNL     1       2.630   1.114  22.821  0.00  0.00    +0.008 A 
ATOM     18  C   UNL     1       2.946  -1.172  23.399  0.00  0.00    +0.115 A 
ATOM     20  C   UNL     1       4.010   1.281  22.852  0.00  0.00    +0.020 A 
ATOM     21  C   UNL     1       4.790   0.180  23.163  0.00  0.00    +0.111 A 
ENDBRANCH  13  15
ENDBRANCH   3  13
ENDBRANCH  14   9
TORSDOF 7
ENDMDL
MODEL 4
REMARK VINA RESULT:       1.3      2.244      6.786
REMARK  Name = 45783279
REMARK  8 active torsions:
REMARK  status: ('A' for Active; 'I' for Inactive)
REMARK    1  A    between atoms: O_2  and  C_27
REMARK    2  A    between atoms: O_2  and  C_28
REMARK    3  A    between atoms: N_3  and  C_13
REMARK    4  A    between atoms: N_7  and  C_26
REMARK    5  A    between atoms: C_9  and  C_14
REMARK    6  A    between atoms: C_13  and  C_15
REMARK    7  A    between atoms: C_16  and  C_19
REMARK    8  A    between atoms: C_26  and  C_27
REMARK                            x       y       z     vdW  Elec       q    Type
REMARK                         _______ _______ _______ _____ _____    ______ ____
ROOT
ATOM      1  O   UNL     1       1.008   1.988  25.909  0.00  0.00    -0.336 OA
ATOM      4  N   UNL     1      -0.609   2.045  24.359  0.00  0.00    -0.190 NA
ATOM      5  N   UNL     1       0.081   2.942  26.348  0.00  0.00    -0.056 NA
ATOM     14  C   UNL     1       0.526   1.509  24.732  0.00  0.00    +0.245 A 
ATOM     16  C   UNL     1      -0.842   2.917  25.381  0.00  0.00    +0.202 A 
ENDROOT
BRANCH  16  19
ATOM      7  N   UNL     1      -5.637   3.453  25.787  0.00  0.00    -0.327 N 
ATOM      8  N   UNL     1      -4.278   5.383  25.462  0.00  0.00    -0.240 NA
ATOM     19  C   UNL     1      -2.007   3.753  25.407  0.00  0.00    +0.027 A 
ATOM     22  C   UNL     1      -3.267   3.191  25.586  0.00  0.00    +0.055 A 
ATOM     23  C   UNL     1      -1.882   5.130  25.256  0.00  0.00    +0.031 A 
ATOM     24  C   UNL     1      -4.360   4.041  25.606  0.00  0.00    +0.119 A 
ATOM     25  C   UNL     1      -3.038   5.893  25.290  0.00  0.00    +0.113 A 
ATOM     29  H   UNL     1      -6.428   4.086  25.803  0.00  0.00    +0.148 HD
BRANCH   7  26
ATOM     26  C   UNL     1      -5.820   2.047  25.946  0.00  0.00    +0.131 C 
BRANCH  26  27
ATOM     27  C   UNL     1      -5.948   1.383  24.586  0.00  0.00    +0.178 C 
BRANCH  27   2
ATOM      2  O   UNL     1      -4.879   0.462  24.406  0.00  0.00    -0.381 OA
ATOM     28  C   UNL     1      -3.891   0.978  23.525  0.00  0.00    +0.194 C 
ENDBRANCH  27   2
ENDBRANCH  26  27
ENDBRANCH   7  26
ENDBRANCH  16  19
BRANCH  14   9
ATOM      3  N   UNL     1       0.543  -0.673  23.534  0.00  0.00    -0.287 NA
ATOM      9  C   UNL     1       1.359   0.447  24.044  0.00  0.00    +0.146 C 
ATOM     10  C   UNL     1       2.103   0.984  22.806  0.00  0.00    +0.030 C 
ATOM     11  C   UNL     1       1.689   0.067  21.665  0.00  0.00    +0.017 C 
ATOM     12  C   UNL     1       1.250  -1.202  22.368  0.00  0.00    +0.085 C 
BRANCH   3  13
ATOM     13  C   UNL     1       0.290  -1.701  24.535  0.00  0.00    +0.121 C 
BRANCH  13  15
ATOM      6  N   UNL     1      -3.001  -1.043  26.288  0.00  0.00    -0.263 NA
ATOM     15  C   UNL     1      -1.170  -1.786  24.895  0.00  0.00    -0.015 A 
ATOM     17  C   UNL     1      -2.027  -2.645  24.215  0.00  0.00    +0.008 A 
ATOM     18  C   UNL     1      -1.701  -1.013  25.914  0.00  0.00    +0.115 A 
ATOM     20  C   UNL     1      -3.370  -2.703  24.571  0.00  0.00    +0.020 A 
ATOM     21  C   UNL     1      -3.803  -1.889  25.605  0.00  0.00    +0.111 A 
ENDBRANCH  13  15
ENDBRANCH   3  13
ENDBRANCH  14   9
TORSDOF 7
ENDMDL
MODEL 5
REMARK VINA RESULT:       1.7      2.091      7.467
REMARK  Name = 45783279
REMARK  8 active torsions:
REMARK  status: ('A' for Active; 'I' for Inactive)
REMARK    1  A    between atoms: O_2  and  C_27
REMARK    2  A    between atoms: O_2  and  C_28
REMARK    3  A    between atoms: N_3  and  C_13
REMARK    4  A    between atoms: N_7  and  C_26
REMARK    5  A    between atoms: C_9  and  C_14
REMARK    6  A    between atoms: C_13  and  C_15
REMARK    7  A    between atoms: C_16  and  C_19
REMARK    8  A    between atoms: C_26  and  C_27
REMARK                            x       y       z     vdW  Elec       q    Type
REMARK                         _______ _______ _______ _____ _____    ______ ____
ROOT
ATOM      1  O   UNL     1       1.127  -1.347  24.443  0.00  0.00    -0.336 OA
ATOM      4  N   UNL     1      -0.440  -0.391  23.158  0.00  0.00    -0.190 NA
ATOM      5  N   UNL     1      -0.103  -1.838  24.898  0.00  0.00    -0.056 NA
ATOM     14  C   UNL     1       0.838  -0.503  23.417  0.00  0.00    +0.245 A 
ATOM     16  C   UNL     1      -0.977  -1.229  24.092  0.00  0.00    +0.202 A 
ENDROOT
BRANCH  16  19
ATOM      7  N   UNL     1      -5.440   0.492  24.841  0.00  0.00    -0.327 N 
ATOM      8  N   UNL     1      -5.154  -1.829  24.389  0.00  0.00    -0.240 NA
ATOM     19  C   UNL     1      -2.393  -1.433  24.194  0.00  0.00    +0.027 A 
ATOM     22  C   UNL     1      -3.235  -0.361  24.470  0.00  0.00    +0.055 A 
ATOM     23  C   UNL     1      -2.931  -2.703  24.015  0.00  0.00    +0.031 A 
ATOM     24  C   UNL     1      -4.595  -0.609  24.557  0.00  0.00    +0.119 A 
ATOM     25  C   UNL     1      -4.304  -2.847  24.122  0.00  0.00    +0.113 A 
ATOM     29  H   UNL     1      -6.433   0.298  24.898  0.00  0.00    +0.148 HD
BRANCH   7  26
ATOM     26  C   UNL     1      -4.941   1.815  25.035  0.00  0.00    +0.131 C 
BRANCH  26  27
ATOM     27  C   UNL     1      -5.840   2.574  25.996  0.00  0.00    +0.178 C 
BRANCH  27   2
ATOM      2  O   UNL     1      -5.716   3.970  25.757  0.00  0.00    -0.381 OA
ATOM     28  C   UNL     1      -4.652   4.253  24.859  0.00  0.00    +0.194 C 
ENDBRANCH  27   2
ENDBRANCH  26  27
ENDBRANCH   7  26
ENDBRANCH  16  19
BRANCH  14   9
ATOM      3  N   UNL     1       2.512   1.337  23.495  0.00  0.00    -0.287 NA
ATOM      9  C   UNL     1       2.018   0.167  22.743  0.00  0.00    +0.146 C 
ATOM     10  C   UNL     1       3.240  -0.763  22.620  0.00  0.00    +0.030 C 
ATOM     11  C   UNL     1       4.384  -0.005  23.277  0.00  0.00    +0.017 C 
ATOM     12  C   UNL     1       3.941   1.443  23.203  0.00  0.00    +0.085 C 
BRANCH   3  13
ATOM     13  C   UNL     1       1.796   2.567  23.180  0.00  0.00    +0.121 C 
BRANCH  13  15
ATOM      6  N   UNL     1      -0.496   2.199  26.170  0.00  0.00    -0.263 NA
ATOM     15  C   UNL     1       0.681   2.833  24.156  0.00  0.00    -0.015 A 
ATOM     17  C   UNL     1      -0.186   3.905  23.978  0.00  0.00    +0.008 A 
ATOM     18  C   UNL     1       0.485   2.016  25.258  0.00  0.00    +0.115 A 
ATOM     20  C   UNL     1      -1.208   4.125  24.895  0.00  0.00    +0.020 A 
ATOM     21  C   UNL     1      -1.320   3.251  25.964  0.00  0.00    +0.111 A 
ENDBRANCH  13  15
ENDBRANCH   3  13
ENDBRANCH  14   9
TORSDOF 7
ENDMDL
MODEL 6
REMARK VINA RESULT:       2.0      1.192      3.463
REMARK  Name = 45783279
REMARK  8 active torsions:
REMARK  status: ('A' for Active; 'I' for Inactive)
REMARK    1  A    between atoms: O_2  and  C_27
REMARK    2  A    between atoms: O_2  and  C_28
REMARK    3  A    between atoms: N_3  and  C_13
REMARK    4  A    between atoms: N_7  and  C_26
REMARK    5  A    between atoms: C_9  and  C_14
REMARK    6  A    between atoms: C_13  and  C_15
REMARK    7  A    between atoms: C_16  and  C_19
REMARK    8  A    between atoms: C_26  and  C_27
REMARK                            x       y       z     vdW  Elec       q    Type
REMARK                         _______ _______ _______ _____ _____    ______ ____
ROOT
ATOM      1  O   UNL     1      -1.043   1.257  25.906  0.00  0.00    -0.336 OA
ATOM      4  N   UNL     1      -1.449   0.243  23.950  0.00  0.00    -0.190 NA
ATOM      5  N   UNL     1       0.189   1.183  25.242  0.00  0.00    -0.056 NA
ATOM     14  C   UNL     1      -1.952   0.681  25.076  0.00  0.00    +0.245 A 
ATOM     16  C   UNL     1      -0.134   0.574  24.097  0.00  0.00    +0.202 A 
ENDROOT
BRANCH  16  19
ATOM      7  N   UNL     1       4.436   0.602  22.497  0.00  0.00    -0.327 N 
ATOM      8  N   UNL     1       2.726  -0.302  21.105  0.00  0.00    -0.240 NA
ATOM     19  C   UNL     1       0.835   0.278  23.082  0.00  0.00    +0.027 A 
ATOM     22  C   UNL     1       2.176   0.587  23.286  0.00  0.00    +0.055 A 
ATOM     23  C   UNL     1       0.439  -0.320  21.891  0.00  0.00    +0.031 A 
ATOM     24  C   UNL     1       3.073   0.280  22.276  0.00  0.00    +0.119 A 
ATOM     25  C   UNL     1       1.414  -0.586  20.944  0.00  0.00    +0.113 A 
ATOM     29  H   UNL     1       5.082   0.369  21.752  0.00  0.00    +0.148 HD
BRANCH   7  26
ATOM     26  C   UNL     1       4.895   1.217  23.700  0.00  0.00    +0.131 C 
BRANCH  26  27
ATOM     27  C   UNL     1       5.511   0.172  24.616  0.00  0.00    +0.178 C 
BRANCH  27   2
ATOM      2  O   UNL     1       5.798  -1.003  23.867  0.00  0.00    -0.381 OA
ATOM     28  C   UNL     1       4.775  -1.979  24.017  0.00  0.00    +0.194 C 
ENDBRANCH  27   2
ENDBRANCH  26  27
ENDBRANCH   7  26
ENDBRANCH  16  19
BRANCH  14   9
ATOM      3  N   UNL     1      -4.281   1.513  24.794  0.00  0.00    -0.287 NA
ATOM      9  C   UNL     1      -3.383   0.636  25.571  0.00  0.00    +0.146 C 
ATOM     10  C   UNL     1      -4.009  -0.767  25.454  0.00  0.00    +0.030 C 
ATOM     11  C   UNL     1      -5.283  -0.567  24.646  0.00  0.00    +0.017 C 
ATOM     12  C   UNL     1      -5.607   0.900  24.848  0.00  0.00    +0.085 C 
BRANCH   3  13
ATOM     13  C   UNL     1      -4.294   2.890  25.271  0.00  0.00    +0.121 C 
BRANCH  13  15
ATOM      6  N   UNL     1      -1.200   3.964  23.372  0.00  0.00    -0.263 NA
ATOM     15  C   UNL     1      -3.022   3.616  24.923  0.00  0.00    -0.015 A 
ATOM     17  C   UNL     1      -2.487   4.575  25.776  0.00  0.00    +0.008 A 
ATOM     18  C   UNL     1      -2.346   3.350  23.743  0.00  0.00    +0.115 A 
ATOM     20  C   UNL     1      -1.310   5.228  25.429  0.00  0.00    +0.020 A 
ATOM     21  C   UNL     1      -0.710   4.890  24.227  0.00  0.00    +0.111 A 
ENDBRANCH  13  15
ENDBRANCH   3  13
ENDBRANCH  14   9
TORSDOF 7
ENDMDL
