MODEL 1
REMARK VINA RESULT:       1.3      0.000      0.000
REMARK  Name = 11885122
REMARK  5 active torsions:
REMARK  status: ('A' for Active; 'I' for Inactive)
REMARK    1  A    between atoms: O_3  and  C_27
REMARK    2  A    between atoms: O_3  and  C_31
REMARK    3  A    between atoms: C_15  and  C_18
REMARK    4  A    between atoms: C_16  and  C_19
REMARK    5  A    between atoms: C_18  and  C_20
REMARK                            x       y       z     vdW  Elec       q    Type
REMARK                         _______ _______ _______ _____ _____    ______ ____
ROOT
ATOM      1  O   UNL     1      -0.026   2.311  25.648  0.00  0.00    -0.267 OA
ATOM      2  O   UNL     1      -4.866   0.349  26.792  0.00  0.00    -0.275 OA
ATOM      4  N   UNL     1      -5.018   2.025  25.191  0.00  0.00    -0.300 N 
ATOM      5  N   UNL     1      -2.010   2.899  24.571  0.00  0.00    -0.311 N 
ATOM      6  C   UNL     1      -3.888   4.181  25.749  0.00  0.00    +0.027 C 
ATOM      7  C   UNL     1      -4.151   3.515  23.397  0.00  0.00    +0.054 C 
ATOM      8  C   UNL     1      -4.217   4.702  24.356  0.00  0.00    +0.018 C 
ATOM      9  C   UNL     1      -4.899   3.103  26.176  0.00  0.00    +0.113 C 
ATOM     10  C   UNL     1      -2.448   3.654  25.754  0.00  0.00    +0.130 C 
ATOM     11  C   UNL     1      -5.207   2.466  23.801  0.00  0.00    +0.117 C 
ATOM     12  C   UNL     1      -2.772   2.884  23.401  0.00  0.00    +0.027 A 
ATOM     13  C   UNL     1      -2.297   2.289  22.295  0.00  0.00    +0.022 A 
ATOM     14  C   UNL     1      -0.742   2.290  24.644  0.00  0.00    +0.259 A 
ATOM     15  C   UNL     1      -5.027   0.697  25.620  0.00  0.00    +0.220 C 
ATOM     16  C   UNL     1      -0.253   1.599  23.400  0.00  0.00    +0.047 A 
ATOM     17  C   UNL     1      -1.020   1.634  22.301  0.00  0.00    +0.015 A 
ENDROOT
BRANCH  16  19
ATOM     19  C   UNL     1       1.039   0.889  23.379  0.00  0.00    -0.012 A 
ATOM     21  C   UNL     1       2.221   1.596  23.160  0.00  0.00    +0.012 A 
ATOM     22  C   UNL     1       1.079  -0.491  23.578  0.00  0.00    +0.012 A 
ATOM     25  C   UNL     1       3.443   0.923  23.139  0.00  0.00    +0.046 A 
ATOM     26  C   UNL     1       2.301  -1.164  23.558  0.00  0.00    +0.046 A 
ATOM     27  C   UNL     1       3.484  -0.456  23.338  0.00  0.00    +0.120 A 
BRANCH  27   3
ATOM      3  O   UNL     1       4.676  -1.112  23.318  0.00  0.00    -0.495 OA
ATOM     31  C   UNL     1       5.788  -0.459  23.930  0.00  0.00    +0.277 C 
ENDBRANCH  27   3
ENDBRANCH  16  19
BRANCH  15  18
ATOM     18  C   UNL     1      -5.240  -0.354  24.560  0.00  0.00    +0.131 C 
BRANCH  18  20
ATOM     20  C   UNL     1      -4.042  -1.245  24.454  0.00  0.00    -0.039 A 
ATOM     23  C   UNL     1      -4.190  -2.551  23.995  0.00  0.00    +0.004 A 
ATOM     24  C   UNL     1      -2.787  -0.763  24.813  0.00  0.00    +0.004 A 
ATOM     28  C   UNL     1      -3.074  -3.382  23.897  0.00  0.00    +0.000 A 
ATOM     29  C   UNL     1      -1.670  -1.594  24.715  0.00  0.00    +0.000 A 
ATOM     30  C   UNL     1      -1.814  -2.903  24.256  0.00  0.00    +0.000 A 
ENDBRANCH  18  20
ENDBRANCH  15  18
TORSDOF 4
ENDMDL
MODEL 2
REMARK VINA RESULT:       3.4      0.358      1.265
REMARK  Name = 11885122
REMARK  5 active torsions:
REMARK  status: ('A' for Active; 'I' for Inactive)
REMARK    1  A    between atoms: O_3  and  C_27
REMARK    2  A    between atoms: O_3  and  C_31
REMARK    3  A    between atoms: C_15  and  C_18
REMARK    4  A    between atoms: C_16  and  C_19
REMARK    5  A    between atoms: C_18  and  C_20
REMARK                            x       y       z     vdW  Elec       q    Type
REMARK                         _______ _______ _______ _____ _____    ______ ____
ROOT
ATOM      1  O   UNL     1      -0.124   2.596  25.594  0.00  0.00    -0.267 OA
ATOM      2  O   UNL     1      -4.889   0.525  26.853  0.00  0.00    -0.275 OA
ATOM      4  N   UNL     1      -5.102   2.107  25.166  0.00  0.00    -0.300 N 
ATOM      5  N   UNL     1      -2.128   3.055  24.493  0.00  0.00    -0.311 N 
ATOM      6  C   UNL     1      -4.050   4.329  25.606  0.00  0.00    +0.027 C 
ATOM      7  C   UNL     1      -4.291   3.530  23.294  0.00  0.00    +0.054 C 
ATOM      8  C   UNL     1      -4.399   4.764  24.188  0.00  0.00    +0.018 C 
ATOM      9  C   UNL     1      -5.021   3.240  26.092  0.00  0.00    +0.113 C 
ATOM     10  C   UNL     1      -2.592   3.855  25.635  0.00  0.00    +0.130 C 
ATOM     11  C   UNL     1      -5.308   2.467  23.755  0.00  0.00    +0.117 C 
ATOM     12  C   UNL     1      -2.890   2.951  23.327  0.00  0.00    +0.027 A 
ATOM     13  C   UNL     1      -2.394   2.315  22.253  0.00  0.00    +0.022 A 
ATOM     14  C   UNL     1      -0.839   2.496  24.595  0.00  0.00    +0.259 A 
ATOM     15  C   UNL     1      -5.063   0.805  25.665  0.00  0.00    +0.220 C 
ATOM     16  C   UNL     1      -0.326   1.758  23.388  0.00  0.00    +0.047 A 
ATOM     17  C   UNL     1      -1.095   1.707  22.290  0.00  0.00    +0.015 A 
ENDROOT
BRANCH  16  19
ATOM     19  C   UNL     1       0.990   1.095  23.401  0.00  0.00    -0.012 A 
ATOM     21  C   UNL     1       1.073  -0.295  23.314  0.00  0.00    +0.012 A 
ATOM     22  C   UNL     1       2.155   1.857  23.501  0.00  0.00    +0.012 A 
ATOM     25  C   UNL     1       2.319  -0.922  23.327  0.00  0.00    +0.046 A 
ATOM     26  C   UNL     1       3.401   1.230  23.514  0.00  0.00    +0.046 A 
ATOM     27  C   UNL     1       3.483  -0.160  23.427  0.00  0.00    +0.120 A 
BRANCH  27   3
ATOM      3  O   UNL     1       4.698  -0.772  23.440  0.00  0.00    -0.495 OA
ATOM     31  C   UNL     1       5.692  -0.262  22.552  0.00  0.00    +0.277 C 
ENDBRANCH  27   3
ENDBRANCH  16  19
BRANCH  15  18
ATOM     18  C   UNL     1      -5.239  -0.308  24.663  0.00  0.00    +0.131 C 
BRANCH  18  20
ATOM     20  C   UNL     1      -3.996  -1.137  24.573  0.00  0.00    -0.039 A 
ATOM     23  C   UNL     1      -2.803  -0.655  25.105  0.00  0.00    +0.004 A 
ATOM     24  C   UNL     1      -4.039  -2.384  23.957  0.00  0.00    +0.004 A 
ATOM     28  C   UNL     1      -1.644  -1.427  25.021  0.00  0.00    +0.000 A 
ATOM     29  C   UNL     1      -2.880  -3.156  23.873  0.00  0.00    +0.000 A 
ATOM     30  C   UNL     1      -1.683  -2.677  24.405  0.00  0.00    +0.000 A 
ENDBRANCH  18  20
ENDBRANCH  15  18
TORSDOF 4
ENDMDL
