MODEL 1
REMARK VINA RESULT:      -0.4      0.000      0.000
REMARK  Name = 11941656
REMARK  7 active torsions:
REMARK  status: ('A' for Active; 'I' for Inactive)
REMARK    1  A    between atoms: O_4  and  C_29
REMARK    2  A    between atoms: O_4  and  C_30
REMARK    3  A    between atoms: N_5  and  C_12
REMARK    4  A    between atoms: N_6  and  C_13
REMARK    5  A    between atoms: N_7  and  C_19
REMARK    6  A    between atoms: C_18  and  C_22
REMARK    7  A    between atoms: C_19  and  C_23
REMARK                            x       y       z     vdW  Elec       q    Type
REMARK                         _______ _______ _______ _____ _____    ______ ____
ROOT
ATOM      1  O   UNL     1      -5.012   3.043  25.865  0.00  0.00    -0.370 OA
ATOM      2  O   UNL     1      -3.198   3.245  23.333  0.00  0.00    -0.370 OA
ATOM     10  C   UNL     1      -3.427   2.205  24.299  0.00  0.00    +0.171 C 
ATOM     11  C   UNL     1      -3.601   2.875  25.648  0.00  0.00    +0.171 C 
ATOM     12  C   UNL     1      -4.759   1.539  24.044  0.00  0.00    +0.130 C 
ATOM     13  C   UNL     1      -2.930   4.220  25.481  0.00  0.00    +0.131 C 
ATOM     14  C   UNL     1      -5.731   2.445  24.777  0.00  0.00    +0.185 C 
ATOM     15  C   UNL     1      -3.153   4.512  24.007  0.00  0.00    +0.185 C 
ENDROOT
BRANCH  12   5
ATOM      5  N   UNL     1      -4.770   0.216  24.631  0.00  0.00    -0.306 N 
ATOM      8  N   UNL     1      -2.488  -0.056  24.292  0.00  0.00    -0.214 NA
ATOM      9  N   UNL     1      -3.813  -1.783  25.326  0.00  0.00    -0.223 NA
ATOM     16  C   UNL     1      -3.641  -0.575  24.755  0.00  0.00    +0.216 A 
ATOM     18  C   UNL     1      -1.410  -0.854  24.428  0.00  0.00    +0.076 A 
ATOM     20  C   UNL     1      -2.694  -2.527  25.431  0.00  0.00    +0.116 A 
ATOM     21  C   UNL     1      -1.452  -2.110  24.996  0.00  0.00    +0.048 A 
ATOM     31  H   UNL     1      -5.630  -0.147  25.025  0.00  0.00    +0.149 HD
BRANCH  18  22
ATOM     22  C   UNL     1      -0.171  -0.300  23.934  0.00  0.00    +0.001 A 
ATOM     24  C   UNL     1       0.712  -1.103  23.213  0.00  0.00    +0.013 A 
ATOM     25  C   UNL     1       0.143   1.037  24.179  0.00  0.00    +0.013 A 
ATOM     26  C   UNL     1       1.909  -0.569  22.736  0.00  0.00    +0.046 A 
ATOM     27  C   UNL     1       1.340   1.570  23.702  0.00  0.00    +0.046 A 
ATOM     29  C   UNL     1       2.223   0.768  22.980  0.00  0.00    +0.120 A 
BRANCH  29   4
ATOM      4  O   UNL     1       3.390   1.288  22.513  0.00  0.00    -0.495 OA
ATOM     30  C   UNL     1       4.601   0.719  23.009  0.00  0.00    +0.277 C 
ENDBRANCH  29   4
ENDBRANCH  18  22
ENDBRANCH  12   5
BRANCH  13   6
ATOM      3  O   UNL     1      -1.573   2.103  26.896  0.00  0.00    -0.253 OA
ATOM      6  N   UNL     1      -1.523   4.145  25.793  0.00  0.00    -0.292 N 
ATOM      7  N   UNL     1       0.421   3.263  26.649  0.00  0.00    -0.296 N 
ATOM     17  C   UNL     1      -0.950   3.080  26.485  0.00  0.00    +0.300 C 
ATOM     32  H   UNL     1      -0.910   4.872  25.437  0.00  0.00    +0.151 HD
ATOM     33  H   UNL     1       0.853   4.094  26.257  0.00  0.00    +0.151 HD
BRANCH   7  19
ATOM     19  C   UNL     1       1.260   2.308  27.332  0.00  0.00    +0.132 C 
BRANCH  19  23
ATOM     23  C   UNL     1       1.741   2.907  28.612  0.00  0.00    -0.016 C 
ATOM     28  C   UNL     1       1.641   2.304  29.802  0.00  0.00    +0.005 C 
ENDBRANCH  19  23
ENDBRANCH   7  19
ENDBRANCH  13   6
TORSDOF 6
ENDMDL
MODEL 2
REMARK VINA RESULT:       1.2      2.166      5.162
REMARK  Name = 11941656
REMARK  7 active torsions:
REMARK  status: ('A' for Active; 'I' for Inactive)
REMARK    1  A    between atoms: O_4  and  C_29
REMARK    2  A    between atoms: O_4  and  C_30
REMARK    3  A    between atoms: N_5  and  C_12
REMARK    4  A    between atoms: N_6  and  C_13
REMARK    5  A    between atoms: N_7  and  C_19
REMARK    6  A    between atoms: C_18  and  C_22
REMARK    7  A    between atoms: C_19  and  C_23
REMARK                            x       y       z     vdW  Elec       q    Type
REMARK                         _______ _______ _______ _____ _____    ______ ____
ROOT
ATOM      1  O   UNL     1      -3.247  -1.454  22.999  0.00  0.00    -0.370 OA
ATOM      2  O   UNL     1      -2.227  -1.631  25.943  0.00  0.00    -0.370 OA
ATOM     10  C   UNL     1      -2.796  -0.568  25.161  0.00  0.00    +0.171 C 
ATOM     11  C   UNL     1      -2.267  -0.716  23.748  0.00  0.00    +0.171 C 
ATOM     12  C   UNL     1      -4.287  -0.762  25.020  0.00  0.00    +0.130 C 
ATOM     13  C   UNL     1      -1.005  -1.532  23.911  0.00  0.00    +0.131 C 
ATOM     14  C   UNL     1      -4.389  -1.702  23.831  0.00  0.00    +0.185 C 
ATOM     15  C   UNL     1      -1.328  -2.391  25.122  0.00  0.00    +0.185 C 
ENDROOT
BRANCH  12   5
ATOM      5  N   UNL     1      -4.924   0.501  24.714  0.00  0.00    -0.306 N 
ATOM      8  N   UNL     1      -3.115   1.715  25.522  0.00  0.00    -0.214 NA
ATOM      9  N   UNL     1      -5.058   2.817  24.619  0.00  0.00    -0.223 NA
ATOM     16  C   UNL     1      -4.340   1.731  24.962  0.00  0.00    +0.216 A 
ATOM     18  C   UNL     1      -2.578   2.930  25.751  0.00  0.00    +0.076 A 
ATOM     20  C   UNL     1      -4.461   3.999  24.875  0.00  0.00    +0.116 A 
ATOM     21  C   UNL     1      -3.209   4.118  25.445  0.00  0.00    +0.048 A 
ATOM     31  H   UNL     1      -5.822   0.506  24.244  0.00  0.00    +0.149 HD
BRANCH  18  22
ATOM     22  C   UNL     1      -1.265   2.917  26.351  0.00  0.00    +0.001 A 
ATOM     24  C   UNL     1      -0.131   3.033  25.547  0.00  0.00    +0.013 A 
ATOM     25  C   UNL     1      -1.129   2.785  27.733  0.00  0.00    +0.013 A 
ATOM     26  C   UNL     1       1.138   3.018  26.126  0.00  0.00    +0.046 A 
ATOM     27  C   UNL     1       0.140   2.771  28.311  0.00  0.00    +0.046 A 
ATOM     29  C   UNL     1       1.274   2.888  27.508  0.00  0.00    +0.120 A 
BRANCH  29   4
ATOM      4  O   UNL     1       2.512   2.875  28.072  0.00  0.00    -0.495 OA
ATOM     30  C   UNL     1       2.582   2.672  29.482  0.00  0.00    +0.277 C 
ENDBRANCH  29   4
ENDBRANCH  18  22
ENDBRANCH  12   5
BRANCH  13   6
ATOM      3  O   UNL     1       0.826  -0.463  21.954  0.00  0.00    -0.253 OA
ATOM      6  N   UNL     1       0.137  -0.686  24.160  0.00  0.00    -0.292 N 
ATOM      7  N   UNL     1       1.993   0.580  23.667  0.00  0.00    -0.296 N 
ATOM     17  C   UNL     1       0.972  -0.213  23.149  0.00  0.00    +0.300 C 
ATOM     32  H   UNL     1       0.305  -0.367  25.110  0.00  0.00    +0.151 HD
ATOM     33  H   UNL     1       2.022   0.748  24.668  0.00  0.00    +0.151 HD
BRANCH   7  19
ATOM     19  C   UNL     1       3.000   1.198  22.837  0.00  0.00    +0.132 C 
BRANCH  19  23
ATOM     23  C   UNL     1       4.203   0.316  22.790  0.00  0.00    -0.016 C 
ATOM     28  C   UNL     1       5.201   0.367  23.680  0.00  0.00    +0.005 C 
ENDBRANCH  19  23
ENDBRANCH   7  19
ENDBRANCH  13   6
TORSDOF 6
ENDMDL
MODEL 3
REMARK VINA RESULT:       2.5      2.120      4.551
REMARK  Name = 11941656
REMARK  7 active torsions:
REMARK  status: ('A' for Active; 'I' for Inactive)
REMARK    1  A    between atoms: O_4  and  C_29
REMARK    2  A    between atoms: O_4  and  C_30
REMARK    3  A    between atoms: N_5  and  C_12
REMARK    4  A    between atoms: N_6  and  C_13
REMARK    5  A    between atoms: N_7  and  C_19
REMARK    6  A    between atoms: C_18  and  C_22
REMARK    7  A    between atoms: C_19  and  C_23
REMARK                            x       y       z     vdW  Elec       q    Type
REMARK                         _______ _______ _______ _____ _____    ______ ____
ROOT
ATOM      1  O   UNL     1      -2.399   3.385  26.998  0.00  0.00    -0.370 OA
ATOM      2  O   UNL     1      -1.078   4.262  24.311  0.00  0.00    -0.370 OA
ATOM     10  C   UNL     1      -2.356   3.693  24.639  0.00  0.00    +0.171 C 
ATOM     11  C   UNL     1      -2.132   2.701  25.763  0.00  0.00    +0.171 C 
ATOM     12  C   UNL     1      -3.255   4.743  25.248  0.00  0.00    +0.130 C 
ATOM     13  C   UNL     1      -0.664   2.353  25.660  0.00  0.00    +0.131 C 
ATOM     14  C   UNL     1      -2.857   4.714  26.713  0.00  0.00    +0.185 C 
ATOM     15  C   UNL     1      -0.065   3.638  25.114  0.00  0.00    +0.185 C 
ENDROOT
BRANCH  12   5
ATOM      5  N   UNL     1      -4.641   4.355  25.100  0.00  0.00    -0.306 N 
ATOM      8  N   UNL     1      -4.098   2.097  25.031  0.00  0.00    -0.214 NA
ATOM      9  N   UNL     1      -6.384   2.838  24.863  0.00  0.00    -0.223 NA
ATOM     16  C   UNL     1      -5.059   3.039  24.994  0.00  0.00    +0.216 A 
ATOM     18  C   UNL     1      -4.540   0.828  24.924  0.00  0.00    +0.076 A 
ATOM     20  C   UNL     1      -6.757   1.546  24.761  0.00  0.00    +0.116 A 
ATOM     21  C   UNL     1      -5.870   0.488  24.786  0.00  0.00    +0.048 A 
ATOM     31  H   UNL     1      -5.364   5.065  25.125  0.00  0.00    +0.149 HD
BRANCH  18  22
ATOM     22  C   UNL     1      -3.512  -0.185  24.964  0.00  0.00    +0.001 A 
ATOM     24  C   UNL     1      -2.855  -0.463  26.162  0.00  0.00    +0.013 A 
ATOM     25  C   UNL     1      -3.174  -0.884  23.805  0.00  0.00    +0.013 A 
ATOM     26  C   UNL     1      -1.861  -1.441  26.201  0.00  0.00    +0.046 A 
ATOM     27  C   UNL     1      -2.181  -1.862  23.845  0.00  0.00    +0.046 A 
ATOM     29  C   UNL     1      -1.524  -2.140  25.043  0.00  0.00    +0.120 A 
BRANCH  29   4
ATOM      4  O   UNL     1      -0.555  -3.095  25.083  0.00  0.00    -0.495 OA
ATOM     30  C   UNL     1       0.748  -2.682  25.491  0.00  0.00    +0.277 C 
ENDBRANCH  29   4
ENDBRANCH  18  22
ENDBRANCH  12   5
BRANCH  13   6
ATOM      3  O   UNL     1       1.549   2.000  23.842  0.00  0.00    -0.253 OA
ATOM      6  N   UNL     1      -0.449   1.250  24.755  0.00  0.00    -0.292 N 
ATOM      7  N   UNL     1       0.611  -0.004  23.145  0.00  0.00    -0.296 N 
ATOM     17  C   UNL     1       0.653   1.160  23.908  0.00  0.00    +0.300 C 
ATOM     32  H   UNL     1      -1.099   0.469  24.782  0.00  0.00    +0.151 HD
ATOM     33  H   UNL     1      -0.160  -0.651  23.282  0.00  0.00    +0.151 HD
BRANCH   7  19
ATOM     19  C   UNL     1       1.632  -0.346  22.184  0.00  0.00    +0.132 C 
BRANCH  19  23
ATOM     23  C   UNL     1       2.970  -0.249  22.838  0.00  0.00    -0.016 C 
ATOM     28  C   UNL     1       3.969   0.516  22.384  0.00  0.00    +0.005 C 
ENDBRANCH  19  23
ENDBRANCH   7  19
ENDBRANCH  13   6
TORSDOF 6
ENDMDL
