MODEL 1
REMARK VINA RESULT:      -3.6      0.000      0.000
REMARK  Name = 26761815
REMARK  7 active torsions:
REMARK  status: ('A' for Active; 'I' for Inactive)
REMARK    1  A    between atoms: O_1  and  C_14
REMARK    2  A    between atoms: O_1  and  C_22
REMARK    3  A    between atoms: O_3  and  C_23
REMARK    4  A    between atoms: N_5  and  C_13
REMARK    5  A    between atoms: C_8  and  C_14
REMARK    6  A    between atoms: C_13  and  C_15
REMARK    7  A    between atoms: C_21  and  C_23
REMARK                            x       y       z     vdW  Elec       q    Type
REMARK                         _______ _______ _______ _____ _____    ______ ____
ROOT
ATOM      5  N   UNL     1      -0.319   1.245  24.452  0.00  0.00    -0.280 NA
ATOM      6  N   UNL     1       3.209   1.223  23.150  0.00  0.00    -0.347 N 
ATOM      7  N   UNL     1       2.447  -0.256  21.656  0.00  0.00    -0.240 NA
ATOM      8  C   UNL     1      -0.636  -0.098  23.896  0.00  0.00    +0.173 C 
ATOM      9  C   UNL     1       0.094  -0.489  22.580  0.00  0.00    +0.087 C 
ATOM     10  C   UNL     1       1.138   1.492  24.630  0.00  0.00    +0.140 C 
ATOM     11  C   UNL     1       1.918   0.957  23.493  0.00  0.00    +0.053 A 
ATOM     12  C   UNL     1       1.475   0.047  22.567  0.00  0.00    +0.065 A 
ATOM     16  C   UNL     1       3.482   0.468  22.036  0.00  0.00    +0.197 A 
ATOM     24  H   UNL     1       3.848   1.850  23.622  0.00  0.00    +0.167 HD
ENDROOT
BRANCH   8  14
ATOM      2  O   UNL     1       0.520  -1.958  24.909  0.00  0.00    -0.249 OA
ATOM     14  C   UNL     1      -0.349  -1.099  24.981  0.00  0.00    +0.325 C 
BRANCH  14   1
ATOM      1  O   UNL     1      -1.198  -0.893  26.027  0.00  0.00    -0.467 OA
ATOM     22  C   UNL     1      -2.593  -0.963  25.711  0.00  0.00    +0.280 C 
ENDBRANCH  14   1
ENDBRANCH   8  14
BRANCH   5  13
ATOM     13  C   UNL     1      -0.938   2.302  23.648  0.00  0.00    +0.120 C 
BRANCH  13  15
ATOM     15  C   UNL     1      -2.260   2.739  24.218  0.00  0.00    -0.033 A 
ATOM     17  C   UNL     1      -3.448   2.214  23.709  0.00  0.00    +0.006 A 
ATOM     18  C   UNL     1      -2.299   3.669  25.257  0.00  0.00    +0.006 A 
ATOM     19  C   UNL     1      -4.674   2.619  24.237  0.00  0.00    +0.015 A 
ATOM     20  C   UNL     1      -3.525   4.076  25.786  0.00  0.00    +0.015 A 
ATOM     21  C   UNL     1      -4.712   3.550  25.276  0.00  0.00    +0.059 A 
BRANCH  21  23
ATOM      4  O   UNL     1      -6.487   5.097  25.701  0.00  0.00    -0.245 OA
ATOM     23  C   UNL     1      -5.990   3.973  25.827  0.00  0.00    +0.337 C 
BRANCH  23   3
ATOM      3  O   UNL     1      -6.612   2.980  26.521  0.00  0.00    -0.477 OA
ATOM     25  H   UNL     1      -7.589   3.056  26.468  0.00  0.00    +0.295 HD
ENDBRANCH  23   3
ENDBRANCH  21  23
ENDBRANCH  13  15
ENDBRANCH   5  13
TORSDOF 6
ENDMDL
MODEL 2
REMARK VINA RESULT:      -2.3      2.737      7.246
REMARK  Name = 26761815
REMARK  7 active torsions:
REMARK  status: ('A' for Active; 'I' for Inactive)
REMARK    1  A    between atoms: O_1  and  C_14
REMARK    2  A    between atoms: O_1  and  C_22
REMARK    3  A    between atoms: O_3  and  C_23
REMARK    4  A    between atoms: N_5  and  C_13
REMARK    5  A    between atoms: C_8  and  C_14
REMARK    6  A    between atoms: C_13  and  C_15
REMARK    7  A    between atoms: C_21  and  C_23
REMARK                            x       y       z     vdW  Elec       q    Type
REMARK                         _______ _______ _______ _____ _____    ______ ____
ROOT
ATOM      5  N   UNL     1      -0.745   1.301  24.114  0.00  0.00    -0.280 NA
ATOM      6  N   UNL     1      -2.588  -1.720  25.386  0.00  0.00    -0.347 N 
ATOM      7  N   UNL     1      -4.291  -0.968  24.147  0.00  0.00    -0.240 NA
ATOM      8  C   UNL     1      -1.992   2.057  23.818  0.00  0.00    +0.173 C 
ATOM      9  C   UNL     1      -3.228   1.212  23.398  0.00  0.00    +0.087 C 
ATOM     10  C   UNL     1      -0.928   0.208  25.108  0.00  0.00    +0.140 C 
ATOM     11  C   UNL     1      -2.199  -0.515  24.886  0.00  0.00    +0.053 A 
ATOM     12  C   UNL     1      -3.259  -0.073  24.136  0.00  0.00    +0.065 A 
ATOM     16  C   UNL     1      -3.856  -1.951  24.912  0.00  0.00    +0.197 A 
ATOM     24  H   UNL     1      -2.053  -2.330  25.991  0.00  0.00    +0.167 HD
ENDROOT
BRANCH   8  14
ATOM      2  O   UNL     1      -3.408   2.952  25.554  0.00  0.00    -0.249 OA
ATOM     14  C   UNL     1      -2.302   2.884  25.035  0.00  0.00    +0.325 C 
BRANCH  14   1
ATOM      1  O   UNL     1      -1.173   3.525  25.450  0.00  0.00    -0.467 OA
ATOM     22  C   UNL     1      -1.010   4.861  24.961  0.00  0.00    +0.280 C 
ENDBRANCH  14   1
ENDBRANCH   8  14
BRANCH   5  13
ATOM     13  C   UNL     1      -0.137   0.795  22.881  0.00  0.00    +0.120 C 
BRANCH  13  15
ATOM     15  C   UNL     1       1.325   0.488  23.061  0.00  0.00    -0.033 A 
ATOM     17  C   UNL     1       1.733  -0.816  23.348  0.00  0.00    +0.006 A 
ATOM     18  C   UNL     1       2.273   1.503  22.941  0.00  0.00    +0.006 A 
ATOM     19  C   UNL     1       3.088  -1.102  23.515  0.00  0.00    +0.015 A 
ATOM     20  C   UNL     1       3.628   1.218  23.108  0.00  0.00    +0.015 A 
ATOM     21  C   UNL     1       4.035  -0.085  23.395  0.00  0.00    +0.059 A 
BRANCH  21  23
ATOM      4  O   UNL     1       6.346  -0.092  22.771  0.00  0.00    -0.245 OA
ATOM     23  C   UNL     1       5.449  -0.382  23.570  0.00  0.00    +0.337 C 
BRANCH  23   3
ATOM      3  O   UNL     1       5.704  -1.033  24.738  0.00  0.00    -0.477 OA
ATOM     25  H   UNL     1       4.898  -1.113  25.293  0.00  0.00    +0.295 HD
ENDBRANCH  23   3
ENDBRANCH  21  23
ENDBRANCH  13  15
ENDBRANCH   5  13
TORSDOF 6
ENDMDL
MODEL 3
REMARK VINA RESULT:      -2.2      1.640      3.717
REMARK  Name = 26761815
REMARK  7 active torsions:
REMARK  status: ('A' for Active; 'I' for Inactive)
REMARK    1  A    between atoms: O_1  and  C_14
REMARK    2  A    between atoms: O_1  and  C_22
REMARK    3  A    between atoms: O_3  and  C_23
REMARK    4  A    between atoms: N_5  and  C_13
REMARK    5  A    between atoms: C_8  and  C_14
REMARK    6  A    between atoms: C_13  and  C_15
REMARK    7  A    between atoms: C_21  and  C_23
REMARK                            x       y       z     vdW  Elec       q    Type
REMARK                         _______ _______ _______ _____ _____    ______ ____
ROOT
ATOM      5  N   UNL     1      -0.397   1.792  23.452  0.00  0.00    -0.280 NA
ATOM      6  N   UNL     1      -3.789   0.261  23.997  0.00  0.00    -0.347 N 
ATOM      7  N   UNL     1      -2.890  -0.605  25.854  0.00  0.00    -0.240 NA
ATOM      8  C   UNL     1       0.301   0.780  24.290  0.00  0.00    +0.173 C 
ATOM      9  C   UNL     1      -0.509   0.192  25.480  0.00  0.00    +0.087 C 
ATOM     10  C   UNL     1      -1.720   1.338  22.943  0.00  0.00    +0.140 C 
ATOM     11  C   UNL     1      -2.467   0.587  23.975  0.00  0.00    +0.053 A 
ATOM     12  C   UNL     1      -1.938   0.042  25.118  0.00  0.00    +0.065 A 
ATOM     16  C   UNL     1      -3.996  -0.457  25.150  0.00  0.00    +0.197 A 
ATOM     24  H   UNL     1      -4.486   0.496  23.303  0.00  0.00    +0.167 HD
ENDROOT
BRANCH   8  14
ATOM      2  O   UNL     1       0.455  -1.493  23.496  0.00  0.00    -0.249 OA
ATOM     14  C   UNL     1       0.758  -0.314  23.366  0.00  0.00    +0.325 C 
BRANCH  14   1
ATOM      1  O   UNL     1       1.544   0.215  22.386  0.00  0.00    -0.467 OA
ATOM     22  C   UNL     1       2.951   0.196  22.649  0.00  0.00    +0.280 C 
ENDBRANCH  14   1
ENDBRANCH   8  14
BRANCH   5  13
ATOM     13  C   UNL     1      -0.516   3.066  24.164  0.00  0.00    +0.120 C 
BRANCH  13  15
ATOM     15  C   UNL     1      -1.931   3.338  24.597  0.00  0.00    -0.033 A 
ATOM     17  C   UNL     1      -2.244   3.405  25.956  0.00  0.00    +0.006 A 
ATOM     18  C   UNL     1      -2.930   3.525  23.643  0.00  0.00    +0.006 A 
ATOM     19  C   UNL     1      -3.555   3.658  26.358  0.00  0.00    +0.015 A 
ATOM     20  C   UNL     1      -4.242   3.776  24.044  0.00  0.00    +0.015 A 
ATOM     21  C   UNL     1      -4.554   3.843  25.402  0.00  0.00    +0.059 A 
BRANCH  21  23
ATOM      4  O   UNL     1      -6.515   5.183  25.695  0.00  0.00    -0.245 OA
ATOM     23  C   UNL     1      -5.923   4.106  25.821  0.00  0.00    +0.337 C 
BRANCH  23   3
ATOM      3  O   UNL     1      -6.513   3.016  26.384  0.00  0.00    -0.477 OA
ATOM     25  H   UNL     1      -6.952   3.238  27.234  0.00  0.00    +0.295 HD
ENDBRANCH  23   3
ENDBRANCH  21  23
ENDBRANCH  13  15
ENDBRANCH   5  13
TORSDOF 6
ENDMDL
MODEL 4
REMARK VINA RESULT:      -2.1      2.529      7.006
REMARK  Name = 26761815
REMARK  7 active torsions:
REMARK  status: ('A' for Active; 'I' for Inactive)
REMARK    1  A    between atoms: O_1  and  C_14
REMARK    2  A    between atoms: O_1  and  C_22
REMARK    3  A    between atoms: O_3  and  C_23
REMARK    4  A    between atoms: N_5  and  C_13
REMARK    5  A    between atoms: C_8  and  C_14
REMARK    6  A    between atoms: C_13  and  C_15
REMARK    7  A    between atoms: C_21  and  C_23
REMARK                            x       y       z     vdW  Elec       q    Type
REMARK                         _______ _______ _______ _____ _____    ______ ____
ROOT
ATOM      5  N   UNL     1      -1.317   1.531  24.151  0.00  0.00    -0.280 NA
ATOM      6  N   UNL     1      -2.318  -1.871  25.403  0.00  0.00    -0.347 N 
ATOM      7  N   UNL     1      -4.234  -1.501  24.309  0.00  0.00    -0.240 NA
ATOM      8  C   UNL     1      -2.722   1.984  23.969  0.00  0.00    +0.173 C 
ATOM      9  C   UNL     1      -3.757   0.887  23.592  0.00  0.00    +0.087 C 
ATOM     10  C   UNL     1      -1.171   0.398  25.106  0.00  0.00    +0.140 C 
ATOM     11  C   UNL     1      -2.254  -0.595  24.933  0.00  0.00    +0.053 A 
ATOM     12  C   UNL     1      -3.439  -0.390  24.272  0.00  0.00    +0.065 A 
ATOM     16  C   UNL     1      -3.530  -2.377  25.001  0.00  0.00    +0.197 A 
ATOM     24  H   UNL     1      -1.615  -2.357  25.945  0.00  0.00    +0.167 HD
ENDROOT
BRANCH   8  14
ATOM      2  O   UNL     1      -2.378   3.395  25.896  0.00  0.00    -0.249 OA
ATOM     14  C   UNL     1      -3.125   2.681  25.239  0.00  0.00    +0.325 C 
BRANCH  14   1
ATOM      1  O   UNL     1      -4.425   2.391  25.526  0.00  0.00    -0.467 OA
ATOM     22  C   UNL     1      -5.300   3.520  25.625  0.00  0.00    +0.280 C 
ENDBRANCH  14   1
ENDBRANCH   8  14
BRANCH   5  13
ATOM     13  C   UNL     1      -0.699   1.216  22.861  0.00  0.00    +0.120 C 
BRANCH  13  15
ATOM     15  C   UNL     1       0.734   0.783  23.015  0.00  0.00    -0.033 A 
ATOM     17  C   UNL     1       1.729   1.734  23.248  0.00  0.00    +0.006 A 
ATOM     18  C   UNL     1       1.069  -0.568  22.928  0.00  0.00    +0.006 A 
ATOM     19  C   UNL     1       3.057   1.334  23.391  0.00  0.00    +0.015 A 
ATOM     20  C   UNL     1       2.398  -0.969  23.071  0.00  0.00    +0.015 A 
ATOM     21  C   UNL     1       3.392  -0.017  23.303  0.00  0.00    +0.059 A 
BRANCH  21  23
ATOM      4  O   UNL     1       5.757   0.153  22.984  0.00  0.00    -0.245 OA
ATOM     23  C   UNL     1       4.777  -0.436  23.452  0.00  0.00    +0.337 C 
BRANCH  23   3
ATOM      3  O   UNL     1       4.900  -1.577  24.184  0.00  0.00    -0.477 OA
ATOM     25  H   UNL     1       5.232  -1.396  25.090  0.00  0.00    +0.295 HD
ENDBRANCH  23   3
ENDBRANCH  21  23
ENDBRANCH  13  15
ENDBRANCH   5  13
TORSDOF 6
ENDMDL
MODEL 5
REMARK VINA RESULT:      -2.1      2.928      6.918
REMARK  Name = 26761815
REMARK  7 active torsions:
REMARK  status: ('A' for Active; 'I' for Inactive)
REMARK    1  A    between atoms: O_1  and  C_14
REMARK    2  A    between atoms: O_1  and  C_22
REMARK    3  A    between atoms: O_3  and  C_23
REMARK    4  A    between atoms: N_5  and  C_13
REMARK    5  A    between atoms: C_8  and  C_14
REMARK    6  A    between atoms: C_13  and  C_15
REMARK    7  A    between atoms: C_21  and  C_23
REMARK                            x       y       z     vdW  Elec       q    Type
REMARK                         _______ _______ _______ _____ _____    ______ ____
ROOT
ATOM      5  N   UNL     1      -2.653   0.339  24.373  0.00  0.00    -0.280 NA
ATOM      6  N   UNL     1      -4.534   3.592  24.216  0.00  0.00    -0.347 N 
ATOM      7  N   UNL     1      -5.590   2.851  26.043  0.00  0.00    -0.240 NA
ATOM      8  C   UNL     1      -3.716  -0.349  25.154  0.00  0.00    +0.173 C 
ATOM      9  C   UNL     1      -4.544   0.540  26.125  0.00  0.00    +0.087 C 
ATOM     10  C   UNL     1      -3.137   1.531  23.624  0.00  0.00    +0.140 C 
ATOM     11  C   UNL     1      -4.096   2.320  24.426  0.00  0.00    +0.053 A 
ATOM     12  C   UNL     1      -4.759   1.887  25.547  0.00  0.00    +0.065 A 
ATOM     16  C   UNL     1      -5.432   3.868  25.217  0.00  0.00    +0.197 A 
ATOM     24  H   UNL     1      -4.258   4.216  23.469  0.00  0.00    +0.167 HD
ENDROOT
BRANCH   8  14
ATOM      2  O   UNL     1      -5.746  -0.655  23.887  0.00  0.00    -0.249 OA
ATOM     14  C   UNL     1      -4.615  -1.033  24.161  0.00  0.00    +0.325 C 
BRANCH  14   1
ATOM      1  O   UNL     1      -3.973  -2.114  23.635  0.00  0.00    -0.467 OA
ATOM     22  C   UNL     1      -3.311  -2.959  24.583  0.00  0.00    +0.280 C 
ENDBRANCH  14   1
ENDBRANCH   8  14
BRANCH   5  13
ATOM     13  C   UNL     1      -1.515   0.681  25.229  0.00  0.00    +0.120 C 
BRANCH  13  15
ATOM     15  C   UNL     1      -0.212   0.632  24.478  0.00  0.00    -0.033 A 
ATOM     17  C   UNL     1       0.205  -0.559  23.882  0.00  0.00    +0.006 A 
ATOM     18  C   UNL     1       0.578   1.776  24.376  0.00  0.00    +0.006 A 
ATOM     19  C   UNL     1       1.412  -0.605  23.185  0.00  0.00    +0.015 A 
ATOM     20  C   UNL     1       1.787   1.731  23.679  0.00  0.00    +0.015 A 
ATOM     21  C   UNL     1       2.203   0.540  23.084  0.00  0.00    +0.059 A 
BRANCH  21  23
ATOM      4  O   UNL     1       4.586   0.553  22.868  0.00  0.00    -0.245 OA
ATOM     23  C   UNL     1       3.463   0.493  22.358  0.00  0.00    +0.337 C 
BRANCH  23   3
ATOM      3  O   UNL     1       3.284   0.370  21.014  0.00  0.00    -0.477 OA
ATOM     25  H   UNL     1       4.118   0.524  20.519  0.00  0.00    +0.295 HD
ENDBRANCH  23   3
ENDBRANCH  21  23
ENDBRANCH  13  15
ENDBRANCH   5  13
TORSDOF 6
ENDMDL
MODEL 6
REMARK VINA RESULT:      -1.7      2.766      7.297
REMARK  Name = 26761815
REMARK  7 active torsions:
REMARK  status: ('A' for Active; 'I' for Inactive)
REMARK    1  A    between atoms: O_1  and  C_14
REMARK    2  A    between atoms: O_1  and  C_22
REMARK    3  A    between atoms: O_3  and  C_23
REMARK    4  A    between atoms: N_5  and  C_13
REMARK    5  A    between atoms: C_8  and  C_14
REMARK    6  A    between atoms: C_13  and  C_15
REMARK    7  A    between atoms: C_21  and  C_23
REMARK                            x       y       z     vdW  Elec       q    Type
REMARK                         _______ _______ _______ _____ _____    ______ ____
ROOT
ATOM      5  N   UNL     1      -1.906   2.141  24.648  0.00  0.00    -0.280 NA
ATOM      6  N   UNL     1      -5.175   0.587  25.667  0.00  0.00    -0.347 N 
ATOM      7  N   UNL     1      -6.110   2.211  24.446  0.00  0.00    -0.240 NA
ATOM      8  C   UNL     1      -2.512   3.473  24.379  0.00  0.00    +0.173 C 
ATOM      9  C   UNL     1      -3.983   3.472  23.874  0.00  0.00    +0.087 C 
ATOM     10  C   UNL     1      -2.716   1.287  25.559  0.00  0.00    +0.140 C 
ATOM     11  C   UNL     1      -4.160   1.398  25.260  0.00  0.00    +0.053 A 
ATOM     12  C   UNL     1      -4.757   2.387  24.520  0.00  0.00    +0.065 A 
ATOM     16  C   UNL     1      -6.331   1.118  25.150  0.00  0.00    +0.197 A 
ATOM     24  H   UNL     1      -5.100  -0.244  26.239  0.00  0.00    +0.167 HD
ENDROOT
BRANCH   8  14
ATOM      2  O   UNL     1      -2.958   4.003  26.690  0.00  0.00    -0.249 OA
ATOM     14  C   UNL     1      -2.384   4.276  25.644  0.00  0.00    +0.325 C 
BRANCH  14   1
ATOM      1  O   UNL     1      -1.543   5.328  25.433  0.00  0.00    -0.467 OA
ATOM     22  C   UNL     1      -0.496   5.098  24.484  0.00  0.00    +0.280 C 
ENDBRANCH  14   1
ENDBRANCH   8  14
BRANCH   5  13
ATOM     13  C   UNL     1      -1.607   1.441  23.397  0.00  0.00    +0.120 C 
BRANCH  13  15
ATOM     15  C   UNL     1      -0.163   1.025  23.316  0.00  0.00    -0.033 A 
ATOM     17  C   UNL     1       0.180  -0.191  22.723  0.00  0.00    +0.006 A 
ATOM     18  C   UNL     1       0.832   1.853  23.834  0.00  0.00    +0.006 A 
ATOM     19  C   UNL     1       1.519  -0.577  22.648  0.00  0.00    +0.015 A 
ATOM     20  C   UNL     1       2.171   1.467  23.760  0.00  0.00    +0.015 A 
ATOM     21  C   UNL     1       2.513   0.252  23.167  0.00  0.00    +0.059 A 
BRANCH  21  23
ATOM      4  O   UNL     1       4.828   0.536  22.630  0.00  0.00    -0.245 OA
ATOM     23  C   UNL     1       3.910  -0.151  23.089  0.00  0.00    +0.337 C 
BRANCH  23   3
ATOM      3  O   UNL     1       4.120  -1.399  23.589  0.00  0.00    -0.477 OA
ATOM     25  H   UNL     1       4.947  -1.447  24.115  0.00  0.00    +0.295 HD
ENDBRANCH  23   3
ENDBRANCH  21  23
ENDBRANCH  13  15
ENDBRANCH   5  13
TORSDOF 6
ENDMDL
MODEL 7
REMARK VINA RESULT:      -1.4      2.281      3.503
REMARK  Name = 26761815
REMARK  7 active torsions:
REMARK  status: ('A' for Active; 'I' for Inactive)
REMARK    1  A    between atoms: O_1  and  C_14
REMARK    2  A    between atoms: O_1  and  C_22
REMARK    3  A    between atoms: O_3  and  C_23
REMARK    4  A    between atoms: N_5  and  C_13
REMARK    5  A    between atoms: C_8  and  C_14
REMARK    6  A    between atoms: C_13  and  C_15
REMARK    7  A    between atoms: C_21  and  C_23
REMARK                            x       y       z     vdW  Elec       q    Type
REMARK                         _______ _______ _______ _____ _____    ______ ____
ROOT
ATOM      5  N   UNL     1      -1.067   2.086  23.408  0.00  0.00    -0.280 NA
ATOM      6  N   UNL     1       0.301  -1.353  24.078  0.00  0.00    -0.347 N 
ATOM      7  N   UNL     1      -0.781  -1.197  26.029  0.00  0.00    -0.240 NA
ATOM      8  C   UNL     1      -1.246   2.401  24.851  0.00  0.00    +0.173 C 
ATOM      9  C   UNL     1      -1.577   1.201  25.784  0.00  0.00    +0.087 C 
ATOM     10  C   UNL     1      -0.080   1.002  23.150  0.00  0.00    +0.140 C 
ATOM     11  C   UNL     1      -0.209  -0.092  24.137  0.00  0.00    +0.053 A 
ATOM     12  C   UNL     1      -0.862  -0.019  25.342  0.00  0.00    +0.065 A 
ATOM     16  C   UNL     1      -0.072  -1.981  25.241  0.00  0.00    +0.197 A 
ATOM     24  H   UNL     1       0.849  -1.754  23.328  0.00  0.00    +0.167 HD
ENDROOT
BRANCH   8  14
ATOM      2  O   UNL     1       0.835   2.598  26.057  0.00  0.00    -0.249 OA
ATOM     14  C   UNL     1       0.007   3.097  25.306  0.00  0.00    +0.325 C 
BRANCH  14   1
ATOM      1  O   UNL     1       0.062   4.343  24.755  0.00  0.00    -0.467 OA
ATOM     22  C   UNL     1      -1.077   5.175  25.002  0.00  0.00    +0.280 C 
ENDBRANCH  14   1
ENDBRANCH   8  14
BRANCH   5  13
ATOM     13  C   UNL     1      -2.354   1.788  22.776  0.00  0.00    +0.120 C 
BRANCH  13  15
ATOM     15  C   UNL     1      -3.494   1.872  23.755  0.00  0.00    -0.033 A 
ATOM     17  C   UNL     1      -4.085   0.705  24.239  0.00  0.00    +0.006 A 
ATOM     18  C   UNL     1      -3.958   3.116  24.181  0.00  0.00    +0.006 A 
ATOM     19  C   UNL     1      -5.141   0.781  25.147  0.00  0.00    +0.015 A 
ATOM     20  C   UNL     1      -5.015   3.194  25.089  0.00  0.00    +0.015 A 
ATOM     21  C   UNL     1      -5.605   2.026  25.572  0.00  0.00    +0.059 A 
BRANCH  21  23
ATOM      4  O   UNL     1      -7.194   1.153  27.134  0.00  0.00    -0.245 OA
ATOM     23  C   UNL     1      -6.707   2.108  26.519  0.00  0.00    +0.337 C 
BRANCH  23   3
ATOM      3  O   UNL     1      -7.169   3.379  26.673  0.00  0.00    -0.477 OA
ATOM     25  H   UNL     1      -8.133   3.397  26.854  0.00  0.00    +0.295 HD
ENDBRANCH  23   3
ENDBRANCH  21  23
ENDBRANCH  13  15
ENDBRANCH   5  13
TORSDOF 6
ENDMDL
MODEL 8
REMARK VINA RESULT:      -1.2      2.734      6.893
REMARK  Name = 26761815
REMARK  7 active torsions:
REMARK  status: ('A' for Active; 'I' for Inactive)
REMARK    1  A    between atoms: O_1  and  C_14
REMARK    2  A    between atoms: O_1  and  C_22
REMARK    3  A    between atoms: O_3  and  C_23
REMARK    4  A    between atoms: N_5  and  C_13
REMARK    5  A    between atoms: C_8  and  C_14
REMARK    6  A    between atoms: C_13  and  C_15
REMARK    7  A    between atoms: C_21  and  C_23
REMARK                            x       y       z     vdW  Elec       q    Type
REMARK                         _______ _______ _______ _____ _____    ______ ____
ROOT
ATOM      5  N   UNL     1      -2.237   0.508  23.617  0.00  0.00    -0.280 NA
ATOM      6  N   UNL     1      -5.202   2.702  24.350  0.00  0.00    -0.347 N 
ATOM      7  N   UNL     1      -4.106   3.233  26.226  0.00  0.00    -0.240 NA
ATOM      8  C   UNL     1      -1.841   0.400  25.047  0.00  0.00    +0.173 C 
ATOM      9  C   UNL     1      -2.159   1.629  25.946  0.00  0.00    +0.087 C 
ATOM     10  C   UNL     1      -3.664   0.882  23.417  0.00  0.00    +0.140 C 
ATOM     11  C   UNL     1      -4.092   1.915  24.385  0.00  0.00    +0.053 A 
ATOM     12  C   UNL     1      -3.440   2.254  25.544  0.00  0.00    +0.065 A 
ATOM     16  C   UNL     1      -5.166   3.481  25.480  0.00  0.00    +0.197 A 
ATOM     24  H   UNL     1      -5.919   2.714  23.635  0.00  0.00    +0.167 HD
ENDROOT
BRANCH   8  14
ATOM      2  O   UNL     1      -3.192  -0.862  26.597  0.00  0.00    -0.249 OA
ATOM     14  C   UNL     1      -2.497  -0.840  25.590  0.00  0.00    +0.325 C 
BRANCH  14   1
ATOM      1  O   UNL     1      -2.193  -1.902  24.793  0.00  0.00    -0.467 OA
ATOM     22  C   UNL     1      -3.293  -2.757  24.462  0.00  0.00    +0.280 C 
ENDBRANCH  14   1
ENDBRANCH   8  14
BRANCH   5  13
ATOM     13  C   UNL     1      -1.347   1.422  22.898  0.00  0.00    +0.120 C 
BRANCH  13  15
ATOM     15  C   UNL     1       0.092   0.987  22.982  0.00  0.00    -0.033 A 
ATOM     17  C   UNL     1       1.014   1.761  23.686  0.00  0.00    +0.006 A 
ATOM     18  C   UNL     1       0.503  -0.190  22.357  0.00  0.00    +0.006 A 
ATOM     19  C   UNL     1       2.348   1.358  23.765  0.00  0.00    +0.015 A 
ATOM     20  C   UNL     1       1.836  -0.593  22.435  0.00  0.00    +0.015 A 
ATOM     21  C   UNL     1       2.758   0.181  23.139  0.00  0.00    +0.059 A 
BRANCH  21  23
ATOM      4  O   UNL     1       5.112   0.376  22.751  0.00  0.00    -0.245 OA
ATOM     23  C   UNL     1       4.149  -0.239  23.220  0.00  0.00    +0.337 C 
BRANCH  23   3
ATOM      3  O   UNL     1       4.298  -1.417  23.887  0.00  0.00    -0.477 OA
ATOM     25  H   UNL     1       4.785  -1.299  24.731  0.00  0.00    +0.295 HD
ENDBRANCH  23   3
ENDBRANCH  21  23
ENDBRANCH  13  15
ENDBRANCH   5  13
TORSDOF 6
ENDMDL
MODEL 9
REMARK VINA RESULT:      -1.2      1.984      3.538
REMARK  Name = 26761815
REMARK  7 active torsions:
REMARK  status: ('A' for Active; 'I' for Inactive)
REMARK    1  A    between atoms: O_1  and  C_14
REMARK    2  A    between atoms: O_1  and  C_22
REMARK    3  A    between atoms: O_3  and  C_23
REMARK    4  A    between atoms: N_5  and  C_13
REMARK    5  A    between atoms: C_8  and  C_14
REMARK    6  A    between atoms: C_13  and  C_15
REMARK    7  A    between atoms: C_21  and  C_23
REMARK                            x       y       z     vdW  Elec       q    Type
REMARK                         _______ _______ _______ _____ _____    ______ ____
ROOT
ATOM      5  N   UNL     1      -0.606  -0.777  24.063  0.00  0.00    -0.280 NA
ATOM      6  N   UNL     1      -1.071   2.258  26.235  0.00  0.00    -0.347 N 
ATOM      7  N   UNL     1      -0.712   3.421  24.358  0.00  0.00    -0.240 NA
ATOM      8  C   UNL     1       0.186  -0.043  23.040  0.00  0.00    +0.173 C 
ATOM      9  C   UNL     1      -0.165   1.459  22.843  0.00  0.00    +0.087 C 
ATOM     10  C   UNL     1      -0.618  -0.118  25.398  0.00  0.00    +0.140 C 
ATOM     11  C   UNL     1      -0.747   1.350  25.273  0.00  0.00    +0.053 A 
ATOM     12  C   UNL     1      -0.527   2.086  24.136  0.00  0.00    +0.065 A 
ATOM     16  C   UNL     1      -1.038   3.493  25.634  0.00  0.00    +0.197 A 
ATOM     24  H   UNL     1      -1.292   2.067  27.203  0.00  0.00    +0.167 HD
ENDROOT
BRANCH   8  14
ATOM      2  O   UNL     1       2.114  -1.239  23.860  0.00  0.00    -0.249 OA
ATOM     14  C   UNL     1       1.635  -0.208  23.406  0.00  0.00    +0.325 C 
BRANCH  14   1
ATOM      1  O   UNL     1       2.303   0.953  23.155  0.00  0.00    -0.467 OA
ATOM     22  C   UNL     1       3.666   0.800  22.741  0.00  0.00    +0.280 C 
ENDBRANCH  14   1
ENDBRANCH   8  14
BRANCH   5  13
ATOM     13  C   UNL     1      -1.968  -1.028  23.587  0.00  0.00    +0.120 C 
BRANCH  13  15
ATOM     15  C   UNL     1      -2.960  -0.071  24.192  0.00  0.00    -0.033 A 
ATOM     17  C   UNL     1      -3.277   1.116  23.531  0.00  0.00    +0.006 A 
ATOM     18  C   UNL     1      -3.564  -0.371  25.413  0.00  0.00    +0.006 A 
ATOM     19  C   UNL     1      -4.196   2.003  24.091  0.00  0.00    +0.015 A 
ATOM     20  C   UNL     1      -4.483   0.516  25.974  0.00  0.00    +0.015 A 
ATOM     21  C   UNL     1      -4.799   1.703  25.312  0.00  0.00    +0.059 A 
BRANCH  21  23
ATOM      4  O   UNL     1      -5.844   3.831  25.633  0.00  0.00    -0.245 OA
ATOM     23  C   UNL     1      -5.758   2.628  25.897  0.00  0.00    +0.337 C 
BRANCH  23   3
ATOM      3  O   UNL     1      -6.583   2.022  26.795  0.00  0.00    -0.477 OA
ATOM     25  H   UNL     1      -6.389   2.303  27.715  0.00  0.00    +0.295 HD
ENDBRANCH  23   3
ENDBRANCH  21  23
ENDBRANCH  13  15
ENDBRANCH   5  13
TORSDOF 6
ENDMDL
MODEL 10
REMARK VINA RESULT:      -1.0      2.539      5.425
REMARK  Name = 26761815
REMARK  7 active torsions:
REMARK  status: ('A' for Active; 'I' for Inactive)
REMARK    1  A    between atoms: O_1  and  C_14
REMARK    2  A    between atoms: O_1  and  C_22
REMARK    3  A    between atoms: O_3  and  C_23
REMARK    4  A    between atoms: N_5  and  C_13
REMARK    5  A    between atoms: C_8  and  C_14
REMARK    6  A    between atoms: C_13  and  C_15
REMARK    7  A    between atoms: C_21  and  C_23
REMARK                            x       y       z     vdW  Elec       q    Type
REMARK                         _______ _______ _______ _____ _____    ______ ____
ROOT
ATOM      5  N   UNL     1      -3.391   3.416  24.887  0.00  0.00    -0.280 NA
ATOM      6  N   UNL     1      -1.161   1.029  23.024  0.00  0.00    -0.347 N 
ATOM      7  N   UNL     1       0.093   1.052  24.876  0.00  0.00    -0.240 NA
ATOM      8  C   UNL     1      -2.306   3.870  25.799  0.00  0.00    +0.173 C 
ATOM      9  C   UNL     1      -1.213   2.820  26.147  0.00  0.00    +0.087 C 
ATOM     10  C   UNL     1      -2.896   2.815  23.619  0.00  0.00    +0.140 C 
ATOM     11  C   UNL     1      -1.717   1.953  23.855  0.00  0.00    +0.053 A 
ATOM     12  C   UNL     1      -0.930   1.953  24.979  0.00  0.00    +0.065 A 
ATOM     16  C   UNL     1      -0.074   0.512  23.685  0.00  0.00    +0.197 A 
ATOM     24  H   UNL     1      -1.480   0.771  22.100  0.00  0.00    +0.167 HD
ENDROOT
BRANCH   8  14
ATOM      2  O   UNL     1      -2.307   6.120  24.930  0.00  0.00    -0.249 OA
ATOM     14  C   UNL     1      -1.691   5.091  25.174  0.00  0.00    +0.325 C 
BRANCH  14   1
ATOM      1  O   UNL     1      -0.370   4.863  24.931  0.00  0.00    -0.467 OA
ATOM     22  C   UNL     1       0.032   4.972  23.561  0.00  0.00    +0.280 C 
ENDBRANCH  14   1
ENDBRANCH   8  14
BRANCH   5  13
ATOM     13  C   UNL     1      -4.308   2.507  25.579  0.00  0.00    +0.120 C 
BRANCH  13  15
ATOM     15  C   UNL     1      -4.053   1.069  25.216  0.00  0.00    -0.033 A 
ATOM     17  C   UNL     1      -4.588   0.541  24.040  0.00  0.00    +0.006 A 
ATOM     18  C   UNL     1      -3.280   0.263  26.053  0.00  0.00    +0.006 A 
ATOM     19  C   UNL     1      -4.352  -0.792  23.703  0.00  0.00    +0.015 A 
ATOM     20  C   UNL     1      -3.044  -1.070  25.716  0.00  0.00    +0.015 A 
ATOM     21  C   UNL     1      -3.580  -1.597  24.541  0.00  0.00    +0.059 A 
BRANCH  21  23
ATOM      4  O   UNL     1      -4.204  -3.845  24.007  0.00  0.00    -0.245 OA
ATOM     23  C   UNL     1      -3.333  -2.987  24.189  0.00  0.00    +0.337 C 
BRANCH  23   3
ATOM      3  O   UNL     1      -2.006  -3.267  24.075  0.00  0.00    -0.477 OA
ATOM     25  H   UNL     1      -1.619  -2.872  23.264  0.00  0.00    +0.295 HD
ENDBRANCH  23   3
ENDBRANCH  21  23
ENDBRANCH  13  15
ENDBRANCH   5  13
TORSDOF 6
ENDMDL
