MODEL 1
REMARK VINA RESULT:       2.3      0.000      0.000
REMARK  Name = 25389560
REMARK  9 active torsions:
REMARK  status: ('A' for Active; 'I' for Inactive)
REMARK    1  A    between atoms: O_1  and  C_17
REMARK    2  A    between atoms: O_1  and  C_22
REMARK    3  A    between atoms: N_6  and  C_20
REMARK    4  A    between atoms: N_8  and  C_26
REMARK    5  A    between atoms: C_10  and  C_16
REMARK    6  A    between atoms: C_11  and  C_17
REMARK    7  A    between atoms: C_19  and  C_21
REMARK    8  A    between atoms: C_31  and  C_32
REMARK    9  A    between atoms: C_32  and  C_33
REMARK                            x       y       z     vdW  Elec       q    Type
REMARK                         _______ _______ _______ _____ _____    ______ ____
ROOT
ATOM      5  N   UNL     1      -4.613   2.083  23.709  0.00  0.00    -0.296 NA
ATOM      9  C   UNL     1      -4.339   3.136  26.076  0.00  0.00    +0.002 C 
ATOM     10  C   UNL     1      -3.131   3.508  25.172  0.00  0.00    +0.055 C 
ATOM     11  C   UNL     1      -4.825   1.047  24.754  0.00  0.00    +0.095 C 
ATOM     12  C   UNL     1      -4.466   1.599  26.150  0.00  0.00    +0.026 C 
ATOM     13  C   UNL     1      -5.606   3.661  25.366  0.00  0.00    +0.019 C 
ATOM     14  C   UNL     1      -3.264   2.686  23.859  0.00  0.00    +0.094 C 
ATOM     15  C   UNL     1      -5.622   3.150  23.915  0.00  0.00    +0.085 C 
ENDROOT
BRANCH  10  16
ATOM      6  N   UNL     1      -0.616   3.839  25.108  0.00  0.00    -0.270 N 
ATOM      7  N   UNL     1       0.520   3.676  25.807  0.00  0.00    -0.168 NA
ATOM     16  C   UNL     1      -1.734   3.421  25.769  0.00  0.00    +0.044 A 
ATOM     18  C   UNL     1      -1.299   2.951  26.984  0.00  0.00    +0.056 A 
ATOM     19  C   UNL     1       0.097   3.132  26.951  0.00  0.00    +0.128 A 
ATOM     20  C   UNL     1      -0.553   4.417  23.786  0.00  0.00    +0.172 C 
BRANCH  19  21
ATOM      2  O   UNL     1       2.362   3.054  28.019  0.00  0.00    -0.461 OA
ATOM     21  C   UNL     1       1.032   2.779  28.035  0.00  0.00    +0.155 A 
ATOM     23  C   UNL     1       0.687   2.127  29.195  0.00  0.00    +0.051 A 
ATOM     24  C   UNL     1       1.883   1.995  29.942  0.00  0.00    +0.042 A 
ATOM     25  C   UNL     1       2.872   2.574  29.183  0.00  0.00    +0.196 A 
ENDBRANCH  19  21
ENDBRANCH  10  16
BRANCH  11  17
ATOM     17  C   UNL     1      -4.079  -0.253  24.446  0.00  0.00    +0.252 C 
BRANCH  17   1
ATOM      1  O   UNL     1      -3.383  -0.654  25.610  0.00  0.00    -0.449 OA
BRANCH   1  22
ATOM      3  O   UNL     1      -1.295  -0.888  26.511  0.00  0.00    -0.226 OA
ATOM      8  N   UNL     1      -1.612  -0.199  24.297  0.00  0.00    -0.251 N 
ATOM     22  C   UNL     1      -2.008  -0.604  25.556  0.00  0.00    +0.405 C 
ATOM     34  H   UNL     1      -2.357  -0.008  23.631  0.00  0.00    +0.158 HD
BRANCH   8  26
ATOM     26  C   UNL     1      -0.296  -0.015  23.814  0.00  0.00    +0.036 A 
ATOM     27  C   UNL     1       0.235  -0.904  22.880  0.00  0.00    +0.024 A 
ATOM     28  C   UNL     1       0.472   1.055  24.273  0.00  0.00    +0.024 A 
ATOM     29  C   UNL     1       1.534  -0.723  22.404  0.00  0.00    +0.013 A 
ATOM     30  C   UNL     1       1.771   1.236  23.798  0.00  0.00    +0.013 A 
ATOM     31  C   UNL     1       2.302   0.348  22.863  0.00  0.00    +0.017 A 
BRANCH  31  32
ATOM      4  O   UNL     1       3.888   0.699  21.154  0.00  0.00    -0.292 OA
ATOM     32  C   UNL     1       3.656   0.535  22.369  0.00  0.00    +0.160 C 
ATOM     33  C   UNL     1       4.835   0.535  23.336  0.00  0.00    +0.091 C 
ENDBRANCH  31  32
ENDBRANCH   8  26
ENDBRANCH   1  22
ENDBRANCH  17   1
ENDBRANCH  11  17
TORSDOF 7
ENDMDL
MODEL 2
REMARK VINA RESULT:       4.1      2.955      4.642
REMARK  Name = 25389560
REMARK  9 active torsions:
REMARK  status: ('A' for Active; 'I' for Inactive)
REMARK    1  A    between atoms: O_1  and  C_17
REMARK    2  A    between atoms: O_1  and  C_22
REMARK    3  A    between atoms: N_6  and  C_20
REMARK    4  A    between atoms: N_8  and  C_26
REMARK    5  A    between atoms: C_10  and  C_16
REMARK    6  A    between atoms: C_11  and  C_17
REMARK    7  A    between atoms: C_19  and  C_21
REMARK    8  A    between atoms: C_31  and  C_32
REMARK    9  A    between atoms: C_32  and  C_33
REMARK                            x       y       z     vdW  Elec       q    Type
REMARK                         _______ _______ _______ _____ _____    ______ ____
ROOT
ATOM      5  N   UNL     1      -3.117  -2.446  23.856  0.00  0.00    -0.296 NA
ATOM      9  C   UNL     1      -2.999  -1.276  26.179  0.00  0.00    +0.002 C 
ATOM     10  C   UNL     1      -3.912  -0.472  25.212  0.00  0.00    +0.055 C 
ATOM     11  C   UNL     1      -1.699  -2.300  24.280  0.00  0.00    +0.095 C 
ATOM     12  C   UNL     1      -1.599  -1.428  25.551  0.00  0.00    +0.026 C 
ATOM     13  C   UNL     1      -3.604  -2.692  26.289  0.00  0.00    +0.019 C 
ATOM     14  C   UNL     1      -3.772  -1.114  23.802  0.00  0.00    +0.094 C 
ATOM     15  C   UNL     1      -3.815  -3.264  24.877  0.00  0.00    +0.085 C 
ENDROOT
BRANCH  10  16
ATOM      6  N   UNL     1      -4.826   1.895  25.227  0.00  0.00    -0.270 N 
ATOM      7  N   UNL     1      -4.482   3.193  25.180  0.00  0.00    -0.168 NA
ATOM     16  C   UNL     1      -3.763   1.042  25.174  0.00  0.00    +0.044 A 
ATOM     18  C   UNL     1      -2.647   1.837  25.086  0.00  0.00    +0.056 A 
ATOM     19  C   UNL     1      -3.150   3.152  25.093  0.00  0.00    +0.128 A 
ATOM     20  C   UNL     1      -6.222   1.539  25.327  0.00  0.00    +0.172 C 
BRANCH  19  21
ATOM      2  O   UNL     1      -2.826   5.634  25.207  0.00  0.00    -0.461 OA
ATOM     21  C   UNL     1      -2.339   4.380  25.017  0.00  0.00    +0.155 A 
ATOM     23  C   UNL     1      -0.991   4.421  24.743  0.00  0.00    +0.051 A 
ATOM     24  C   UNL     1      -0.628   5.789  24.768  0.00  0.00    +0.042 A 
ATOM     25  C   UNL     1      -1.779   6.485  25.054  0.00  0.00    +0.196 A 
ENDBRANCH  19  21
ENDBRANCH  10  16
BRANCH  11  17
ATOM     17  C   UNL     1      -0.806  -1.774  23.155  0.00  0.00    +0.252 C 
BRANCH  17   1
ATOM      1  O   UNL     1      -0.776  -0.362  23.232  0.00  0.00    -0.449 OA
BRANCH   1  22
ATOM      3  O   UNL     1       0.557   1.320  24.021  0.00  0.00    -0.226 OA
ATOM      8  N   UNL     1       1.455  -0.632  23.095  0.00  0.00    -0.251 N 
ATOM     22  C   UNL     1       0.445   0.217  23.500  0.00  0.00    +0.405 C 
ATOM     34  H   UNL     1       1.161  -1.514  22.679  0.00  0.00    +0.158 HD
BRANCH   8  26
ATOM     26  C   UNL     1       2.851  -0.430  23.182  0.00  0.00    +0.036 A 
ATOM     27  C   UNL     1       3.422   0.731  22.663  0.00  0.00    +0.024 A 
ATOM     28  C   UNL     1       3.658  -1.393  23.789  0.00  0.00    +0.024 A 
ATOM     29  C   UNL     1       4.800   0.930  22.749  0.00  0.00    +0.013 A 
ATOM     30  C   UNL     1       5.036  -1.195  23.874  0.00  0.00    +0.013 A 
ATOM     31  C   UNL     1       5.608  -0.033  23.355  0.00  0.00    +0.017 A 
BRANCH  31  32
ATOM      4  O   UNL     1       7.526   1.124  24.092  0.00  0.00    -0.292 OA
ATOM     32  C   UNL     1       7.043   0.174  23.443  0.00  0.00    +0.160 C 
ATOM     33  C   UNL     1       8.002  -0.777  22.734  0.00  0.00    +0.091 C 
ENDBRANCH  31  32
ENDBRANCH   8  26
ENDBRANCH   1  22
ENDBRANCH  17   1
ENDBRANCH  11  17
TORSDOF 7
ENDMDL
MODEL 3
REMARK VINA RESULT:       4.5      1.293      1.665
REMARK  Name = 25389560
REMARK  9 active torsions:
REMARK  status: ('A' for Active; 'I' for Inactive)
REMARK    1  A    between atoms: O_1  and  C_17
REMARK    2  A    between atoms: O_1  and  C_22
REMARK    3  A    between atoms: N_6  and  C_20
REMARK    4  A    between atoms: N_8  and  C_26
REMARK    5  A    between atoms: C_10  and  C_16
REMARK    6  A    between atoms: C_11  and  C_17
REMARK    7  A    between atoms: C_19  and  C_21
REMARK    8  A    between atoms: C_31  and  C_32
REMARK    9  A    between atoms: C_32  and  C_33
REMARK                            x       y       z     vdW  Elec       q    Type
REMARK                         _______ _______ _______ _____ _____    ______ ____
ROOT
ATOM      5  N   UNL     1      -4.046   0.615  23.544  0.00  0.00    -0.296 NA
ATOM      9  C   UNL     1      -4.131   2.048  25.717  0.00  0.00    +0.002 C 
ATOM     10  C   UNL     1      -2.911   2.455  24.845  0.00  0.00    +0.055 C 
ATOM     11  C   UNL     1      -4.205  -0.269  24.729  0.00  0.00    +0.095 C 
ATOM     12  C   UNL     1      -4.051   0.540  26.035  0.00  0.00    +0.026 C 
ATOM     13  C   UNL     1      -5.390   2.261  24.849  0.00  0.00    +0.019 C 
ATOM     14  C   UNL     1      -2.812   1.430  23.679  0.00  0.00    +0.094 C 
ATOM     15  C   UNL     1      -5.207   1.536  23.504  0.00  0.00    +0.085 C 
ENDROOT
BRANCH  10  16
ATOM      6  N   UNL     1      -0.525   3.312  24.945  0.00  0.00    -0.270 N 
ATOM      7  N   UNL     1       0.567   3.400  25.724  0.00  0.00    -0.168 NA
ATOM     16  C   UNL     1      -1.573   2.672  25.537  0.00  0.00    +0.044 A 
ATOM     18  C   UNL     1      -1.137   2.316  26.790  0.00  0.00    +0.056 A 
ATOM     19  C   UNL     1       0.187   2.789  26.849  0.00  0.00    +0.128 A 
ATOM     20  C   UNL     1      -0.491   3.879  23.617  0.00  0.00    +0.172 C 
BRANCH  19  21
ATOM      2  O   UNL     1       2.389   3.066  28.012  0.00  0.00    -0.461 OA
ATOM     21  C   UNL     1       1.095   2.652  28.002  0.00  0.00    +0.155 A 
ATOM     23  C   UNL     1       0.758   2.090  29.211  0.00  0.00    +0.051 A 
ATOM     24  C   UNL     1       1.921   2.165  30.016  0.00  0.00    +0.042 A 
ATOM     25  C   UNL     1       2.884   2.767  29.241  0.00  0.00    +0.196 A 
ENDBRANCH  19  21
ENDBRANCH  10  16
BRANCH  11  17
ATOM     17  C   UNL     1      -3.262  -1.473  24.689  0.00  0.00    +0.252 C 
BRANCH  17   1
ATOM      1  O   UNL     1      -2.264  -1.225  23.718  0.00  0.00    -0.449 OA
BRANCH   1  22
ATOM      3  O   UNL     1      -0.614  -1.693  25.231  0.00  0.00    -0.226 OA
ATOM      8  N   UNL     1      -0.169  -0.561  23.232  0.00  0.00    -0.251 N 
ATOM     22  C   UNL     1      -0.960  -1.202  24.163  0.00  0.00    +0.405 C 
ATOM     34  H   UNL     1      -0.642  -0.218  22.399  0.00  0.00    +0.158 HD
BRANCH   8  26
ATOM     26  C   UNL     1       1.223  -0.318  23.290  0.00  0.00    +0.036 A 
ATOM     27  C   UNL     1       1.710   0.982  23.163  0.00  0.00    +0.024 A 
ATOM     28  C   UNL     1       2.109  -1.380  23.474  0.00  0.00    +0.024 A 
ATOM     29  C   UNL     1       3.083   1.222  23.220  0.00  0.00    +0.013 A 
ATOM     30  C   UNL     1       3.482  -1.141  23.530  0.00  0.00    +0.013 A 
ATOM     31  C   UNL     1       3.970   0.160  23.404  0.00  0.00    +0.017 A 
BRANCH  31  32
ATOM      4  O   UNL     1       5.860   1.439  23.996  0.00  0.00    -0.292 OA
ATOM     32  C   UNL     1       5.400   0.410  23.461  0.00  0.00    +0.160 C 
ATOM     33  C   UNL     1       6.380  -0.592  22.861  0.00  0.00    +0.091 C 
ENDBRANCH  31  32
ENDBRANCH   8  26
ENDBRANCH   1  22
ENDBRANCH  17   1
ENDBRANCH  11  17
TORSDOF 7
ENDMDL
MODEL 4
REMARK VINA RESULT:       5.9      1.905      5.334
REMARK  Name = 25389560
REMARK  9 active torsions:
REMARK  status: ('A' for Active; 'I' for Inactive)
REMARK    1  A    between atoms: O_1  and  C_17
REMARK    2  A    between atoms: O_1  and  C_22
REMARK    3  A    between atoms: N_6  and  C_20
REMARK    4  A    between atoms: N_8  and  C_26
REMARK    5  A    between atoms: C_10  and  C_16
REMARK    6  A    between atoms: C_11  and  C_17
REMARK    7  A    between atoms: C_19  and  C_21
REMARK    8  A    between atoms: C_31  and  C_32
REMARK    9  A    between atoms: C_32  and  C_33
REMARK                            x       y       z     vdW  Elec       q    Type
REMARK                         _______ _______ _______ _____ _____    ______ ____
ROOT
ATOM      5  N   UNL     1      -4.372   1.995  25.126  0.00  0.00    -0.296 NA
ATOM      9  C   UNL     1      -3.975  -0.117  23.655  0.00  0.00    +0.002 C 
ATOM     10  C   UNL     1      -2.879  -0.005  24.752  0.00  0.00    +0.055 C 
ATOM     11  C   UNL     1      -4.417   2.362  23.686  0.00  0.00    +0.095 C 
ATOM     12  C   UNL     1      -3.981   1.171  22.806  0.00  0.00    +0.026 C 
ATOM     13  C   UNL     1      -5.333  -0.185  24.387  0.00  0.00    +0.019 C 
ATOM     14  C   UNL     1      -3.064   1.373  25.451  0.00  0.00    +0.094 C 
ATOM     15  C   UNL     1      -5.436   0.992  25.372  0.00  0.00    +0.085 C 
ENDROOT
BRANCH  10  16
ATOM      6  N   UNL     1      -0.795  -1.443  24.584  0.00  0.00    -0.270 N 
ATOM      7  N   UNL     1       0.478  -1.465  24.155  0.00  0.00    -0.168 NA
ATOM     16  C   UNL     1      -1.433  -0.259  24.352  0.00  0.00    +0.044 A 
ATOM     18  C   UNL     1      -0.513   0.548  23.729  0.00  0.00    +0.056 A 
ATOM     19  C   UNL     1       0.645  -0.247  23.634  0.00  0.00    +0.128 A 
ATOM     20  C   UNL     1      -1.346  -2.617  25.218  0.00  0.00    +0.172 C 
BRANCH  19  21
ATOM      2  O   UNL     1       2.794   1.042  23.614  0.00  0.00    -0.461 OA
ATOM     21  C   UNL     1       1.925   0.173  23.035  0.00  0.00    +0.155 A 
ATOM     23  C   UNL     1       2.406  -0.254  21.819  0.00  0.00    +0.051 A 
ATOM     24  C   UNL     1       3.652   0.395  21.641  0.00  0.00    +0.042 A 
ATOM     25  C   UNL     1       3.842   1.171  22.760  0.00  0.00    +0.196 A 
ENDBRANCH  19  21
ENDBRANCH  10  16
BRANCH  11  17
ATOM     17  C   UNL     1      -3.608   3.624  23.380  0.00  0.00    +0.252 C 
BRANCH  17   1
ATOM      1  O   UNL     1      -3.629   4.455  24.525  0.00  0.00    -0.449 OA
BRANCH   1  22
ATOM      3  O   UNL     1      -1.801   5.664  25.176  0.00  0.00    -0.226 OA
ATOM      8  N   UNL     1      -2.116   3.445  25.851  0.00  0.00    -0.251 N 
ATOM     22  C   UNL     1      -2.436   4.617  25.194  0.00  0.00    +0.405 C 
ATOM     34  H   UNL     1      -2.775   2.676  25.746  0.00  0.00    +0.158 HD
BRANCH   8  26
ATOM     26  C   UNL     1      -0.982   3.177  26.652  0.00  0.00    +0.036 A 
ATOM     27  C   UNL     1       0.263   2.980  26.055  0.00  0.00    +0.024 A 
ATOM     28  C   UNL     1      -1.109   3.110  28.040  0.00  0.00    +0.024 A 
ATOM     29  C   UNL     1       1.381   2.715  26.845  0.00  0.00    +0.013 A 
ATOM     30  C   UNL     1       0.009   2.844  28.830  0.00  0.00    +0.013 A 
ATOM     31  C   UNL     1       1.255   2.647  28.233  0.00  0.00    +0.017 A 
BRANCH  31  32
ATOM      4  O   UNL     1       3.577   2.569  28.635  0.00  0.00    -0.292 OA
ATOM     32  C   UNL     1       2.420   2.369  29.056  0.00  0.00    +0.160 C 
ATOM     33  C   UNL     1       2.251   1.819  30.468  0.00  0.00    +0.091 C 
ENDBRANCH  31  32
ENDBRANCH   8  26
ENDBRANCH   1  22
ENDBRANCH  17   1
ENDBRANCH  11  17
TORSDOF 7
ENDMDL
MODEL 5
REMARK VINA RESULT:       6.2      1.895      5.242
REMARK  Name = 25389560
REMARK  9 active torsions:
REMARK  status: ('A' for Active; 'I' for Inactive)
REMARK    1  A    between atoms: O_1  and  C_17
REMARK    2  A    between atoms: O_1  and  C_22
REMARK    3  A    between atoms: N_6  and  C_20
REMARK    4  A    between atoms: N_8  and  C_26
REMARK    5  A    between atoms: C_10  and  C_16
REMARK    6  A    between atoms: C_11  and  C_17
REMARK    7  A    between atoms: C_19  and  C_21
REMARK    8  A    between atoms: C_31  and  C_32
REMARK    9  A    between atoms: C_32  and  C_33
REMARK                            x       y       z     vdW  Elec       q    Type
REMARK                         _______ _______ _______ _____ _____    ______ ____
ROOT
ATOM      5  N   UNL     1      -5.349   2.716  26.019  0.00  0.00    -0.296 NA
ATOM      9  C   UNL     1      -5.077   1.259  23.878  0.00  0.00    +0.002 C 
ATOM     10  C   UNL     1      -4.186   0.710  25.026  0.00  0.00    +0.055 C 
ATOM     11  C   UNL     1      -5.079   3.586  24.844  0.00  0.00    +0.095 C 
ATOM     12  C   UNL     1      -4.712   2.734  23.609  0.00  0.00    +0.026 C 
ATOM     13  C   UNL     1      -6.532   1.239  24.395  0.00  0.00    +0.019 C 
ATOM     14  C   UNL     1      -4.246   1.738  26.192  0.00  0.00    +0.094 C 
ATOM     15  C   UNL     1      -6.597   1.963  25.751  0.00  0.00    +0.085 C 
ENDROOT
BRANCH  10  16
ATOM      6  N   UNL     1      -2.247  -0.928  25.008  0.00  0.00    -0.270 N 
ATOM      7  N   UNL     1      -0.969  -1.095  24.628  0.00  0.00    -0.168 NA
ATOM     16  C   UNL     1      -2.759   0.297  24.694  0.00  0.00    +0.044 A 
ATOM     18  C   UNL     1      -1.745   0.979  24.066  0.00  0.00    +0.056 A 
ATOM     19  C   UNL     1      -0.667   0.073  24.055  0.00  0.00    +0.128 A 
ATOM     20  C   UNL     1      -2.931  -2.009  25.678  0.00  0.00    +0.172 C 
BRANCH  19  21
ATOM      2  O   UNL     1       1.464   1.373  23.848  0.00  0.00    -0.461 OA
ATOM     21  C   UNL     1       0.666   0.336  23.484  0.00  0.00    +0.155 A 
ATOM     23  C   UNL     1       1.275  -0.426  22.514  0.00  0.00    +0.051 A 
ATOM     24  C   UNL     1       2.529   0.183  22.267  0.00  0.00    +0.042 A 
ATOM     25  C   UNL     1       2.596   1.273  23.103  0.00  0.00    +0.196 A 
ENDBRANCH  19  21
ENDBRANCH  10  16
BRANCH  11  17
ATOM     17  C   UNL     1      -4.021   4.651  25.137  0.00  0.00    +0.252 C 
BRANCH  17   1
ATOM      1  O   UNL     1      -2.889   4.390  24.330  0.00  0.00    -0.449 OA
BRANCH   1  22
ATOM      3  O   UNL     1      -0.721   5.057  24.619  0.00  0.00    -0.226 OA
ATOM      8  N   UNL     1      -1.715   3.459  26.010  0.00  0.00    -0.251 N 
ATOM     22  C   UNL     1      -1.668   4.362  24.967  0.00  0.00    +0.405 C 
ATOM     34  H   UNL     1      -2.599   2.972  26.145  0.00  0.00    +0.158 HD
BRANCH   8  26
ATOM     26  C   UNL     1      -0.685   3.121  26.917  0.00  0.00    +0.036 A 
ATOM     27  C   UNL     1       0.585   2.795  26.441  0.00  0.00    +0.024 A 
ATOM     28  C   UNL     1      -0.938   3.115  28.289  0.00  0.00    +0.024 A 
ATOM     29  C   UNL     1       1.602   2.461  27.336  0.00  0.00    +0.013 A 
ATOM     30  C   UNL     1       0.079   2.780  29.184  0.00  0.00    +0.013 A 
ATOM     31  C   UNL     1       1.349   2.455  28.708  0.00  0.00    +0.017 A 
BRANCH  31  32
ATOM      4  O   UNL     1       2.153   1.647  30.772  0.00  0.00    -0.292 OA
ATOM     32  C   UNL     1       2.408   2.105  29.640  0.00  0.00    +0.160 C 
ATOM     33  C   UNL     1       3.869   2.292  29.249  0.00  0.00    +0.091 C 
ENDBRANCH  31  32
ENDBRANCH   8  26
ENDBRANCH   1  22
ENDBRANCH  17   1
ENDBRANCH  11  17
TORSDOF 7
ENDMDL
