MODEL 1
REMARK VINA RESULT:      -3.5      0.000      0.000
REMARK  Name = 51137884
REMARK  3 active torsions:
REMARK  status: ('A' for Active; 'I' for Inactive)
REMARK    1  A    between atoms: N_1  and  C_4
REMARK    2  A    between atoms: N_2  and  C_17
REMARK    3  A    between atoms: C_5  and  C_14
REMARK                            x       y       z     vdW  Elec       q    Type
REMARK                         _______ _______ _______ _____ _____    ______ ____
ROOT
ATOM      1  N   UNL     1     -10.189  -9.979  12.766  0.00  0.00    -0.299 NA
ATOM      5  C   UNL     1      -9.701 -10.449  15.012  0.00  0.00    +0.070 C 
ATOM      6  C   UNL     1      -9.269 -10.780  13.577  0.00  0.00    +0.096 C 
ATOM      7  C   UNL     1     -10.252  -8.682  13.439  0.00  0.00    +0.085 C 
ATOM      8  C   UNL     1     -10.368  -9.066  14.908  0.00  0.00    +0.028 C 
ENDROOT
BRANCH   5  14
ATOM      2  N   UNL     1      -8.779 -10.567  17.355  0.00  0.00    -0.330 N 
ATOM      3  N   UNL     1      -7.285 -10.580  15.709  0.00  0.00    -0.232 NA
ATOM     14  C   UNL     1      -8.564 -10.532  16.004  0.00  0.00    +0.115 A 
ATOM     15  C   UNL     1      -7.555 -10.642  17.970  0.00  0.00    +0.069 A 
ATOM     16  C   UNL     1      -6.640 -10.649  16.921  0.00  0.00    +0.089 A 
ATOM     17  C   UNL     1     -10.062 -10.532  18.018  0.00  0.00    +0.150 C 
ATOM     18  C   UNL     1      -7.183 -10.703  19.313  0.00  0.00    +0.028 A 
ATOM     19  C   UNL     1      -5.267 -10.719  17.211  0.00  0.00    +0.030 A 
ATOM     20  C   UNL     1      -5.813 -10.773  19.584  0.00  0.00    +0.002 A 
ATOM     21  C   UNL     1      -4.869 -10.781  18.553  0.00  0.00    +0.002 A 
ENDBRANCH   5  14
BRANCH   1   4
ATOM      4  C   UNL     1      -9.753  -9.865  11.376  0.00  0.00    +0.057 C 
ATOM      9  C   UNL     1     -10.666  -8.894  10.621  0.00  0.00    +0.019 C 
ATOM     10  C   UNL     1      -8.293  -9.406  11.324  0.00  0.00    +0.019 C 
ATOM     11  C   UNL     1     -10.194  -8.690   9.182  0.00  0.00    +0.002 C 
ATOM     12  C   UNL     1      -7.823  -9.203   9.884  0.00  0.00    +0.002 C 
ATOM     13  C   UNL     1      -8.736  -8.244   9.126  0.00  0.00    +0.000 C 
ENDBRANCH   1   4
TORSDOF 2
ENDMDL
MODEL 2
REMARK VINA RESULT:      -3.5      2.870      4.420
REMARK  Name = 51137884
REMARK  3 active torsions:
REMARK  status: ('A' for Active; 'I' for Inactive)
REMARK    1  A    between atoms: N_1  and  C_4
REMARK    2  A    between atoms: N_2  and  C_17
REMARK    3  A    between atoms: C_5  and  C_14
REMARK                            x       y       z     vdW  Elec       q    Type
REMARK                         _______ _______ _______ _____ _____    ______ ____
ROOT
ATOM      1  N   UNL     1      -9.392  -9.058   9.533  0.00  0.00    -0.299 NA
ATOM      5  C   UNL     1      -8.250 -10.453  11.034  0.00  0.00    +0.070 C 
ATOM      6  C   UNL     1      -8.027  -9.395   9.944  0.00  0.00    +0.096 C 
ATOM      7  C   UNL     1     -10.148  -8.958  10.781  0.00  0.00    +0.085 C 
ATOM      8  C   UNL     1      -9.664 -10.168  11.570  0.00  0.00    +0.028 C 
ENDROOT
BRANCH   5  14
ATOM      2  N   UNL     1      -5.842 -10.608  11.763  0.00  0.00    -0.330 N 
ATOM      3  N   UNL     1      -7.341 -10.319  13.379  0.00  0.00    -0.232 NA
ATOM     14  C   UNL     1      -7.163 -10.456  12.084  0.00  0.00    +0.115 A 
ATOM     15  C   UNL     1      -5.121 -10.566  12.929  0.00  0.00    +0.069 A 
ATOM     16  C   UNL     1      -6.079 -10.385  13.923  0.00  0.00    +0.089 A 
ATOM     17  C   UNL     1      -5.299 -10.781  10.435  0.00  0.00    +0.150 C 
ATOM     18  C   UNL     1      -3.755 -10.669  13.192  0.00  0.00    +0.028 A 
ATOM     19  C   UNL     1      -5.668 -10.300  15.263  0.00  0.00    +0.030 A 
ATOM     20  C   UNL     1      -3.363 -10.581  14.531  0.00  0.00    +0.002 A 
ATOM     21  C   UNL     1      -4.301 -10.399  15.551  0.00  0.00    +0.002 A 
ENDBRANCH   5  14
BRANCH   1   4
ATOM      4  C   UNL     1      -9.450  -7.828   8.746  0.00  0.00    +0.057 C 
ATOM      9  C   UNL     1     -10.646  -6.981   9.191  0.00  0.00    +0.019 C 
ATOM     10  C   UNL     1      -8.138  -7.053   8.895  0.00  0.00    +0.019 C 
ATOM     11  C   UNL     1     -10.696  -5.650   8.442  0.00  0.00    +0.002 C 
ATOM     12  C   UNL     1      -8.189  -5.722   8.145  0.00  0.00    +0.002 C 
ATOM     13  C   UNL     1      -9.385  -4.880   8.578  0.00  0.00    +0.000 C 
ENDBRANCH   1   4
TORSDOF 2
ENDMDL
MODEL 3
REMARK VINA RESULT:      -3.5      2.238      2.909
REMARK  Name = 51137884
REMARK  3 active torsions:
REMARK  status: ('A' for Active; 'I' for Inactive)
REMARK    1  A    between atoms: N_1  and  C_4
REMARK    2  A    between atoms: N_2  and  C_17
REMARK    3  A    between atoms: C_5  and  C_14
REMARK                            x       y       z     vdW  Elec       q    Type
REMARK                         _______ _______ _______ _____ _____    ______ ____
ROOT
ATOM      1  N   UNL     1      -7.042  -9.960  11.712  0.00  0.00    -0.299 NA
ATOM      5  C   UNL     1      -7.789 -10.282  13.913  0.00  0.00    +0.070 C 
ATOM      6  C   UNL     1      -6.757 -10.781  12.891  0.00  0.00    +0.096 C 
ATOM      7  C   UNL     1      -7.251  -8.610  12.235  0.00  0.00    +0.085 C 
ATOM      8  C   UNL     1      -8.124  -8.850  13.459  0.00  0.00    +0.028 C 
ENDROOT
BRANCH   5  14
ATOM      2  N   UNL     1      -8.177 -10.467  16.396  0.00  0.00    -0.330 N 
ATOM      3  N   UNL     1      -6.056 -10.450  15.731  0.00  0.00    -0.232 NA
ATOM     14  C   UNL     1      -7.309 -10.399  15.341  0.00  0.00    +0.115 A 
ATOM     15  C   UNL     1      -7.432 -10.568  17.543  0.00  0.00    +0.069 A 
ATOM     16  C   UNL     1      -6.112 -10.555  17.101  0.00  0.00    +0.089 A 
ATOM     17  C   UNL     1      -9.620 -10.439  16.320  0.00  0.00    +0.150 C 
ATOM     18  C   UNL     1      -7.789 -10.665  18.888  0.00  0.00    +0.028 A 
ATOM     19  C   UNL     1      -5.074 -10.643  18.044  0.00  0.00    +0.030 A 
ATOM     20  C   UNL     1      -6.743 -10.753  19.813  0.00  0.00    +0.002 A 
ATOM     21  C   UNL     1      -5.408 -10.743  19.400  0.00  0.00    +0.002 A 
ENDBRANCH   5  14
BRANCH   1   4
ATOM      4  C   UNL     1      -5.969 -10.014  10.722  0.00  0.00    +0.057 C 
ATOM      9  C   UNL     1      -6.074  -8.817   9.772  0.00  0.00    +0.019 C 
ATOM     10  C   UNL     1      -4.610 -10.042  11.428  0.00  0.00    +0.019 C 
ATOM     11  C   UNL     1      -4.923  -8.798   8.769  0.00  0.00    +0.002 C 
ATOM     12  C   UNL     1      -3.459 -10.023  10.423  0.00  0.00    +0.002 C 
ATOM     13  C   UNL     1      -3.567  -8.837   9.468  0.00  0.00    +0.000 C 
ENDBRANCH   1   4
TORSDOF 2
ENDMDL
MODEL 4
REMARK VINA RESULT:      -3.5     25.247     27.950
REMARK  Name = 51137884
REMARK  3 active torsions:
REMARK  status: ('A' for Active; 'I' for Inactive)
REMARK    1  A    between atoms: N_1  and  C_4
REMARK    2  A    between atoms: N_2  and  C_17
REMARK    3  A    between atoms: C_5  and  C_14
REMARK                            x       y       z     vdW  Elec       q    Type
REMARK                         _______ _______ _______ _____ _____    ______ ____
ROOT
ATOM      1  N   UNL     1      12.394  -7.478  32.742  0.00  0.00    -0.299 NA
ATOM      5  C   UNL     1      14.181  -6.503  31.576  0.00  0.00    +0.070 C 
ATOM      6  C   UNL     1      13.493  -7.848  31.846  0.00  0.00    +0.096 C 
ATOM      7  C   UNL     1      11.840  -6.251  32.170  0.00  0.00    +0.085 C 
ATOM      8  C   UNL     1      13.084  -5.450  31.811  0.00  0.00    +0.028 C 
ENDROOT
BRANCH   5  14
ATOM      2  N   UNL     1      15.981  -5.720  29.996  0.00  0.00    -0.330 N 
ATOM      3  N   UNL     1      14.420  -7.043  29.129  0.00  0.00    -0.232 NA
ATOM     14  C   UNL     1      14.840  -6.440  30.218  0.00  0.00    +0.115 A 
ATOM     15  C   UNL     1      16.319  -5.869  28.674  0.00  0.00    +0.069 A 
ATOM     16  C   UNL     1      15.329  -6.698  28.155  0.00  0.00    +0.089 A 
ATOM     17  C   UNL     1      16.706  -4.941  30.974  0.00  0.00    +0.150 C 
ATOM     18  C   UNL     1      17.372  -5.362  27.912  0.00  0.00    +0.028 A 
ATOM     19  C   UNL     1      15.377  -7.055  26.797  0.00  0.00    +0.030 A 
ATOM     20  C   UNL     1      17.405  -5.728  26.563  0.00  0.00    +0.002 A 
ATOM     21  C   UNL     1      16.426  -6.559  26.012  0.00  0.00    +0.002 A 
ENDBRANCH   5  14
BRANCH   1   4
ATOM      4  C   UNL     1      11.395  -8.537  32.865  0.00  0.00    +0.057 C 
ATOM      9  C   UNL     1       9.988  -7.942  32.743  0.00  0.00    +0.019 C 
ATOM     10  C   UNL     1      11.637  -9.608  31.798  0.00  0.00    +0.019 C 
ATOM     11  C   UNL     1       8.917  -9.031  32.792  0.00  0.00    +0.002 C 
ATOM     12  C   UNL     1      10.565 -10.696  31.848  0.00  0.00    +0.002 C 
ATOM     13  C   UNL     1       9.162 -10.107  31.737  0.00  0.00    +0.000 C 
ENDBRANCH   1   4
TORSDOF 2
ENDMDL
MODEL 5
REMARK VINA RESULT:      -3.2     22.783     26.760
REMARK  Name = 51137884
REMARK  3 active torsions:
REMARK  status: ('A' for Active; 'I' for Inactive)
REMARK    1  A    between atoms: N_1  and  C_4
REMARK    2  A    between atoms: N_2  and  C_17
REMARK    3  A    between atoms: C_5  and  C_14
REMARK                            x       y       z     vdW  Elec       q    Type
REMARK                         _______ _______ _______ _____ _____    ______ ____
ROOT
ATOM      1  N   UNL     1      10.069  -8.936  32.869  0.00  0.00    -0.299 NA
ATOM      5  C   UNL     1      12.379  -9.094  32.495  0.00  0.00    +0.070 C 
ATOM      6  C   UNL     1      11.063  -9.867  32.330  0.00  0.00    +0.096 C 
ATOM      7  C   UNL     1      10.448  -7.629  32.334  0.00  0.00    +0.085 C 
ATOM      8  C   UNL     1      11.961  -7.613  32.516  0.00  0.00    +0.028 C 
ENDROOT
BRANCH   5  14
ATOM      2  N   UNL     1      14.748  -9.279  31.654  0.00  0.00    -0.330 N 
ATOM      3  N   UNL     1      13.153  -9.942  30.254  0.00  0.00    -0.232 NA
ATOM     14  C   UNL     1      13.407  -9.448  31.445  0.00  0.00    +0.115 A 
ATOM     15  C   UNL     1      15.402  -9.692  30.521  0.00  0.00    +0.069 A 
ATOM     16  C   UNL     1      14.385 -10.100  29.663  0.00  0.00    +0.089 A 
ATOM     17  C   UNL     1      15.368  -8.761  32.852  0.00  0.00    +0.150 C 
ATOM     18  C   UNL     1      16.755  -9.739  30.183  0.00  0.00    +0.028 A 
ATOM     19  C   UNL     1      14.719 -10.587  28.388  0.00  0.00    +0.030 A 
ATOM     20  C   UNL     1      17.070 -10.228  28.912  0.00  0.00    +0.002 A 
ATOM     21  C   UNL     1      16.071 -10.646  28.028  0.00  0.00    +0.002 A 
ENDBRANCH   5  14
BRANCH   1   4
ATOM      4  C   UNL     1       8.703  -9.310  32.508  0.00  0.00    +0.057 C 
ATOM      9  C   UNL     1       7.941  -8.079  32.005  0.00  0.00    +0.019 C 
ATOM     10  C   UNL     1       8.728 -10.416  31.449  0.00  0.00    +0.019 C 
ATOM     11  C   UNL     1       6.531  -8.446  31.547  0.00  0.00    +0.002 C 
ATOM     12  C   UNL     1       7.316 -10.781  30.992  0.00  0.00    +0.002 C 
ATOM     13  C   UNL     1       6.551  -9.557  30.500  0.00  0.00    +0.000 C 
ENDBRANCH   1   4
TORSDOF 2
ENDMDL
MODEL 6
REMARK VINA RESULT:      -3.0     24.964     27.567
REMARK  Name = 51137884
REMARK  3 active torsions:
REMARK  status: ('A' for Active; 'I' for Inactive)
REMARK    1  A    between atoms: N_1  and  C_4
REMARK    2  A    between atoms: N_2  and  C_17
REMARK    3  A    between atoms: C_5  and  C_14
REMARK                            x       y       z     vdW  Elec       q    Type
REMARK                         _______ _______ _______ _____ _____    ______ ____
ROOT
ATOM      1  N   UNL     1      12.206  -7.744  32.615  0.00  0.00    -0.299 NA
ATOM      5  C   UNL     1      14.124  -7.298  31.341  0.00  0.00    +0.070 C 
ATOM      6  C   UNL     1      13.189  -8.435  31.777  0.00  0.00    +0.096 C 
ATOM      7  C   UNL     1      11.893  -6.513  31.891  0.00  0.00    +0.085 C 
ATOM      8  C   UNL     1      13.263  -6.026  31.438  0.00  0.00    +0.028 C 
ENDROOT
BRANCH   5  14
ATOM      2  N   UNL     1      15.642  -8.552  29.768  0.00  0.00    -0.330 N 
ATOM      3  N   UNL     1      14.532  -6.832  28.901  0.00  0.00    -0.232 NA
ATOM     14  C   UNL     1      14.753  -7.537  29.988  0.00  0.00    +0.115 A 
ATOM     15  C   UNL     1      16.020  -8.498  28.451  0.00  0.00    +0.069 A 
ATOM     16  C   UNL     1      15.315  -7.416  27.931  0.00  0.00    +0.089 A 
ATOM     17  C   UNL     1      16.102  -9.512  30.745  0.00  0.00    +0.150 C 
ATOM     18  C   UNL     1      16.895  -9.278  27.692  0.00  0.00    +0.028 A 
ATOM     19  C   UNL     1      15.478  -7.078  26.578  0.00  0.00    +0.030 A 
ATOM     20  C   UNL     1      17.045  -8.928  26.347  0.00  0.00    +0.002 A 
ATOM     21  C   UNL     1      16.350  -7.847  25.796  0.00  0.00    +0.002 A 
ENDBRANCH   5  14
BRANCH   1   4
ATOM      4  C   UNL     1      11.019  -8.559  32.868  0.00  0.00    +0.057 C 
ATOM      9  C   UNL     1       9.756  -7.711  32.685  0.00  0.00    +0.019 C 
ATOM     10  C   UNL     1      11.011  -9.772  31.933  0.00  0.00    +0.019 C 
ATOM     11  C   UNL     1       8.491  -8.549  32.867  0.00  0.00    +0.002 C 
ATOM     12  C   UNL     1       9.745 -10.608  32.116  0.00  0.00    +0.002 C 
ATOM     13  C   UNL     1       8.485  -9.765  31.945  0.00  0.00    +0.000 C 
ENDBRANCH   1   4
TORSDOF 2
ENDMDL
MODEL 7
REMARK VINA RESULT:      -2.3     24.380     27.393
REMARK  Name = 51137884
REMARK  3 active torsions:
REMARK  status: ('A' for Active; 'I' for Inactive)
REMARK    1  A    between atoms: N_1  and  C_4
REMARK    2  A    between atoms: N_2  and  C_17
REMARK    3  A    between atoms: C_5  and  C_14
REMARK                            x       y       z     vdW  Elec       q    Type
REMARK                         _______ _______ _______ _____ _____    ______ ____
ROOT
ATOM      1  N   UNL     1      12.196  -8.657  32.412  0.00  0.00    -0.299 NA
ATOM      5  C   UNL     1      14.214  -8.887  31.238  0.00  0.00    +0.070 C 
ATOM      6  C   UNL     1      12.921  -9.634  31.595  0.00  0.00    +0.096 C 
ATOM      7  C   UNL     1      12.369  -7.382  31.716  0.00  0.00    +0.085 C 
ATOM      8  C   UNL     1      13.844  -7.397  31.339  0.00  0.00    +0.028 C 
ENDROOT
BRANCH   5  14
ATOM      2  N   UNL     1      16.082  -9.034  29.552  0.00  0.00    -0.330 N 
ATOM      3  N   UNL     1      14.151  -9.964  28.963  0.00  0.00    -0.232 NA
ATOM     14  C   UNL     1      14.790  -9.309  29.906  0.00  0.00    +0.115 A 
ATOM     15  C   UNL     1      16.289  -9.547  28.297  0.00  0.00    +0.069 A 
ATOM     16  C   UNL     1      15.069 -10.121  27.951  0.00  0.00    +0.089 A 
ATOM     17  C   UNL     1      17.057  -8.331  30.354  0.00  0.00    +0.150 C 
ATOM     18  C   UNL     1      17.405  -9.555  27.459  0.00  0.00    +0.028 A 
ATOM     19  C   UNL     1      14.937 -10.746  26.700  0.00  0.00    +0.030 A 
ATOM     20  C   UNL     1      17.256 -10.181  26.218  0.00  0.00    +0.002 A 
ATOM     21  C   UNL     1      16.044 -10.767  25.842  0.00  0.00    +0.002 A 
ENDBRANCH   5  14
BRANCH   1   4
ATOM      4  C   UNL     1      10.789  -9.011  32.586  0.00  0.00    +0.057 C 
ATOM      9  C   UNL     1       9.902  -7.815  32.225  0.00  0.00    +0.019 C 
ATOM     10  C   UNL     1      10.449 -10.231  31.726  0.00  0.00    +0.019 C 
ATOM     11  C   UNL     1       8.420  -8.171  32.322  0.00  0.00    +0.002 C 
ATOM     12  C   UNL     1       8.965 -10.586  31.824  0.00  0.00    +0.002 C 
ATOM     13  C   UNL     1       8.079  -9.394  31.475  0.00  0.00    +0.000 C 
ENDBRANCH   1   4
TORSDOF 2
ENDMDL
MODEL 8
REMARK VINA RESULT:      -1.6     14.538     17.301
REMARK  Name = 51137884
REMARK  3 active torsions:
REMARK  status: ('A' for Active; 'I' for Inactive)
REMARK    1  A    between atoms: N_1  and  C_4
REMARK    2  A    between atoms: N_2  and  C_17
REMARK    3  A    between atoms: C_5  and  C_14
REMARK                            x       y       z     vdW  Elec       q    Type
REMARK                         _______ _______ _______ _____ _____    ______ ____
ROOT
ATOM      1  N   UNL     1       1.603  -0.686  23.336  0.00  0.00    -0.299 NA
ATOM      5  C   UNL     1      -0.721  -0.464  23.567  0.00  0.00    +0.070 C 
ATOM      6  C   UNL     1       0.600  -0.309  24.334  0.00  0.00    +0.096 C 
ATOM      7  C   UNL     1       1.168  -0.036  22.100  0.00  0.00    +0.085 C 
ATOM      8  C   UNL     1      -0.332  -0.301  22.087  0.00  0.00    +0.028 C 
ENDROOT
BRANCH   5  14
ATOM      2  N   UNL     1      -3.055   0.048  24.368  0.00  0.00    -0.330 N 
ATOM      3  N   UNL     1      -1.667   1.777  24.213  0.00  0.00    -0.232 NA
ATOM     14  C   UNL     1      -1.798   0.480  24.048  0.00  0.00    +0.115 A 
ATOM     15  C   UNL     1      -3.783   1.140  24.766  0.00  0.00    +0.069 A 
ATOM     16  C   UNL     1      -2.895   2.207  24.660  0.00  0.00    +0.089 A 
ATOM     17  C   UNL     1      -3.534  -1.314  24.301  0.00  0.00    +0.150 C 
ATOM     18  C   UNL     1      -5.104   1.281  25.195  0.00  0.00    +0.028 A 
ATOM     19  C   UNL     1      -3.333   3.498  24.998  0.00  0.00    +0.030 A 
ATOM     20  C   UNL     1      -5.522   2.573  25.528  0.00  0.00    +0.002 A 
ATOM     21  C   UNL     1      -4.654   3.664  25.432  0.00  0.00    +0.002 A 
ENDBRANCH   5  14
BRANCH   1   4
ATOM      4  C   UNL     1       2.954  -0.290  23.727  0.00  0.00    +0.057 C 
ATOM      9  C   UNL     1       3.859  -1.525  23.799  0.00  0.00    +0.019 C 
ATOM     10  C   UNL     1       3.503   0.740  22.735  0.00  0.00    +0.019 C 
ATOM     11  C   UNL     1       5.300  -1.142  24.131  0.00  0.00    +0.002 C 
ATOM     12  C   UNL     1       4.945   1.122  23.069  0.00  0.00    +0.002 C 
ATOM     13  C   UNL     1       5.846  -0.106  23.152  0.00  0.00    +0.000 C 
ENDBRANCH   1   4
TORSDOF 2
ENDMDL
MODEL 9
REMARK VINA RESULT:      -0.2     15.380     16.973
REMARK  Name = 51137884
REMARK  3 active torsions:
REMARK  status: ('A' for Active; 'I' for Inactive)
REMARK    1  A    between atoms: N_1  and  C_4
REMARK    2  A    between atoms: N_2  and  C_17
REMARK    3  A    between atoms: C_5  and  C_14
REMARK                            x       y       z     vdW  Elec       q    Type
REMARK                         _______ _______ _______ _____ _____    ______ ____
ROOT
ATOM      1  N   UNL     1      -3.117   0.127  24.451  0.00  0.00    -0.299 NA
ATOM      5  C   UNL     1      -1.042  -0.899  24.067  0.00  0.00    +0.070 C 
ATOM      6  C   UNL     1      -1.982   0.189  23.527  0.00  0.00    +0.096 C 
ATOM      7  C   UNL     1      -2.516  -0.003  25.778  0.00  0.00    +0.085 C 
ATOM      8  C   UNL     1      -1.416  -1.033  25.554  0.00  0.00    +0.028 C 
ENDROOT
BRANCH   5  14
ATOM      2  N   UNL     1       0.859   0.654  23.495  0.00  0.00    -0.330 N 
ATOM      3  N   UNL     1       1.397  -1.476  23.838  0.00  0.00    -0.232 NA
ATOM     14  C   UNL     1       0.416  -0.603  23.804  0.00  0.00    +0.115 A 
ATOM     15  C   UNL     1       2.217   0.586  23.318  0.00  0.00    +0.069 A 
ATOM     16  C   UNL     1       2.529  -0.753  23.537  0.00  0.00    +0.089 A 
ATOM     17  C   UNL     1       0.045   1.842  23.376  0.00  0.00    +0.150 C 
ATOM     18  C   UNL     1       3.170   1.551  22.993  0.00  0.00    +0.028 A 
ATOM     19  C   UNL     1       3.866  -1.171  23.430  0.00  0.00    +0.030 A 
ATOM     20  C   UNL     1       4.496   1.118  22.892  0.00  0.00    +0.002 A 
ATOM     21  C   UNL     1       4.841  -0.219  23.106  0.00  0.00    +0.002 A 
ENDBRANCH   5  14
BRANCH   1   4
ATOM      4  C   UNL     1      -3.986   1.297  24.345  0.00  0.00    +0.057 C 
ATOM      9  C   UNL     1      -5.144   1.178  25.341  0.00  0.00    +0.019 C 
ATOM     10  C   UNL     1      -3.175   2.573  24.591  0.00  0.00    +0.019 C 
ATOM     11  C   UNL     1      -6.033   2.420  25.313  0.00  0.00    +0.002 C 
ATOM     12  C   UNL     1      -4.066   3.814  24.563  0.00  0.00    +0.002 C 
ATOM     13  C   UNL     1      -5.227   3.694  25.546  0.00  0.00    +0.000 C 
ENDBRANCH   1   4
TORSDOF 2
ENDMDL
MODEL 10
REMARK VINA RESULT:      -0.1     14.981     17.305
REMARK  Name = 51137884
REMARK  3 active torsions:
REMARK  status: ('A' for Active; 'I' for Inactive)
REMARK    1  A    between atoms: N_1  and  C_4
REMARK    2  A    between atoms: N_2  and  C_17
REMARK    3  A    between atoms: C_5  and  C_14
REMARK                            x       y       z     vdW  Elec       q    Type
REMARK                         _______ _______ _______ _____ _____    ______ ____
ROOT
ATOM      1  N   UNL     1       0.673  -0.908  24.026  0.00  0.00    -0.299 NA
ATOM      5  C   UNL     1      -1.353  -0.460  25.121  0.00  0.00    +0.070 C 
ATOM      6  C   UNL     1      -0.030   0.191  24.693  0.00  0.00    +0.096 C 
ATOM      7  C   UNL     1      -0.345  -1.563  23.206  0.00  0.00    +0.085 C 
ATOM      8  C   UNL     1      -1.545  -1.632  24.142  0.00  0.00    +0.028 C 
ENDROOT
BRANCH   5  14
ATOM      2  N   UNL     1      -2.309   1.859  25.367  0.00  0.00    -0.330 N 
ATOM      3  N   UNL     1      -3.775   0.222  25.034  0.00  0.00    -0.232 NA
ATOM     14  C   UNL     1      -2.503   0.520  25.170  0.00  0.00    +0.115 A 
ATOM     15  C   UNL     1      -3.540   2.465  25.359  0.00  0.00    +0.069 A 
ATOM     16  C   UNL     1      -4.438   1.422  25.149  0.00  0.00    +0.089 A 
ATOM     17  C   UNL     1      -1.038   2.522  25.552  0.00  0.00    +0.150 C 
ATOM     18  C   UNL     1      -3.932   3.795  25.513  0.00  0.00    +0.028 A 
ATOM     19  C   UNL     1      -5.812   1.705  25.087  0.00  0.00    +0.030 A 
ATOM     20  C   UNL     1      -5.303   4.059  25.447  0.00  0.00    +0.002 A 
ATOM     21  C   UNL     1      -6.230   3.033  25.238  0.00  0.00    +0.002 A 
ENDBRANCH   5  14
BRANCH   1   4
ATOM      4  C   UNL     1       1.811  -0.444  23.237  0.00  0.00    +0.057 C 
ATOM      9  C   UNL     1       1.995   1.065  23.424  0.00  0.00    +0.019 C 
ATOM     10  C   UNL     1       3.074  -1.210  23.644  0.00  0.00    +0.019 C 
ATOM     11  C   UNL     1       3.224   1.575  22.673  0.00  0.00    +0.002 C 
ATOM     12  C   UNL     1       4.302  -0.698  22.891  0.00  0.00    +0.002 C 
ATOM     13  C   UNL     1       4.482   0.806  23.067  0.00  0.00    +0.000 C 
ENDBRANCH   1   4
TORSDOF 2
ENDMDL
