MODEL 1
REMARK VINA RESULT:       2.9      0.000      0.000
REMARK  Name = 11913092
REMARK  10 active torsions:
REMARK  status: ('A' for Active; 'I' for Inactive)
REMARK    1  A    between atoms: O_3  and  C_13
REMARK    2  A    between atoms: O_3  and  C_17
REMARK    3  A    between atoms: N_6  and  C_12
REMARK    4  A    between atoms: N_9  and  C_25
REMARK    5  A    between atoms: C_18  and  C_19
REMARK    6  A    between atoms: C_18  and  C_22
REMARK    7  A    between atoms: C_18  and  C_23
REMARK    8  A    between atoms: C_18  and  C_24
REMARK    9  A    between atoms: C_30  and  C_31
REMARK   10  A    between atoms: C_31  and  C_32
REMARK                            x       y       z     vdW  Elec       q    Type
REMARK                         _______ _______ _______ _____ _____    ______ ____
ROOT
ATOM      1  O   UNL     1      -3.214  -0.842  23.288  0.00  0.00    -0.368 OA
ATOM      2  O   UNL     1      -1.643  -1.113  25.909  0.00  0.00    -0.368 OA
ATOM     10  C   UNL     1      -2.576  -0.110  25.451  0.00  0.00    +0.173 C 
ATOM     11  C   UNL     1      -2.333   0.069  23.966  0.00  0.00    +0.192 C 
ATOM     12  C   UNL     1      -3.987  -0.643  25.529  0.00  0.00    +0.130 C 
ATOM     13  C   UNL     1      -0.888  -0.340  23.819  0.00  0.00    +0.235 C 
ATOM     14  C   UNL     1      -4.104  -1.441  24.242  0.00  0.00    +0.185 C 
ATOM     15  C   UNL     1      -0.768  -1.461  24.827  0.00  0.00    +0.207 C 
ENDROOT
BRANCH  12   6
ATOM      6  N   UNL     1      -4.936   0.449  25.532  0.00  0.00    -0.306 N 
ATOM      7  N   UNL     1      -3.248   2.063  25.306  0.00  0.00    -0.219 NA
ATOM      8  N   UNL     1      -5.567   2.707  25.436  0.00  0.00    -0.223 NA
ATOM     16  C   UNL     1      -4.573   1.780  25.421  0.00  0.00    +0.216 A 
ATOM     19  C   UNL     1      -2.930   3.370  25.200  0.00  0.00    +0.052 A 
ATOM     20  C   UNL     1      -3.861   4.389  25.204  0.00  0.00    +0.043 A 
ATOM     21  C   UNL     1      -5.178   3.994  25.326  0.00  0.00    +0.116 A 
ATOM     33  H   UNL     1      -5.929   0.246  25.564  0.00  0.00    +0.149 HD
BRANCH  19  18
ATOM     18  C   UNL     1      -1.481   3.700  25.073  0.00  0.00    +0.005 C 
ATOM     22  C   UNL     1      -0.799   3.223  23.748  0.00  0.00    +0.017 C 
ATOM     23  C   UNL     1      -1.244   5.241  25.130  0.00  0.00    +0.017 C 
ATOM     24  C   UNL     1      -0.650   3.053  26.224  0.00  0.00    +0.017 C 
ENDBRANCH  19  18
ENDBRANCH  12   6
BRANCH  13   3
ATOM      3  O   UNL     1      -0.550  -0.759  22.516  0.00  0.00    -0.442 OA
BRANCH   3  17
ATOM      4  O   UNL     1       1.107  -0.546  20.955  0.00  0.00    -0.226 OA
ATOM      9  N   UNL     1       1.569  -0.515  23.250  0.00  0.00    -0.251 N 
ATOM     17  C   UNL     1       0.764  -0.599  22.129  0.00  0.00    +0.405 C 
ATOM     34  H   UNL     1       1.095  -0.582  24.147  0.00  0.00    +0.158 HD
BRANCH   9  25
ATOM     25  C   UNL     1       2.971  -0.350  23.303  0.00  0.00    +0.036 A 
ATOM     26  C   UNL     1       3.534   0.835  22.855  0.00  0.00    +0.024 A 
ATOM     27  C   UNL     1       3.756  -1.375  23.804  0.00  0.00    +0.024 A 
ATOM     28  C   UNL     1       4.918   0.997  22.907  0.00  0.00    +0.013 A 
ATOM     29  C   UNL     1       5.141  -1.213  23.857  0.00  0.00    +0.013 A 
ATOM     30  C   UNL     1       5.722  -0.026  23.409  0.00  0.00    +0.017 A 
BRANCH  30  31
ATOM      5  O   UNL     1       7.687   1.071  24.114  0.00  0.00    -0.292 OA
ATOM     31  C   UNL     1       7.165   0.143  23.466  0.00  0.00    +0.160 C 
ATOM     32  C   UNL     1       8.082  -0.823  22.722  0.00  0.00    +0.091 C 
ENDBRANCH  30  31
ENDBRANCH   9  25
ENDBRANCH   3  17
ENDBRANCH  13   3
TORSDOF 6
ENDMDL
MODEL 2
REMARK VINA RESULT:       2.9      1.725      2.669
REMARK  Name = 11913092
REMARK  10 active torsions:
REMARK  status: ('A' for Active; 'I' for Inactive)
REMARK    1  A    between atoms: O_3  and  C_13
REMARK    2  A    between atoms: O_3  and  C_17
REMARK    3  A    between atoms: N_6  and  C_12
REMARK    4  A    between atoms: N_9  and  C_25
REMARK    5  A    between atoms: C_18  and  C_19
REMARK    6  A    between atoms: C_18  and  C_22
REMARK    7  A    between atoms: C_18  and  C_23
REMARK    8  A    between atoms: C_18  and  C_24
REMARK    9  A    between atoms: C_30  and  C_31
REMARK   10  A    between atoms: C_31  and  C_32
REMARK                            x       y       z     vdW  Elec       q    Type
REMARK                         _______ _______ _______ _____ _____    ______ ____
ROOT
ATOM      1  O   UNL     1      -2.764  -0.248  24.932  0.00  0.00    -0.368 OA
ATOM      2  O   UNL     1      -5.003  -1.780  23.501  0.00  0.00    -0.368 OA
ATOM     10  C   UNL     1      -5.042  -0.772  24.533  0.00  0.00    +0.173 C 
ATOM     11  C   UNL     1      -3.857  -1.030  25.442  0.00  0.00    +0.192 C 
ATOM     12  C   UNL     1      -4.758   0.587  23.939  0.00  0.00    +0.130 C 
ATOM     13  C   UNL     1      -3.619  -2.509  25.258  0.00  0.00    +0.235 C 
ATOM     14  C   UNL     1      -3.241   0.605  23.881  0.00  0.00    +0.185 C 
ATOM     15  C   UNL     1      -3.948  -2.706  23.795  0.00  0.00    +0.207 C 
ENDROOT
BRANCH  12   6
ATOM      6  N   UNL     1      -5.239   1.630  24.820  0.00  0.00    -0.306 N 
ATOM      7  N   UNL     1      -3.146   2.688  24.892  0.00  0.00    -0.219 NA
ATOM      8  N   UNL     1      -5.025   3.580  26.108  0.00  0.00    -0.223 NA
ATOM     16  C   UNL     1      -4.447   2.664  25.287  0.00  0.00    +0.216 A 
ATOM     19  C   UNL     1      -2.403   3.709  25.366  0.00  0.00    +0.052 A 
ATOM     20  C   UNL     1      -2.893   4.691  26.203  0.00  0.00    +0.043 A 
ATOM     21  C   UNL     1      -4.225   4.573  26.545  0.00  0.00    +0.116 A 
ATOM     33  H   UNL     1      -6.219   1.651  25.079  0.00  0.00    +0.149 HD
BRANCH  19  18
ATOM     18  C   UNL     1      -0.973   3.753  24.942  0.00  0.00    +0.005 C 
ATOM     22  C   UNL     1      -0.671   3.128  23.539  0.00  0.00    +0.017 C 
ATOM     23  C   UNL     1      -0.450   5.220  24.864  0.00  0.00    +0.017 C 
ATOM     24  C   UNL     1      -0.062   2.981  25.946  0.00  0.00    +0.017 C 
ENDBRANCH  19  18
ENDBRANCH  12   6
BRANCH  13   3
ATOM      3  O   UNL     1      -2.303  -2.910  25.565  0.00  0.00    -0.442 OA
BRANCH   3  17
ATOM      4  O   UNL     1      -1.319  -3.233  23.527  0.00  0.00    -0.226 OA
ATOM      9  N   UNL     1      -0.450  -1.717  25.085  0.00  0.00    -0.251 N 
ATOM     17  C   UNL     1      -1.337  -2.665  24.612  0.00  0.00    +0.405 C 
ATOM     34  H   UNL     1      -0.632  -1.360  26.020  0.00  0.00    +0.158 HD
BRANCH   9  25
ATOM     25  C   UNL     1       0.682  -1.182  24.431  0.00  0.00    +0.036 A 
ATOM     26  C   UNL     1       0.566   0.013  23.738  0.00  0.00    +0.024 A 
ATOM     27  C   UNL     1       1.888  -1.862  24.495  0.00  0.00    +0.024 A 
ATOM     28  C   UNL     1       1.684   0.540  23.092  0.00  0.00    +0.013 A 
ATOM     29  C   UNL     1       3.006  -1.335  23.849  0.00  0.00    +0.013 A 
ATOM     30  C   UNL     1       2.904  -0.133  23.148  0.00  0.00    +0.017 A 
BRANCH  30  31
ATOM      5  O   UNL     1       3.985   0.942  21.349  0.00  0.00    -0.292 OA
ATOM     31  C   UNL     1       4.070   0.417  22.476  0.00  0.00    +0.160 C 
ATOM     32  C   UNL     1       5.441   0.360  23.144  0.00  0.00    +0.091 C 
ENDBRANCH  30  31
ENDBRANCH   9  25
ENDBRANCH   3  17
ENDBRANCH  13   3
TORSDOF 6
ENDMDL
MODEL 3
REMARK VINA RESULT:       4.6      1.286      2.112
REMARK  Name = 11913092
REMARK  10 active torsions:
REMARK  status: ('A' for Active; 'I' for Inactive)
REMARK    1  A    between atoms: O_3  and  C_13
REMARK    2  A    between atoms: O_3  and  C_17
REMARK    3  A    between atoms: N_6  and  C_12
REMARK    4  A    between atoms: N_9  and  C_25
REMARK    5  A    between atoms: C_18  and  C_19
REMARK    6  A    between atoms: C_18  and  C_22
REMARK    7  A    between atoms: C_18  and  C_23
REMARK    8  A    between atoms: C_18  and  C_24
REMARK    9  A    between atoms: C_30  and  C_31
REMARK   10  A    between atoms: C_31  and  C_32
REMARK                            x       y       z     vdW  Elec       q    Type
REMARK                         _______ _______ _______ _____ _____    ______ ____
ROOT
ATOM      1  O   UNL     1      -3.230   0.802  23.624  0.00  0.00    -0.368 OA
ATOM      2  O   UNL     1      -4.707  -1.572  24.887  0.00  0.00    -0.368 OA
ATOM     10  C   UNL     1      -4.378  -0.264  25.404  0.00  0.00    +0.173 C 
ATOM     11  C   UNL     1      -3.011   0.093  24.855  0.00  0.00    +0.192 C 
ATOM     12  C   UNL     1      -5.296   0.774  24.803  0.00  0.00    +0.130 C 
ATOM     13  C   UNL     1      -2.390  -1.261  24.617  0.00  0.00    +0.235 C 
ATOM     14  C   UNL     1      -4.634   1.059  23.466  0.00  0.00    +0.185 C 
ATOM     15  C   UNL     1      -3.577  -2.082  24.166  0.00  0.00    +0.207 C 
ENDROOT
BRANCH  12   6
ATOM      6  N   UNL     1      -5.308   1.968  25.621  0.00  0.00    -0.306 N 
ATOM      7  N   UNL     1      -3.126   2.556  24.990  0.00  0.00    -0.219 NA
ATOM      8  N   UNL     1      -4.385   3.930  26.518  0.00  0.00    -0.223 NA
ATOM     16  C   UNL     1      -4.241   2.845  25.713  0.00  0.00    +0.216 A 
ATOM     19  C   UNL     1      -2.106   3.432  25.103  0.00  0.00    +0.052 A 
ATOM     20  C   UNL     1      -2.149   4.563  25.891  0.00  0.00    +0.043 A 
ATOM     21  C   UNL     1      -3.326   4.763  26.584  0.00  0.00    +0.116 A 
ATOM     33  H   UNL     1      -6.152   2.220  26.123  0.00  0.00    +0.149 HD
BRANCH  19  18
ATOM     18  C   UNL     1      -0.873   3.132  24.316  0.00  0.00    +0.005 C 
ATOM     22  C   UNL     1      -0.039   4.380  23.878  0.00  0.00    +0.017 C 
ATOM     23  C   UNL     1       0.113   2.238  25.130  0.00  0.00    +0.017 C 
ATOM     24  C   UNL     1      -1.215   2.375  22.996  0.00  0.00    +0.017 C 
ENDBRANCH  19  18
ENDBRANCH  12   6
BRANCH  13   3
ATOM      3  O   UNL     1      -1.358  -1.247  23.656  0.00  0.00    -0.442 OA
BRANCH   3  17
ATOM      4  O   UNL     1       0.243  -1.597  25.249  0.00  0.00    -0.226 OA
ATOM      9  N   UNL     1       0.767  -0.672  23.164  0.00  0.00    -0.251 N 
ATOM     17  C   UNL     1      -0.064  -1.206  24.130  0.00  0.00    +0.405 C 
ATOM     34  H   UNL     1       0.322  -0.402  22.290  0.00  0.00    +0.158 HD
BRANCH   9  25
ATOM     25  C   UNL     1       2.160  -0.454  23.238  0.00  0.00    +0.036 A 
ATOM     26  C   UNL     1       2.978  -1.448  23.754  0.00  0.00    +0.024 A 
ATOM     27  C   UNL     1       2.683   0.750  22.795  0.00  0.00    +0.024 A 
ATOM     28  C   UNL     1       4.354  -1.231  23.828  0.00  0.00    +0.013 A 
ATOM     29  C   UNL     1       4.059   0.967  22.869  0.00  0.00    +0.013 A 
ATOM     30  C   UNL     1       4.895  -0.024  23.385  0.00  0.00    +0.017 A 
BRANCH  30  31
ATOM      5  O   UNL     1       6.804   1.165  24.095  0.00  0.00    -0.292 OA
ATOM     31  C   UNL     1       6.329   0.202  23.461  0.00  0.00    +0.160 C 
ATOM     32  C   UNL     1       7.295  -0.744  22.755  0.00  0.00    +0.091 C 
ENDBRANCH  30  31
ENDBRANCH   9  25
ENDBRANCH   3  17
ENDBRANCH  13   3
TORSDOF 6
ENDMDL
MODEL 4
REMARK VINA RESULT:       5.8      3.649      5.923
REMARK  Name = 11913092
REMARK  10 active torsions:
REMARK  status: ('A' for Active; 'I' for Inactive)
REMARK    1  A    between atoms: O_3  and  C_13
REMARK    2  A    between atoms: O_3  and  C_17
REMARK    3  A    between atoms: N_6  and  C_12
REMARK    4  A    between atoms: N_9  and  C_25
REMARK    5  A    between atoms: C_18  and  C_19
REMARK    6  A    between atoms: C_18  and  C_22
REMARK    7  A    between atoms: C_18  and  C_23
REMARK    8  A    between atoms: C_18  and  C_24
REMARK    9  A    between atoms: C_30  and  C_31
REMARK   10  A    between atoms: C_31  and  C_32
REMARK                            x       y       z     vdW  Elec       q    Type
REMARK                         _______ _______ _______ _____ _____    ______ ____
ROOT
ATOM      1  O   UNL     1      -3.261   1.868  24.565  0.00  0.00    -0.368 OA
ATOM      2  O   UNL     1      -5.925   3.047  25.528  0.00  0.00    -0.368 OA
ATOM     10  C   UNL     1      -5.629   1.924  24.670  0.00  0.00    +0.173 C 
ATOM     11  C   UNL     1      -4.421   2.312  23.841  0.00  0.00    +0.192 C 
ATOM     12  C   UNL     1      -5.146   0.756  25.496  0.00  0.00    +0.130 C 
ATOM     13  C   UNL     1      -4.516   3.817  23.807  0.00  0.00    +0.235 C 
ATOM     14  C   UNL     1      -3.676   1.082  25.692  0.00  0.00    +0.185 C 
ATOM     15  C   UNL     1      -5.054   4.134  25.185  0.00  0.00    +0.207 C 
ENDROOT
BRANCH  12   6
ATOM      6  N   UNL     1      -5.292  -0.478  24.754  0.00  0.00    -0.306 N 
ATOM      7  N   UNL     1      -3.006  -0.980  24.925  0.00  0.00    -0.219 NA
ATOM      8  N   UNL     1      -4.515  -2.461  23.768  0.00  0.00    -0.223 NA
ATOM     16  C   UNL     1      -4.240  -1.332  24.474  0.00  0.00    +0.216 A 
ATOM     19  C   UNL     1      -2.004  -1.836  24.635  0.00  0.00    +0.052 A 
ATOM     20  C   UNL     1      -2.177  -3.007  23.925  0.00  0.00    +0.043 A 
ATOM     21  C   UNL     1      -3.467  -3.271  23.513  0.00  0.00    +0.116 A 
ATOM     33  H   UNL     1      -6.215  -0.776  24.458  0.00  0.00    +0.149 HD
BRANCH  19  18
ATOM     18  C   UNL     1      -0.643  -1.466  25.122  0.00  0.00    +0.005 C 
ATOM     22  C   UNL     1       0.299  -2.670  25.452  0.00  0.00    +0.017 C 
ATOM     23  C   UNL     1       0.125  -0.616  24.063  0.00  0.00    +0.017 C 
ATOM     24  C   UNL     1      -0.721  -0.626  26.434  0.00  0.00    +0.017 C 
ENDBRANCH  19  18
ENDBRANCH  12   6
BRANCH  13   3
ATOM      3  O   UNL     1      -3.284   4.454  23.559  0.00  0.00    -0.442 OA
BRANCH   3  17
ATOM      4  O   UNL     1      -2.342   5.690  25.237  0.00  0.00    -0.226 OA
ATOM      9  N   UNL     1      -1.773   3.445  24.895  0.00  0.00    -0.251 N 
ATOM     17  C   UNL     1      -2.441   4.626  24.637  0.00  0.00    +0.405 C 
ATOM     34  H   UNL     1      -1.990   2.664  24.281  0.00  0.00    +0.158 HD
BRANCH   9  25
ATOM     25  C   UNL     1      -0.821   3.187  25.907  0.00  0.00    +0.036 A 
ATOM     26  C   UNL     1       0.509   3.004  25.560  0.00  0.00    +0.024 A 
ATOM     27  C   UNL     1      -1.236   3.121  27.227  0.00  0.00    +0.024 A 
ATOM     28  C   UNL     1       1.447   2.749  26.560  0.00  0.00    +0.013 A 
ATOM     29  C   UNL     1      -0.298   2.865  28.227  0.00  0.00    +0.013 A 
ATOM     30  C   UNL     1       1.044   2.680  27.894  0.00  0.00    +0.017 A 
BRANCH  30  31
ATOM      5  O   UNL     1       3.246   2.511  28.722  0.00  0.00    -0.292 OA
ATOM     31  C   UNL     1       2.021   2.414  28.937  0.00  0.00    +0.160 C 
ATOM     32  C   UNL     1       1.564   2.006  30.333  0.00  0.00    +0.091 C 
ENDBRANCH  30  31
ENDBRANCH   9  25
ENDBRANCH   3  17
ENDBRANCH  13   3
TORSDOF 6
ENDMDL
MODEL 5
REMARK VINA RESULT:       6.1      2.467      5.135
REMARK  Name = 11913092
REMARK  10 active torsions:
REMARK  status: ('A' for Active; 'I' for Inactive)
REMARK    1  A    between atoms: O_3  and  C_13
REMARK    2  A    between atoms: O_3  and  C_17
REMARK    3  A    between atoms: N_6  and  C_12
REMARK    4  A    between atoms: N_9  and  C_25
REMARK    5  A    between atoms: C_18  and  C_19
REMARK    6  A    between atoms: C_18  and  C_22
REMARK    7  A    between atoms: C_18  and  C_23
REMARK    8  A    between atoms: C_18  and  C_24
REMARK    9  A    between atoms: C_30  and  C_31
REMARK   10  A    between atoms: C_31  and  C_32
REMARK                            x       y       z     vdW  Elec       q    Type
REMARK                         _______ _______ _______ _____ _____    ______ ____
ROOT
ATOM      1  O   UNL     1      -3.662   2.018  25.374  0.00  0.00    -0.368 OA
ATOM      2  O   UNL     1      -6.524   3.119  25.469  0.00  0.00    -0.368 OA
ATOM     10  C   UNL     1      -5.913   2.112  24.634  0.00  0.00    +0.173 C 
ATOM     11  C   UNL     1      -4.499   2.578  24.348  0.00  0.00    +0.192 C 
ATOM     12  C   UNL     1      -5.725   0.835  25.419  0.00  0.00    +0.130 C 
ATOM     13  C   UNL     1      -4.616   4.076  24.479  0.00  0.00    +0.235 C 
ATOM     14  C   UNL     1      -4.431   1.101  26.167  0.00  0.00    +0.185 C 
ATOM     15  C   UNL     1      -5.617   4.223  25.603  0.00  0.00    +0.207 C 
ENDROOT
BRANCH  12   6
ATOM      6  N   UNL     1      -5.565  -0.288  24.520  0.00  0.00    -0.306 N 
ATOM      7  N   UNL     1      -3.388  -0.726  25.279  0.00  0.00    -0.219 NA
ATOM      8  N   UNL     1      -4.397  -2.084  23.563  0.00  0.00    -0.223 NA
ATOM     16  C   UNL     1      -4.416  -1.056  24.452  0.00  0.00    +0.216 A 
ATOM     19  C   UNL     1      -2.284  -1.495  25.186  0.00  0.00    +0.052 A 
ATOM     20  C   UNL     1      -2.163  -2.562  24.318  0.00  0.00    +0.043 A 
ATOM     21  C   UNL     1      -3.262  -2.812  23.523  0.00  0.00    +0.116 A 
ATOM     33  H   UNL     1      -6.343  -0.575  23.937  0.00  0.00    +0.149 HD
BRANCH  19  18
ATOM     18  C   UNL     1      -1.145  -1.149  26.086  0.00  0.00    +0.005 C 
ATOM     22  C   UNL     1      -0.730   0.360  26.089  0.00  0.00    +0.017 C 
ATOM     23  C   UNL     1      -1.474  -1.491  27.572  0.00  0.00    +0.017 C 
ATOM     24  C   UNL     1       0.144  -1.935  25.695  0.00  0.00    +0.017 C 
ENDBRANCH  19  18
ENDBRANCH  12   6
BRANCH  13   3
ATOM      3  O   UNL     1      -3.393   4.714  24.771  0.00  0.00    -0.442 OA
BRANCH   3  17
ATOM      4  O   UNL     1      -1.882   3.681  26.142  0.00  0.00    -0.226 OA
ATOM      9  N   UNL     1      -1.821   3.407  23.818  0.00  0.00    -0.251 N 
ATOM     17  C   UNL     1      -2.307   3.899  25.014  0.00  0.00    +0.405 C 
ATOM     34  H   UNL     1      -2.311   3.705  22.978  0.00  0.00    +0.158 HD
BRANCH   9  25
ATOM     25  C   UNL     1      -0.724   2.540  23.616  0.00  0.00    +0.036 A 
ATOM     26  C   UNL     1       0.544   2.945  24.004  0.00  0.00    +0.024 A 
ATOM     27  C   UNL     1      -0.936   1.301  23.032  0.00  0.00    +0.024 A 
ATOM     28  C   UNL     1       1.627   2.089  23.803  0.00  0.00    +0.013 A 
ATOM     29  C   UNL     1       0.146   0.445  22.831  0.00  0.00    +0.013 A 
ATOM     30  C   UNL     1       1.428   0.838  23.217  0.00  0.00    +0.017 A 
BRANCH  30  31
ATOM      5  O   UNL     1       2.430  -1.293  23.090  0.00  0.00    -0.292 OA
ATOM     31  C   UNL     1       2.556  -0.055  23.009  0.00  0.00    +0.160 C 
ATOM     32  C   UNL     1       3.935   0.510  22.684  0.00  0.00    +0.091 C 
ENDBRANCH  30  31
ENDBRANCH   9  25
ENDBRANCH   3  17
ENDBRANCH  13   3
TORSDOF 6
ENDMDL
