MODEL 1
REMARK VINA RESULT:      -3.0      0.000      0.000
REMARK  Name = 75536902
REMARK  6 active torsions:
REMARK  status: ('A' for Active; 'I' for Inactive)
REMARK    1  A    between atoms: S_1  and  N_7
REMARK    2  A    between atoms: S_1  and  C_15
REMARK    3  A    between atoms: O_3  and  C_11
REMARK    4  A    between atoms: O_3  and  C_18
REMARK    5  A    between atoms: O_6  and  C_21
REMARK    6  A    between atoms: O_6  and  C_25
REMARK                            x       y       z     vdW  Elec       q    Type
REMARK                         _______ _______ _______ _____ _____    ______ ____
ROOT
ATOM      2  O   UNL     1      -4.616  -2.669  23.834  0.00  0.00    -0.375 OA
ATOM      7  N   UNL     1      -2.210  -1.520  25.051  0.00  0.00    -0.171 NA
ATOM     10  C   UNL     1      -3.379  -0.826  25.678  0.00  0.00    +0.156 C 
ATOM     11  C   UNL     1      -4.361  -0.349  24.610  0.00  0.00    +0.216 C 
ATOM     12  C   UNL     1      -2.438  -2.990  24.916  0.00  0.00    +0.137 C 
ATOM     13  C   UNL     1      -4.604  -1.301  23.442  0.00  0.00    +0.205 C 
ATOM     14  C   UNL     1      -3.333  -3.285  23.721  0.00  0.00    +0.177 C 
ENDROOT
BRANCH   7   1
ATOM      1  S   UNL     1      -0.668  -1.061  25.640  0.00  0.00    +0.061 S 
ATOM      4  O   UNL     1       0.348  -1.739  24.866  0.00  0.00    -0.153 OA
ATOM      5  O   UNL     1      -0.681  -1.131  27.083  0.00  0.00    -0.153 OA
BRANCH   1  15
ATOM     15  C   UNL     1      -0.660   0.641  25.176  0.00  0.00    +0.106 A 
ATOM     16  C   UNL     1      -0.693   0.995  23.827  0.00  0.00    +0.032 A 
ATOM     17  C   UNL     1      -0.617   1.632  26.156  0.00  0.00    +0.032 A 
ATOM     19  C   UNL     1      -0.683   2.341  23.459  0.00  0.00    +0.047 A 
ATOM     20  C   UNL     1      -0.608   2.978  25.788  0.00  0.00    +0.047 A 
ATOM     21  C   UNL     1      -0.641   3.332  24.440  0.00  0.00    +0.120 A 
BRANCH  21   6
ATOM      6  O   UNL     1      -0.632   4.645  24.081  0.00  0.00    -0.495 OA
ATOM     25  C   UNL     1      -1.257   5.566  24.973  0.00  0.00    +0.277 C 
ENDBRANCH  21   6
ENDBRANCH   1  15
ENDBRANCH   7   1
BRANCH  11   3
ATOM      3  O   UNL     1      -3.921   0.897  24.069  0.00  0.00    -0.468 OA
BRANCH   3  18
ATOM      8  N   UNL     1      -3.980   3.218  24.214  0.00  0.00    -0.219 NA
ATOM      9  N   UNL     1      -6.091   3.020  26.050  0.00  0.00    -0.256 NA
ATOM     18  C   UNL     1      -4.479   2.027  24.602  0.00  0.00    +0.234 A 
ATOM     22  C   UNL     1      -5.516   1.930  25.503  0.00  0.00    +0.177 A 
ATOM     23  C   UNL     1      -4.554   4.307  24.761  0.00  0.00    +0.134 A 
ATOM     24  C   UNL     1      -5.591   4.210  25.662  0.00  0.00    +0.130 A 
ENDBRANCH   3  18
ENDBRANCH  11   3
TORSDOF 5
ENDMDL
MODEL 2
REMARK VINA RESULT:      -2.9      2.052      5.083
REMARK  Name = 75536902
REMARK  6 active torsions:
REMARK  status: ('A' for Active; 'I' for Inactive)
REMARK    1  A    between atoms: S_1  and  N_7
REMARK    2  A    between atoms: S_1  and  C_15
REMARK    3  A    between atoms: O_3  and  C_11
REMARK    4  A    between atoms: O_3  and  C_18
REMARK    5  A    between atoms: O_6  and  C_21
REMARK    6  A    between atoms: O_6  and  C_25
REMARK                            x       y       z     vdW  Elec       q    Type
REMARK                         _______ _______ _______ _____ _____    ______ ____
ROOT
ATOM      2  O   UNL     1      -6.514   2.411  25.013  0.00  0.00    -0.375 OA
ATOM      7  N   UNL     1      -3.674   3.076  25.295  0.00  0.00    -0.171 NA
ATOM     10  C   UNL     1      -3.745   1.877  24.403  0.00  0.00    +0.156 C 
ATOM     11  C   UNL     1      -4.651   0.806  25.007  0.00  0.00    +0.216 C 
ATOM     12  C   UNL     1      -4.723   4.086  24.961  0.00  0.00    +0.137 C 
ATOM     13  C   UNL     1      -5.926   1.303  25.684  0.00  0.00    +0.205 C 
ATOM     14  C   UNL     1      -6.071   3.666  25.530  0.00  0.00    +0.177 C 
ENDROOT
BRANCH   7   1
ATOM      1  S   UNL     1      -2.105   3.705  25.575  0.00  0.00    +0.061 S 
ATOM      4  O   UNL     1      -1.781   3.543  26.975  0.00  0.00    -0.153 OA
ATOM      5  O   UNL     1      -1.995   4.989  24.923  0.00  0.00    -0.153 OA
BRANCH   1  15
ATOM     15  C   UNL     1      -1.144   2.542  24.658  0.00  0.00    +0.106 A 
ATOM     16  C   UNL     1       0.139   2.207  25.087  0.00  0.00    +0.032 A 
ATOM     17  C   UNL     1      -1.667   1.962  23.503  0.00  0.00    +0.032 A 
ATOM     19  C   UNL     1       0.900   1.290  24.361  0.00  0.00    +0.047 A 
ATOM     20  C   UNL     1      -0.906   1.045  22.777  0.00  0.00    +0.047 A 
ATOM     21  C   UNL     1       0.377   0.710  23.206  0.00  0.00    +0.120 A 
BRANCH  21   6
ATOM      6  O   UNL     1       1.119  -0.185  22.498  0.00  0.00    -0.495 OA
ATOM     25  C   UNL     1       2.526   0.048  22.431  0.00  0.00    +0.277 C 
ENDBRANCH  21   6
ENDBRANCH   1  15
ENDBRANCH   7   1
BRANCH  11   3
ATOM      3  O   UNL     1      -3.922   0.040  25.967  0.00  0.00    -0.468 OA
BRANCH   3  18
ATOM      8  N   UNL     1      -1.744  -0.769  25.875  0.00  0.00    -0.219 NA
ATOM      9  N   UNL     1      -2.589  -2.756  24.083  0.00  0.00    -0.256 NA
ATOM     18  C   UNL     1      -3.026  -0.868  25.472  0.00  0.00    +0.234 A 
ATOM     22  C   UNL     1      -3.441  -1.844  24.592  0.00  0.00    +0.177 A 
ATOM     23  C   UNL     1      -0.891  -1.680  25.365  0.00  0.00    +0.134 A 
ATOM     24  C   UNL     1      -1.306  -2.656  24.486  0.00  0.00    +0.130 A 
ENDBRANCH   3  18
ENDBRANCH  11   3
TORSDOF 5
ENDMDL
MODEL 3
REMARK VINA RESULT:      -2.6      2.320      5.096
REMARK  Name = 75536902
REMARK  6 active torsions:
REMARK  status: ('A' for Active; 'I' for Inactive)
REMARK    1  A    between atoms: S_1  and  N_7
REMARK    2  A    between atoms: S_1  and  C_15
REMARK    3  A    between atoms: O_3  and  C_11
REMARK    4  A    between atoms: O_3  and  C_18
REMARK    5  A    between atoms: O_6  and  C_21
REMARK    6  A    between atoms: O_6  and  C_25
REMARK                            x       y       z     vdW  Elec       q    Type
REMARK                         _______ _______ _______ _____ _____    ______ ____
ROOT
ATOM      2  O   UNL     1       0.960  -0.734  23.878  0.00  0.00    -0.375 OA
ATOM      7  N   UNL     1      -0.016   1.980  24.397  0.00  0.00    -0.171 NA
ATOM     10  C   UNL     1      -0.111   1.238  25.693  0.00  0.00    +0.156 C 
ATOM     11  C   UNL     1      -0.789  -0.116  25.492  0.00  0.00    +0.216 C 
ATOM     12  C   UNL     1       1.261   1.692  23.677  0.00  0.00    +0.137 C 
ATOM     13  C   UNL     1      -0.412  -0.880  24.226  0.00  0.00    +0.205 C 
ATOM     14  C   UNL     1       1.186   0.346  22.971  0.00  0.00    +0.177 C 
ENDROOT
BRANCH   7   1
ATOM      1  S   UNL     1      -0.481   3.629  24.447  0.00  0.00    +0.061 S 
ATOM      4  O   UNL     1      -0.341   4.194  23.124  0.00  0.00    -0.153 OA
ATOM      5  O   UNL     1       0.135   4.251  25.597  0.00  0.00    -0.153 OA
BRANCH   1  15
ATOM     15  C   UNL     1      -2.204   3.448  24.782  0.00  0.00    +0.106 A 
ATOM     16  C   UNL     1      -2.734   3.919  25.982  0.00  0.00    +0.032 A 
ATOM     17  C   UNL     1      -3.035   2.831  23.847  0.00  0.00    +0.032 A 
ATOM     19  C   UNL     1      -4.096   3.774  26.249  0.00  0.00    +0.047 A 
ATOM     20  C   UNL     1      -4.397   2.686  24.113  0.00  0.00    +0.047 A 
ATOM     21  C   UNL     1      -4.927   3.157  25.314  0.00  0.00    +0.120 A 
BRANCH  21   6
ATOM      6  O   UNL     1      -6.256   3.016  25.574  0.00  0.00    -0.495 OA
ATOM     25  C   UNL     1      -6.643   1.913  26.393  0.00  0.00    +0.277 C 
ENDBRANCH  21   6
ENDBRANCH   1  15
ENDBRANCH   7   1
BRANCH  11   3
ATOM      3  O   UNL     1      -2.208   0.049  25.492  0.00  0.00    -0.468 OA
BRANCH   3  18
ATOM      8  N   UNL     1      -2.631  -2.232  25.332  0.00  0.00    -0.219 NA
ATOM      9  N   UNL     1      -4.709  -1.690  23.527  0.00  0.00    -0.256 NA
ATOM     18  C   UNL     1      -2.943  -0.975  24.959  0.00  0.00    +0.234 A 
ATOM     22  C   UNL     1      -3.964  -0.709  24.073  0.00  0.00    +0.177 A 
ATOM     23  C   UNL     1      -3.375  -3.214  24.785  0.00  0.00    +0.134 A 
ATOM     24  C   UNL     1      -4.396  -2.948  23.900  0.00  0.00    +0.130 A 
ENDBRANCH   3  18
ENDBRANCH  11   3
TORSDOF 5
ENDMDL
MODEL 4
REMARK VINA RESULT:      -2.0      2.530      6.620
REMARK  Name = 75536902
REMARK  6 active torsions:
REMARK  status: ('A' for Active; 'I' for Inactive)
REMARK    1  A    between atoms: S_1  and  N_7
REMARK    2  A    between atoms: S_1  and  C_15
REMARK    3  A    between atoms: O_3  and  C_11
REMARK    4  A    between atoms: O_3  and  C_18
REMARK    5  A    between atoms: O_6  and  C_21
REMARK    6  A    between atoms: O_6  and  C_25
REMARK                            x       y       z     vdW  Elec       q    Type
REMARK                         _______ _______ _______ _____ _____    ______ ____
ROOT
ATOM      2  O   UNL     1      -0.423   4.747  25.286  0.00  0.00    -0.375 OA
ATOM      7  N   UNL     1      -2.928   3.228  25.192  0.00  0.00    -0.171 NA
ATOM     10  C   UNL     1      -1.914   2.340  25.842  0.00  0.00    +0.156 C 
ATOM     11  C   UNL     1      -0.621   2.310  25.029  0.00  0.00    +0.216 C 
ATOM     12  C   UNL     1      -2.840   4.635  25.688  0.00  0.00    +0.137 C 
ATOM     13  C   UNL     1      -0.167   3.639  24.432  0.00  0.00    +0.205 C 
ATOM     14  C   UNL     1      -1.683   5.366  25.023  0.00  0.00    +0.177 C 
ENDROOT
BRANCH   7   1
ATOM      1  S   UNL     1      -4.511   2.585  25.067  0.00  0.00    +0.061 S 
ATOM      4  O   UNL     1      -5.107   3.050  23.834  0.00  0.00    -0.153 OA
ATOM      5  O   UNL     1      -5.183   2.752  26.335  0.00  0.00    -0.153 OA
BRANCH   1  15
ATOM     15  C   UNL     1      -4.128   0.873  24.873  0.00  0.00    +0.106 A 
ATOM     16  C   UNL     1      -4.025   0.051  25.994  0.00  0.00    +0.032 A 
ATOM     17  C   UNL     1      -3.927   0.343  23.599  0.00  0.00    +0.032 A 
ATOM     19  C   UNL     1      -3.720  -1.302  25.842  0.00  0.00    +0.047 A 
ATOM     20  C   UNL     1      -3.622  -1.010  23.446  0.00  0.00    +0.047 A 
ATOM     21  C   UNL     1      -3.518  -1.832  24.568  0.00  0.00    +0.120 A 
BRANCH  21   6
ATOM      6  O   UNL     1      -3.221  -3.152  24.419  0.00  0.00    -0.495 OA
ATOM     25  C   UNL     1      -1.940  -3.471  23.876  0.00  0.00    +0.277 C 
ENDBRANCH  21   6
ENDBRANCH   1  15
ENDBRANCH   7   1
BRANCH  11   3
ATOM      3  O   UNL     1      -0.744   1.373  23.958  0.00  0.00    -0.468 OA
BRANCH   3  18
ATOM      8  N   UNL     1       1.574   1.492  23.807  0.00  0.00    -0.219 NA
ATOM      9  N   UNL     1       1.529  -0.591  21.928  0.00  0.00    -0.256 NA
ATOM     18  C   UNL     1       0.423   0.913  23.411  0.00  0.00    +0.234 A 
ATOM     22  C   UNL     1       0.401  -0.110  22.489  0.00  0.00    +0.177 A 
ATOM     23  C   UNL     1       2.702   1.012  23.246  0.00  0.00    +0.134 A 
ATOM     24  C   UNL     1       2.680  -0.011  22.324  0.00  0.00    +0.130 A 
ENDBRANCH   3  18
ENDBRANCH  11   3
TORSDOF 5
ENDMDL
MODEL 5
REMARK VINA RESULT:      -1.6      2.254      6.378
REMARK  Name = 75536902
REMARK  6 active torsions:
REMARK  status: ('A' for Active; 'I' for Inactive)
REMARK    1  A    between atoms: S_1  and  N_7
REMARK    2  A    between atoms: S_1  and  C_15
REMARK    3  A    between atoms: O_3  and  C_11
REMARK    4  A    between atoms: O_3  and  C_18
REMARK    5  A    between atoms: O_6  and  C_21
REMARK    6  A    between atoms: O_6  and  C_25
REMARK                            x       y       z     vdW  Elec       q    Type
REMARK                         _______ _______ _______ _____ _____    ______ ____
ROOT
ATOM      2  O   UNL     1      -0.222   5.297  24.976  0.00  0.00    -0.375 OA
ATOM      7  N   UNL     1      -2.815   3.962  25.272  0.00  0.00    -0.171 NA
ATOM     10  C   UNL     1      -1.803   3.082  25.937  0.00  0.00    +0.156 C 
ATOM     11  C   UNL     1      -0.594   2.866  25.029  0.00  0.00    +0.216 C 
ATOM     12  C   UNL     1      -2.595   5.406  25.587  0.00  0.00    +0.137 C 
ATOM     13  C   UNL     1      -0.114   4.083  24.242  0.00  0.00    +0.205 C 
ATOM     14  C   UNL     1      -1.460   5.971  24.746  0.00  0.00    +0.177 C 
ENDROOT
BRANCH   7   1
ATOM      1  S   UNL     1      -4.440   3.426  25.356  0.00  0.00    +0.061 S 
ATOM      4  O   UNL     1      -5.214   4.123  24.354  0.00  0.00    -0.153 OA
ATOM      5  O   UNL     1      -4.852   3.404  26.741  0.00  0.00    -0.153 OA
BRANCH   1  15
ATOM     15  C   UNL     1      -4.236   1.756  24.820  0.00  0.00    +0.106 A 
ATOM     16  C   UNL     1      -4.502   0.706  25.698  0.00  0.00    +0.032 A 
ATOM     17  C   UNL     1      -3.807   1.488  23.521  0.00  0.00    +0.032 A 
ATOM     19  C   UNL     1      -4.338  -0.614  25.276  0.00  0.00    +0.047 A 
ATOM     20  C   UNL     1      -3.643   0.169  23.099  0.00  0.00    +0.047 A 
ATOM     21  C   UNL     1      -3.909  -0.882  23.976  0.00  0.00    +0.120 A 
BRANCH  21   6
ATOM      6  O   UNL     1      -3.749  -2.170  23.565  0.00  0.00    -0.495 OA
ATOM     25  C   UNL     1      -3.532  -3.152  24.577  0.00  0.00    +0.277 C 
ENDBRANCH  21   6
ENDBRANCH   1  15
ENDBRANCH   7   1
BRANCH  11   3
ATOM      3  O   UNL     1      -0.872   1.826  24.091  0.00  0.00    -0.468 OA
BRANCH   3  18
ATOM      8  N   UNL     1      -0.131  -0.335  23.653  0.00  0.00    -0.219 NA
ATOM      9  N   UNL     1      -0.825  -1.073  26.269  0.00  0.00    -0.256 NA
ATOM     18  C   UNL     1      -0.669   0.543  24.523  0.00  0.00    +0.234 A 
ATOM     22  C   UNL     1      -1.009   0.181  25.808  0.00  0.00    +0.177 A 
ATOM     23  C   UNL     1       0.053  -1.588  24.113  0.00  0.00    +0.134 A 
ATOM     24  C   UNL     1      -0.287  -1.950  25.398  0.00  0.00    +0.130 A 
ENDBRANCH   3  18
ENDBRANCH  11   3
TORSDOF 5
ENDMDL
MODEL 6
REMARK VINA RESULT:      -1.5      1.993      4.888
REMARK  Name = 75536902
REMARK  6 active torsions:
REMARK  status: ('A' for Active; 'I' for Inactive)
REMARK    1  A    between atoms: S_1  and  N_7
REMARK    2  A    between atoms: S_1  and  C_15
REMARK    3  A    between atoms: O_3  and  C_11
REMARK    4  A    between atoms: O_3  and  C_18
REMARK    5  A    between atoms: O_6  and  C_21
REMARK    6  A    between atoms: O_6  and  C_25
REMARK                            x       y       z     vdW  Elec       q    Type
REMARK                         _______ _______ _______ _____ _____    ______ ____
ROOT
ATOM      2  O   UNL     1      -2.664   5.343  24.047  0.00  0.00    -0.375 OA
ATOM      7  N   UNL     1      -0.866   3.095  24.597  0.00  0.00    -0.171 NA
ATOM     10  C   UNL     1      -1.408   2.881  23.219  0.00  0.00    +0.156 C 
ATOM     11  C   UNL     1      -2.925   3.048  23.202  0.00  0.00    +0.216 C 
ATOM     12  C   UNL     1      -0.492   4.521  24.838  0.00  0.00    +0.137 C 
ATOM     13  C   UNL     1      -3.490   4.184  24.051  0.00  0.00    +0.205 C 
ATOM     14  C   UNL     1      -1.730   5.357  25.128  0.00  0.00    +0.177 C 
ENDROOT
BRANCH   7   1
ATOM      1  S   UNL     1       0.268   1.931  25.142  0.00  0.00    +0.061 S 
ATOM      4  O   UNL     1       0.560   2.181  26.536  0.00  0.00    -0.153 OA
ATOM      5  O   UNL     1       1.324   1.818  24.163  0.00  0.00    -0.153 OA
BRANCH   1  15
ATOM     15  C   UNL     1      -0.723   0.474  25.047  0.00  0.00    +0.106 A 
ATOM     16  C   UNL     1      -0.408  -0.524  24.127  0.00  0.00    +0.032 A 
ATOM     17  C   UNL     1      -1.823   0.323  25.891  0.00  0.00    +0.032 A 
ATOM     19  C   UNL     1      -1.193  -1.675  24.049  0.00  0.00    +0.047 A 
ATOM     20  C   UNL     1      -2.608  -0.828  25.814  0.00  0.00    +0.047 A 
ATOM     21  C   UNL     1      -2.293  -1.827  24.893  0.00  0.00    +0.120 A 
BRANCH  21   6
ATOM      6  O   UNL     1      -3.059  -2.949  24.818  0.00  0.00    -0.495 OA
ATOM     25  C   UNL     1      -4.212  -2.893  23.979  0.00  0.00    +0.277 C 
ENDBRANCH  21   6
ENDBRANCH   1  15
ENDBRANCH   7   1
BRANCH  11   3
ATOM      3  O   UNL     1      -3.551   1.837  23.627  0.00  0.00    -0.468 OA
BRANCH   3  18
ATOM      8  N   UNL     1      -5.595   1.129  24.482  0.00  0.00    -0.219 NA
ATOM      9  N   UNL     1      -5.370   3.040  26.523  0.00  0.00    -0.256 NA
ATOM     18  C   UNL     1      -4.534   1.955  24.572  0.00  0.00    +0.234 A 
ATOM     22  C   UNL     1      -4.423   2.893  25.575  0.00  0.00    +0.177 A 
ATOM     23  C   UNL     1      -6.542   1.276  25.429  0.00  0.00    +0.134 A 
ATOM     24  C   UNL     1      -6.432   2.213  26.432  0.00  0.00    +0.130 A 
ENDBRANCH   3  18
ENDBRANCH  11   3
TORSDOF 5
ENDMDL
MODEL 7
REMARK VINA RESULT:      -1.1      2.168      4.488
REMARK  Name = 75536902
REMARK  6 active torsions:
REMARK  status: ('A' for Active; 'I' for Inactive)
REMARK    1  A    between atoms: S_1  and  N_7
REMARK    2  A    between atoms: S_1  and  C_15
REMARK    3  A    between atoms: O_3  and  C_11
REMARK    4  A    between atoms: O_3  and  C_18
REMARK    5  A    between atoms: O_6  and  C_21
REMARK    6  A    between atoms: O_6  and  C_25
REMARK                            x       y       z     vdW  Elec       q    Type
REMARK                         _______ _______ _______ _____ _____    ______ ____
ROOT
ATOM      2  O   UNL     1       2.367   0.781  22.532  0.00  0.00    -0.375 OA
ATOM      7  N   UNL     1       0.084  -0.470  23.877  0.00  0.00    -0.171 NA
ATOM     10  C   UNL     1      -0.372   0.884  23.432  0.00  0.00    +0.156 C 
ATOM     11  C   UNL     1       0.641   1.954  23.832  0.00  0.00    +0.216 C 
ATOM     12  C   UNL     1       0.897  -1.159  22.830  0.00  0.00    +0.137 C 
ATOM     13  C   UNL     1       2.113   1.582  23.680  0.00  0.00    +0.205 C 
ATOM     14  C   UNL     1       2.319  -0.618  22.814  0.00  0.00    +0.177 C 
ENDROOT
BRANCH   7   1
ATOM      1  S   UNL     1      -1.099  -1.438  24.651  0.00  0.00    +0.061 S 
ATOM      4  O   UNL     1      -0.718  -1.625  26.033  0.00  0.00    -0.153 OA
ATOM      5  O   UNL     1      -1.409  -2.564  23.800  0.00  0.00    -0.153 OA
BRANCH   1  15
ATOM     15  C   UNL     1      -2.472  -0.330  24.612  0.00  0.00    +0.106 A 
ATOM     16  C   UNL     1      -2.564   0.630  23.604  0.00  0.00    +0.032 A 
ATOM     17  C   UNL     1      -3.463  -0.411  25.590  0.00  0.00    +0.032 A 
ATOM     19  C   UNL     1      -3.647   1.508  23.574  0.00  0.00    +0.047 A 
ATOM     20  C   UNL     1      -4.546   0.468  25.560  0.00  0.00    +0.047 A 
ATOM     21  C   UNL     1      -4.638   1.427  24.552  0.00  0.00    +0.120 A 
BRANCH  21   6
ATOM      6  O   UNL     1      -5.695   2.284  24.522  0.00  0.00    -0.495 OA
ATOM     25  C   UNL     1      -5.912   3.086  25.682  0.00  0.00    +0.277 C 
ENDBRANCH  21   6
ENDBRANCH   1  15
ENDBRANCH   7   1
BRANCH  11   3
ATOM      3  O   UNL     1       0.429   2.338  25.192  0.00  0.00    -0.468 OA
BRANCH   3  18
ATOM      8  N   UNL     1      -1.595   2.818  26.231  0.00  0.00    -0.219 NA
ATOM      9  N   UNL     1      -1.557   5.367  25.062  0.00  0.00    -0.256 NA
ATOM     18  C   UNL     1      -0.590   3.220  25.427  0.00  0.00    +0.234 A 
ATOM     22  C   UNL     1      -0.572   4.472  24.854  0.00  0.00    +0.177 A 
ATOM     23  C   UNL     1      -2.581   3.713  26.439  0.00  0.00    +0.134 A 
ATOM     24  C   UNL     1      -2.562   4.965  25.865  0.00  0.00    +0.130 A 
ENDBRANCH   3  18
ENDBRANCH  11   3
TORSDOF 5
ENDMDL
MODEL 8
REMARK VINA RESULT:      -1.0      2.294      6.112
REMARK  Name = 75536902
REMARK  6 active torsions:
REMARK  status: ('A' for Active; 'I' for Inactive)
REMARK    1  A    between atoms: S_1  and  N_7
REMARK    2  A    between atoms: S_1  and  C_15
REMARK    3  A    between atoms: O_3  and  C_11
REMARK    4  A    between atoms: O_3  and  C_18
REMARK    5  A    between atoms: O_6  and  C_21
REMARK    6  A    between atoms: O_6  and  C_25
REMARK                            x       y       z     vdW  Elec       q    Type
REMARK                         _______ _______ _______ _____ _____    ______ ____
ROOT
ATOM      2  O   UNL     1      -2.389   5.040  24.226  0.00  0.00    -0.375 OA
ATOM      7  N   UNL     1      -4.326   3.073  25.211  0.00  0.00    -0.171 NA
ATOM     10  C   UNL     1      -3.493   3.477  26.386  0.00  0.00    +0.156 C 
ATOM     11  C   UNL     1      -2.006   3.424  26.039  0.00  0.00    +0.216 C 
ATOM     12  C   UNL     1      -4.705   4.244  24.363  0.00  0.00    +0.137 C 
ATOM     13  C   UNL     1      -1.618   3.922  24.650  0.00  0.00    +0.205 C 
ATOM     14  C   UNL     1      -3.543   4.660  23.474  0.00  0.00    +0.177 C 
ENDROOT
BRANCH   7   1
ATOM      1  S   UNL     1      -5.585   1.957  25.538  0.00  0.00    +0.061 S 
ATOM      4  O   UNL     1      -6.613   2.105  24.531  0.00  0.00    -0.153 OA
ATOM      5  O   UNL     1      -5.902   2.013  26.946  0.00  0.00    -0.153 OA
BRANCH   1  15
ATOM     15  C   UNL     1      -4.736   0.442  25.228  0.00  0.00    +0.106 A 
ATOM     16  C   UNL     1      -4.770  -0.129  23.956  0.00  0.00    +0.032 A 
ATOM     17  C   UNL     1      -4.032  -0.186  26.255  0.00  0.00    +0.032 A 
ATOM     19  C   UNL     1      -4.101  -1.328  23.711  0.00  0.00    +0.047 A 
ATOM     20  C   UNL     1      -3.364  -1.386  26.011  0.00  0.00    +0.047 A 
ATOM     21  C   UNL     1      -3.398  -1.956  24.739  0.00  0.00    +0.120 A 
BRANCH  21   6
ATOM      6  O   UNL     1      -2.745  -3.127  24.500  0.00  0.00    -0.495 OA
ATOM     25  C   UNL     1      -1.320  -3.077  24.448  0.00  0.00    +0.277 C 
ENDBRANCH  21   6
ENDBRANCH   1  15
ENDBRANCH   7   1
BRANCH  11   3
ATOM      3  O   UNL     1      -1.526   2.085  26.169  0.00  0.00    -0.468 OA
BRANCH   3  18
ATOM      8  N   UNL     1      -1.255   0.683  24.332  0.00  0.00    -0.219 NA
ATOM      9  N   UNL     1       1.353   1.663  24.007  0.00  0.00    -0.256 NA
ATOM     18  C   UNL     1      -0.736   1.617  25.154  0.00  0.00    +0.234 A 
ATOM     22  C   UNL     1       0.545   2.099  24.994  0.00  0.00    +0.177 A 
ATOM     23  C   UNL     1      -0.447   0.247  23.346  0.00  0.00    +0.134 A 
ATOM     24  C   UNL     1       0.834   0.728  23.186  0.00  0.00    +0.130 A 
ENDBRANCH   3  18
ENDBRANCH  11   3
TORSDOF 5
ENDMDL
