MODEL 1
REMARK VINA RESULT:      -6.6      0.000      0.000
REMARK  Name = 51137914
REMARK  5 active torsions:
REMARK  status: ('A' for Active; 'I' for Inactive)
REMARK    1  A    between atoms: S_1  and  N_4
REMARK    2  A    between atoms: S_1  and  C_12
REMARK    3  A    between atoms: N_5  and  C_15
REMARK    4  A    between atoms: C_7  and  C_11
REMARK    5  A    between atoms: C_12  and  C_16
REMARK                            x       y       z     vdW  Elec       q    Type
REMARK                         _______ _______ _______ _____ _____    ______ ____
ROOT
ATOM      4  N   UNL     1      -0.687   3.886  25.118  0.00  0.00    -0.180 NA
ATOM      7  C   UNL     1       0.310   1.696  25.352  0.00  0.00    +0.072 C 
ATOM      8  C   UNL     1      -0.215   2.908  26.140  0.00  0.00    +0.120 C 
ATOM      9  C   UNL     1       0.641   2.294  23.983  0.00  0.00    +0.029 C 
ATOM     10  C   UNL     1      -0.456   3.327  23.764  0.00  0.00    +0.110 C 
ENDROOT
BRANCH   7  11
ATOM      5  N   UNL     1      -0.411  -0.496  24.321  0.00  0.00    -0.330 N 
ATOM      6  N   UNL     1      -1.691   0.282  25.963  0.00  0.00    -0.232 NA
ATOM     11  C   UNL     1      -0.619   0.499  25.234  0.00  0.00    +0.115 A 
ATOM     13  C   UNL     1      -1.415  -1.417  24.469  0.00  0.00    +0.069 A 
ATOM     14  C   UNL     1      -2.201  -0.909  25.500  0.00  0.00    +0.089 A 
ATOM     15  C   UNL     1       0.673  -0.569  23.366  0.00  0.00    +0.150 C 
ATOM     17  C   UNL     1      -1.695  -2.615  23.811  0.00  0.00    +0.028 A 
ATOM     18  C   UNL     1      -3.338  -1.625  25.912  0.00  0.00    +0.030 A 
ATOM     21  C   UNL     1      -2.831  -3.315  24.234  0.00  0.00    +0.002 A 
ATOM     22  C   UNL     1      -3.639  -2.830  25.265  0.00  0.00    +0.002 A 
ENDBRANCH   7  11
BRANCH   4   1
ATOM      1  S   UNL     1      -2.119   4.746  25.404  0.00  0.00    +0.036 S 
ATOM      2  O   UNL     1      -1.869   6.165  25.230  0.00  0.00    -0.158 OA
ATOM      3  O   UNL     1      -2.750   4.238  26.608  0.00  0.00    -0.158 OA
BRANCH   1  12
ATOM     12  C   UNL     1      -3.081   4.193  24.017  0.00  0.00    +0.220 C 
BRANCH  12  16
ATOM     16  C   UNL     1      -4.113   3.237  24.528  0.00  0.00    -0.025 A 
ATOM     19  C   UNL     1      -4.061   1.892  24.162  0.00  0.00    +0.005 A 
ATOM     20  C   UNL     1      -5.127   3.692  25.371  0.00  0.00    +0.005 A 
ATOM     23  C   UNL     1      -5.023   1.002  24.638  0.00  0.00    +0.000 A 
ATOM     24  C   UNL     1      -6.090   2.801  25.849  0.00  0.00    +0.000 A 
ATOM     25  C   UNL     1      -6.038   1.456  25.481  0.00  0.00    +0.000 A 
ENDBRANCH  12  16
ENDBRANCH   1  12
ENDBRANCH   4   1
TORSDOF 4
ENDMDL
MODEL 2
REMARK VINA RESULT:      -4.4      2.572      4.896
REMARK  Name = 51137914
REMARK  5 active torsions:
REMARK  status: ('A' for Active; 'I' for Inactive)
REMARK    1  A    between atoms: S_1  and  N_4
REMARK    2  A    between atoms: S_1  and  C_12
REMARK    3  A    between atoms: N_5  and  C_15
REMARK    4  A    between atoms: C_7  and  C_11
REMARK    5  A    between atoms: C_12  and  C_16
REMARK                            x       y       z     vdW  Elec       q    Type
REMARK                         _______ _______ _______ _____ _____    ______ ____
ROOT
ATOM      4  N   UNL     1       0.507   1.715  24.138  0.00  0.00    -0.180 NA
ATOM      7  C   UNL     1      -1.001   3.553  24.579  0.00  0.00    +0.072 C 
ATOM      8  C   UNL     1      -0.305   2.765  23.456  0.00  0.00    +0.120 C 
ATOM      9  C   UNL     1      -0.102   3.293  25.789  0.00  0.00    +0.029 C 
ATOM     10  C   UNL     1       0.344   1.849  25.605  0.00  0.00    +0.110 C 
ENDROOT
BRANCH   7  11
ATOM      5  N   UNL     1      -3.219   2.499  23.984  0.00  0.00    -0.330 N 
ATOM      6  N   UNL     1      -3.116   3.516  25.958  0.00  0.00    -0.232 NA
ATOM     11  C   UNL     1      -2.450   3.202  24.869  0.00  0.00    +0.115 A 
ATOM     13  C   UNL     1      -4.464   2.350  24.538  0.00  0.00    +0.069 A 
ATOM     14  C   UNL     1      -4.374   2.992  25.770  0.00  0.00    +0.089 A 
ATOM     15  C   UNL     1      -2.800   2.001  22.693  0.00  0.00    +0.150 C 
ATOM     17  C   UNL     1      -5.626   1.726  24.082  0.00  0.00    +0.028 A 
ATOM     18  C   UNL     1      -5.500   3.025  26.610  0.00  0.00    +0.030 A 
ATOM     21  C   UNL     1      -6.738   1.768  24.932  0.00  0.00    +0.002 A 
ATOM     22  C   UNL     1      -6.677   2.406  26.173  0.00  0.00    +0.002 A 
ENDBRANCH   7  11
BRANCH   4   1
ATOM      1  S   UNL     1       0.566   0.160  23.468  0.00  0.00    +0.036 S 
ATOM      2  O   UNL     1       1.922  -0.126  23.038  0.00  0.00    -0.158 OA
ATOM      3  O   UNL     1      -0.558  -0.017  22.568  0.00  0.00    -0.158 OA
BRANCH   1  12
ATOM     12  C   UNL     1       0.247  -0.805  24.926  0.00  0.00    +0.220 C 
BRANCH  12  16
ATOM     16  C   UNL     1      -1.190  -1.223  24.891  0.00  0.00    -0.025 A 
ATOM     19  C   UNL     1      -2.158  -0.448  25.530  0.00  0.00    +0.005 A 
ATOM     20  C   UNL     1      -1.560  -2.388  24.221  0.00  0.00    +0.005 A 
ATOM     23  C   UNL     1      -3.497  -0.839  25.498  0.00  0.00    +0.000 A 
ATOM     24  C   UNL     1      -2.900  -2.780  24.188  0.00  0.00    +0.000 A 
ATOM     25  C   UNL     1      -3.868  -2.004  24.827  0.00  0.00    +0.000 A 
ENDBRANCH  12  16
ENDBRANCH   1  12
ENDBRANCH   4   1
TORSDOF 4
ENDMDL
MODEL 3
REMARK VINA RESULT:      -3.2      2.877      5.221
REMARK  Name = 51137914
REMARK  5 active torsions:
REMARK  status: ('A' for Active; 'I' for Inactive)
REMARK    1  A    between atoms: S_1  and  N_4
REMARK    2  A    between atoms: S_1  and  C_12
REMARK    3  A    between atoms: N_5  and  C_15
REMARK    4  A    between atoms: C_7  and  C_11
REMARK    5  A    between atoms: C_12  and  C_16
REMARK                            x       y       z     vdW  Elec       q    Type
REMARK                         _______ _______ _______ _____ _____    ______ ____
ROOT
ATOM      4  N   UNL     1      -2.387  -1.809  24.894  0.00  0.00    -0.180 NA
ATOM      7  C   UNL     1      -0.451  -0.414  25.286  0.00  0.00    +0.072 C 
ATOM      8  C   UNL     1      -1.170  -1.265  24.225  0.00  0.00    +0.120 C 
ATOM      9  C   UNL     1      -0.967  -0.999  26.601  0.00  0.00    +0.029 C 
ATOM     10  C   UNL     1      -2.419  -1.342  26.301  0.00  0.00    +0.110 C 
ENDROOT
BRANCH   7  11
ATOM      5  N   UNL     1       0.076   1.889  24.388  0.00  0.00    -0.330 N 
ATOM      6  N   UNL     1      -1.534   1.777  25.917  0.00  0.00    -0.232 NA
ATOM     11  C   UNL     1      -0.659   1.089  25.218  0.00  0.00    +0.115 A 
ATOM     13  C   UNL     1      -0.352   3.180  24.564  0.00  0.00    +0.069 A 
ATOM     14  C   UNL     1      -1.357   3.083  25.523  0.00  0.00    +0.089 A 
ATOM     15  C   UNL     1       1.119   1.456  23.486  0.00  0.00    +0.150 C 
ATOM     17  C   UNL     1       0.041   4.386  23.984  0.00  0.00    +0.028 A 
ATOM     18  C   UNL     1      -2.020   4.250  25.940  0.00  0.00    +0.030 A 
ATOM     21  C   UNL     1      -0.630   5.538  24.411  0.00  0.00    +0.002 A 
ATOM     22  C   UNL     1      -1.642   5.472  25.372  0.00  0.00    +0.002 A 
ENDBRANCH   7  11
BRANCH   4   1
ATOM      1  S   UNL     1      -3.842  -1.872  24.028  0.00  0.00    +0.036 S 
ATOM      2  O   UNL     1      -4.400  -3.208  24.127  0.00  0.00    -0.158 OA
ATOM      3  O   UNL     1      -3.661  -1.229  22.741  0.00  0.00    -0.158 OA
BRANCH   1  12
ATOM     12  C   UNL     1      -4.834  -0.796  25.035  0.00  0.00    +0.220 C 
BRANCH  12  16
ATOM     16  C   UNL     1      -4.608   0.607  24.564  0.00  0.00    -0.025 A 
ATOM     19  C   UNL     1      -5.257   1.668  25.195  0.00  0.00    +0.005 A 
ATOM     20  C   UNL     1      -3.748   0.852  23.494  0.00  0.00    +0.005 A 
ATOM     23  C   UNL     1      -5.046   2.975  24.755  0.00  0.00    +0.000 A 
ATOM     24  C   UNL     1      -3.536   2.159  23.054  0.00  0.00    +0.000 A 
ATOM     25  C   UNL     1      -4.186   3.221  23.685  0.00  0.00    +0.000 A 
ENDBRANCH  12  16
ENDBRANCH   1  12
ENDBRANCH   4   1
TORSDOF 4
ENDMDL
MODEL 4
REMARK VINA RESULT:      -3.0      1.564      3.847
REMARK  Name = 51137914
REMARK  5 active torsions:
REMARK  status: ('A' for Active; 'I' for Inactive)
REMARK    1  A    between atoms: S_1  and  N_4
REMARK    2  A    between atoms: S_1  and  C_12
REMARK    3  A    between atoms: N_5  and  C_15
REMARK    4  A    between atoms: C_7  and  C_11
REMARK    5  A    between atoms: C_12  and  C_16
REMARK                            x       y       z     vdW  Elec       q    Type
REMARK                         _______ _______ _______ _____ _____    ______ ____
ROOT
ATOM      4  N   UNL     1      -2.618   4.421  24.926  0.00  0.00    -0.180 NA
ATOM      7  C   UNL     1      -4.470   2.897  24.615  0.00  0.00    +0.072 C 
ATOM      8  C   UNL     1      -3.454   3.781  23.870  0.00  0.00    +0.120 C 
ATOM      9  C   UNL     1      -4.527   3.537  26.003  0.00  0.00    +0.029 C 
ATOM     10  C   UNL     1      -3.093   3.978  26.259  0.00  0.00    +0.110 C 
ENDROOT
BRANCH   7  11
ATOM      5  N   UNL     1      -3.559   0.739  23.665  0.00  0.00    -0.330 N 
ATOM      6  N   UNL     1      -4.421   0.623  25.711  0.00  0.00    -0.232 NA
ATOM     11  C   UNL     1      -4.160   1.412  24.692  0.00  0.00    +0.115 A 
ATOM     13  C   UNL     1      -3.423  -0.571  24.046  0.00  0.00    +0.069 A 
ATOM     14  C   UNL     1      -3.967  -0.617  25.327  0.00  0.00    +0.089 A 
ATOM     15  C   UNL     1      -3.142   1.303  22.402  0.00  0.00    +0.150 C 
ATOM     17  C   UNL     1      -2.886  -1.685  23.401  0.00  0.00    +0.028 A 
ATOM     18  C   UNL     1      -3.986  -1.840  26.019  0.00  0.00    +0.030 A 
ATOM     21  C   UNL     1      -2.912  -2.894  24.105  0.00  0.00    +0.002 A 
ATOM     22  C   UNL     1      -3.452  -2.972  25.391  0.00  0.00    +0.002 A 
ENDBRANCH   7  11
BRANCH   4   1
ATOM      1  S   UNL     1      -0.950   4.575  24.671  0.00  0.00    +0.036 S 
ATOM      2  O   UNL     1      -0.531   5.915  25.035  0.00  0.00    -0.158 OA
ATOM      3  O   UNL     1      -0.608   4.008  23.380  0.00  0.00    -0.158 OA
BRANCH   1  12
ATOM     12  C   UNL     1      -0.354   3.464  25.923  0.00  0.00    +0.220 C 
BRANCH  12  16
ATOM     16  C   UNL     1      -0.166   2.120  25.289  0.00  0.00    -0.025 A 
ATOM     19  C   UNL     1       0.553   2.005  24.099  0.00  0.00    +0.005 A 
ATOM     20  C   UNL     1      -0.712   0.986  25.887  0.00  0.00    +0.005 A 
ATOM     23  C   UNL     1       0.727   0.753  23.509  0.00  0.00    +0.000 A 
ATOM     24  C   UNL     1      -0.538  -0.267  25.297  0.00  0.00    +0.000 A 
ATOM     25  C   UNL     1       0.181  -0.383  24.107  0.00  0.00    +0.000 A 
ENDBRANCH  12  16
ENDBRANCH   1  12
ENDBRANCH   4   1
TORSDOF 4
ENDMDL
MODEL 5
REMARK VINA RESULT:      -2.6      2.302      4.446
REMARK  Name = 51137914
REMARK  5 active torsions:
REMARK  status: ('A' for Active; 'I' for Inactive)
REMARK    1  A    between atoms: S_1  and  N_4
REMARK    2  A    between atoms: S_1  and  C_12
REMARK    3  A    between atoms: N_5  and  C_15
REMARK    4  A    between atoms: C_7  and  C_11
REMARK    5  A    between atoms: C_12  and  C_16
REMARK                            x       y       z     vdW  Elec       q    Type
REMARK                         _______ _______ _______ _____ _____    ______ ____
ROOT
ATOM      4  N   UNL     1      -4.752   2.988  25.231  0.00  0.00    -0.180 NA
ATOM      7  C   UNL     1      -2.417   3.564  25.484  0.00  0.00    +0.072 C 
ATOM      8  C   UNL     1      -3.628   2.953  26.210  0.00  0.00    +0.120 C 
ATOM      9  C   UNL     1      -3.068   4.420  24.395  0.00  0.00    +0.029 C 
ATOM     10  C   UNL     1      -4.280   3.604  23.968  0.00  0.00    +0.110 C 
ENDROOT
BRANCH   7  11
ATOM      5  N   UNL     1      -0.220   3.014  24.363  0.00  0.00    -0.330 N 
ATOM      6  N   UNL     1      -1.528   1.286  24.856  0.00  0.00    -0.232 NA
ATOM     11  C   UNL     1      -1.402   2.593  24.905  0.00  0.00    +0.115 A 
ATOM     13  C   UNL     1       0.462   1.905  23.934  0.00  0.00    +0.069 A 
ATOM     14  C   UNL     1      -0.374   0.840  24.254  0.00  0.00    +0.089 A 
ATOM     15  C   UNL     1       0.233   4.383  24.256  0.00  0.00    +0.150 C 
ATOM     17  C   UNL     1       1.702   1.747  23.314  0.00  0.00    +0.028 A 
ATOM     18  C   UNL     1       0.034  -0.469  23.943  0.00  0.00    +0.030 A 
ATOM     21  C   UNL     1       2.093   0.438  23.012  0.00  0.00    +0.002 A 
ATOM     22  C   UNL     1       1.275  -0.651  23.321  0.00  0.00    +0.002 A 
ENDBRANCH   7  11
BRANCH   4   1
ATOM      1  S   UNL     1      -5.806   1.664  25.143  0.00  0.00    +0.036 S 
ATOM      2  O   UNL     1      -7.096   2.110  24.652  0.00  0.00    -0.158 OA
ATOM      3  O   UNL     1      -5.696   0.882  26.360  0.00  0.00    -0.158 OA
BRANCH   1  12
ATOM     12  C   UNL     1      -5.021   0.746  23.840  0.00  0.00    +0.220 C 
BRANCH  12  16
ATOM     16  C   UNL     1      -4.383  -0.462  24.452  0.00  0.00    -0.025 A 
ATOM     19  C   UNL     1      -3.811  -0.381  25.722  0.00  0.00    +0.005 A 
ATOM     20  C   UNL     1      -4.361  -1.668  23.753  0.00  0.00    +0.005 A 
ATOM     23  C   UNL     1      -3.216  -1.507  26.291  0.00  0.00    +0.000 A 
ATOM     24  C   UNL     1      -3.767  -2.795  24.322  0.00  0.00    +0.000 A 
ATOM     25  C   UNL     1      -3.194  -2.714  25.592  0.00  0.00    +0.000 A 
ENDBRANCH  12  16
ENDBRANCH   1  12
ENDBRANCH   4   1
TORSDOF 4
ENDMDL
