MODEL 1
REMARK VINA RESULT:      -0.4      0.000      0.000
REMARK  Name = 9421697
REMARK  4 active torsions:
REMARK  status: ('A' for Active; 'I' for Inactive)
REMARK    1  A    between atoms: O_3  and  C_29
REMARK    2  A    between atoms: O_3  and  C_30
REMARK    3  A    between atoms: C_13  and  C_14
REMARK    4  A    between atoms: C_23  and  C_24
REMARK                            x       y       z     vdW  Elec       q    Type
REMARK                         _______ _______ _______ _____ _____    ______ ____
ROOT
ATOM      1  O   UNL     1      12.106  -4.415  31.579  0.00  0.00    -0.267 OA
ATOM      2  O   UNL     1      15.809  -4.322  27.977  0.00  0.00    -0.270 OA
ATOM      4  N   UNL     1      14.326  -5.020  31.971  0.00  0.00    -0.312 N 
ATOM      5  N   UNL     1      16.819  -4.860  30.018  0.00  0.00    -0.297 N 
ATOM      6  C   UNL     1      16.251  -3.332  31.899  0.00  0.00    +0.027 C 
ATOM      7  C   UNL     1      16.720  -5.707  32.351  0.00  0.00    +0.054 C 
ATOM      8  C   UNL     1      16.937  -4.287  32.871  0.00  0.00    +0.018 C 
ATOM      9  C   UNL     1      14.744  -3.613  31.912  0.00  0.00    +0.130 C 
ATOM     10  C   UNL     1      16.856  -3.476  30.490  0.00  0.00    +0.113 C 
ATOM     11  C   UNL     1      17.366  -5.851  30.959  0.00  0.00    +0.117 C 
ATOM     12  C   UNL     1      15.241  -6.035  32.262  0.00  0.00    +0.027 A 
ATOM     14  C   UNL     1      12.512  -6.708  31.978  0.00  0.00    +0.020 A 
ATOM     15  C   UNL     1      12.949  -5.280  31.820  0.00  0.00    +0.255 A 
ATOM     16  C   UNL     1      14.817  -7.299  32.425  0.00  0.00    +0.022 A 
ATOM     19  C   UNL     1      13.431  -7.635  32.278  0.00  0.00    +0.011 A 
ATOM     23  C   UNL     1      16.269  -5.146  28.767  0.00  0.00    +0.247 C 
ENDROOT
BRANCH  14  13
ATOM     13  C   UNL     1      11.056  -7.018  31.801  0.00  0.00    +0.024 C 
ATOM     17  C   UNL     1      10.213  -6.311  32.872  0.00  0.00    +0.008 C 
ATOM     18  C   UNL     1      10.813  -8.533  31.830  0.00  0.00    +0.008 C 
ATOM     20  C   UNL     1       8.730  -6.652  32.739  0.00  0.00    +0.001 C 
ATOM     21  C   UNL     1       9.329  -8.870  31.702  0.00  0.00    +0.001 C 
ATOM     22  C   UNL     1       8.495  -8.158  32.762  0.00  0.00    +0.000 C 
ENDBRANCH  14  13
BRANCH  23  24
ATOM     24  C   UNL     1      16.206  -6.550  28.348  0.00  0.00    +0.037 A 
ATOM     25  C   UNL     1      17.064  -7.015  27.354  0.00  0.00    +0.016 A 
ATOM     26  C   UNL     1      15.290  -7.412  28.946  0.00  0.00    +0.016 A 
ATOM     27  C   UNL     1      17.004  -8.351  26.955  0.00  0.00    +0.046 A 
ATOM     28  C   UNL     1      15.231  -8.747  28.548  0.00  0.00    +0.046 A 
ATOM     29  C   UNL     1      16.088  -9.216  27.552  0.00  0.00    +0.120 A 
BRANCH  29   3
ATOM      3  O   UNL     1      16.031 -10.520  27.165  0.00  0.00    -0.495 OA
ATOM     30  C   UNL     1      16.009 -10.780  25.762  0.00  0.00    +0.277 C 
ENDBRANCH  29   3
ENDBRANCH  23  24
TORSDOF 3
ENDMDL
