MODEL 1
REMARK VINA RESULT:      -4.9      0.000      0.000
REMARK  Name = 51137752
REMARK  6 active torsions:
REMARK  status: ('A' for Active; 'I' for Inactive)
REMARK    1  A    between atoms: C_6  and  C_10
REMARK    2  A    between atoms: C_9  and  C_14
REMARK    3  A    between atoms: C_15  and  C_16
REMARK    4  A    between atoms: C_15  and  C_17
REMARK    5  A    between atoms: C_15  and  C_18
REMARK    6  A    between atoms: C_15  and  C_19
REMARK                            x       y       z     vdW  Elec       q    Type
REMARK                         _______ _______ _______ _____ _____    ______ ____
ROOT
ATOM      1  O   UNL     1      -3.932   4.518  23.646  0.00  0.00    -0.275 OA
ATOM      3  N   UNL     1      -2.298   3.346  24.793  0.00  0.00    -0.300 N 
ATOM      9  C   UNL     1      -0.529   1.912  25.480  0.00  0.00    +0.095 C 
ATOM     10  C   UNL     1      -3.544   3.936  24.654  0.00  0.00    +0.219 C 
ATOM     11  C   UNL     1      -1.802   2.622  25.962  0.00  0.00    +0.120 C 
ATOM     12  C   UNL     1      -0.032   2.856  24.375  0.00  0.00    +0.033 C 
ATOM     13  C   UNL     1      -1.310   3.367  23.726  0.00  0.00    +0.108 C 
ENDROOT
BRANCH   9  14
ATOM      2  O   UNL     1      -1.933  -0.065  25.092  0.00  0.00    -0.424 OA
ATOM      4  N   UNL     1       0.182  -0.305  24.406  0.00  0.00    -0.112 NA
ATOM      5  N   UNL     1      -0.493  -1.481  24.132  0.00  0.00    -0.112 NA
ATOM     14  C   UNL     1      -0.697   0.491  24.967  0.00  0.00    +0.222 A 
ATOM     16  C   UNL     1      -1.723  -1.294  24.548  0.00  0.00    +0.223 A 
BRANCH  16  15
ATOM     15  C   UNL     1      -2.873  -2.207  24.507  0.00  0.00    +0.040 C 
ATOM     17  C   UNL     1      -3.309  -2.671  25.940  0.00  0.00    +0.020 C 
ATOM     18  C   UNL     1      -2.562  -3.508  23.687  0.00  0.00    +0.020 C 
ATOM     19  C   UNL     1      -4.189  -1.636  23.858  0.00  0.00    +0.020 C 
ENDBRANCH  16  15
ENDBRANCH   9  14
BRANCH  10   6
ATOM      6  C   UNL     1      -4.472   3.817  25.819  0.00  0.00    +0.075 C 
ATOM      7  C   UNL     1      -5.465   2.692  25.852  0.00  0.00    +0.013 C 
ATOM      8  C   UNL     1      -5.932   4.099  25.619  0.00  0.00    +0.013 C 
ENDBRANCH  10   6
TORSDOF 3
ENDMDL
MODEL 2
REMARK VINA RESULT:      -4.7      2.062      3.684
REMARK  Name = 51137752
REMARK  6 active torsions:
REMARK  status: ('A' for Active; 'I' for Inactive)
REMARK    1  A    between atoms: C_6  and  C_10
REMARK    2  A    between atoms: C_9  and  C_14
REMARK    3  A    between atoms: C_15  and  C_16
REMARK    4  A    between atoms: C_15  and  C_17
REMARK    5  A    between atoms: C_15  and  C_18
REMARK    6  A    between atoms: C_15  and  C_19
REMARK                            x       y       z     vdW  Elec       q    Type
REMARK                         _______ _______ _______ _____ _____    ______ ____
ROOT
ATOM      1  O   UNL     1      -3.056   4.712  26.773  0.00  0.00    -0.275 OA
ATOM      3  N   UNL     1      -3.991   3.316  25.181  0.00  0.00    -0.300 N 
ATOM      9  C   UNL     1      -4.967   1.521  23.962  0.00  0.00    +0.095 C 
ATOM     10  C   UNL     1      -3.110   4.290  25.622  0.00  0.00    +0.219 C 
ATOM     11  C   UNL     1      -4.076   2.764  23.830  0.00  0.00    +0.120 C 
ATOM     12  C   UNL     1      -5.872   1.897  25.145  0.00  0.00    +0.033 C 
ATOM     13  C   UNL     1      -4.959   2.691  26.068  0.00  0.00    +0.108 C 
ENDROOT
BRANCH   9  14
ATOM      2  O   UNL     1      -2.928   0.259  24.486  0.00  0.00    -0.424 OA
ATOM      4  N   UNL     1      -4.734  -1.023  24.178  0.00  0.00    -0.112 NA
ATOM      5  N   UNL     1      -3.665  -1.853  24.463  0.00  0.00    -0.112 NA
ATOM     14  C   UNL     1      -4.257   0.199  24.201  0.00  0.00    +0.222 A 
ATOM     16  C   UNL     1      -2.633  -1.061  24.636  0.00  0.00    +0.223 A 
BRANCH  16  15
ATOM     15  C   UNL     1      -1.241  -1.398  24.961  0.00  0.00    +0.040 C 
ATOM     17  C   UNL     1      -0.980  -2.944  24.908  0.00  0.00    +0.020 C 
ATOM     18  C   UNL     1      -0.843  -0.924  26.403  0.00  0.00    +0.020 C 
ATOM     19  C   UNL     1      -0.139  -0.778  24.024  0.00  0.00    +0.020 C 
ENDBRANCH  16  15
ENDBRANCH   9  14
BRANCH  10   6
ATOM      6  C   UNL     1      -2.151   4.828  24.611  0.00  0.00    +0.075 C 
ATOM      7  C   UNL     1      -0.786   4.214  24.496  0.00  0.00    +0.013 C 
ATOM      8  C   UNL     1      -0.944   5.586  25.083  0.00  0.00    +0.013 C 
ENDBRANCH  10   6
TORSDOF 3
ENDMDL
MODEL 3
REMARK VINA RESULT:      -3.9      1.311      5.430
REMARK  Name = 51137752
REMARK  6 active torsions:
REMARK  status: ('A' for Active; 'I' for Inactive)
REMARK    1  A    between atoms: C_6  and  C_10
REMARK    2  A    between atoms: C_9  and  C_14
REMARK    3  A    between atoms: C_15  and  C_16
REMARK    4  A    between atoms: C_15  and  C_17
REMARK    5  A    between atoms: C_15  and  C_18
REMARK    6  A    between atoms: C_15  and  C_19
REMARK                            x       y       z     vdW  Elec       q    Type
REMARK                         _______ _______ _______ _____ _____    ______ ____
ROOT
ATOM      1  O   UNL     1      -0.533  -2.031  25.755  0.00  0.00    -0.275 OA
ATOM      3  N   UNL     1      -0.957  -0.177  24.435  0.00  0.00    -0.300 N 
ATOM      9  C   UNL     1      -1.333   2.001  23.554  0.00  0.00    +0.095 C 
ATOM     10  C   UNL     1      -1.137  -1.492  24.832  0.00  0.00    +0.219 C 
ATOM     11  C   UNL     1      -1.668   0.515  23.362  0.00  0.00    +0.120 C 
ATOM     12  C   UNL     1       0.059   1.936  24.200  0.00  0.00    +0.033 C 
ATOM     13  C   UNL     1      -0.008   0.706  25.094  0.00  0.00    +0.108 C 
ENDROOT
BRANCH   9  14
ATOM      2  O   UNL     1      -3.575   2.339  24.494  0.00  0.00    -0.424 OA
ATOM      4  N   UNL     1      -2.103   3.923  25.066  0.00  0.00    -0.112 NA
ATOM      5  N   UNL     1      -3.314   4.232  25.657  0.00  0.00    -0.112 NA
ATOM     14  C   UNL     1      -2.303   2.812  24.397  0.00  0.00    +0.222 A 
ATOM     16  C   UNL     1      -4.143   3.281  25.296  0.00  0.00    +0.223 A 
BRANCH  16  15
ATOM     15  C   UNL     1      -5.561   3.099  25.632  0.00  0.00    +0.040 C 
ATOM     17  C   UNL     1      -6.292   2.156  24.614  0.00  0.00    +0.020 C 
ATOM     18  C   UNL     1      -6.346   4.458  25.630  0.00  0.00    +0.020 C 
ATOM     19  C   UNL     1      -5.865   2.470  27.043  0.00  0.00    +0.020 C 
ENDBRANCH  16  15
ENDBRANCH   9  14
BRANCH  10   6
ATOM      6  C   UNL     1      -2.164  -2.279  24.086  0.00  0.00    +0.075 C 
ATOM      7  C   UNL     1      -3.594  -1.824  24.107  0.00  0.00    +0.013 C 
ATOM      8  C   UNL     1      -3.188  -3.059  24.858  0.00  0.00    +0.013 C 
ENDBRANCH  10   6
TORSDOF 3
ENDMDL
MODEL 4
REMARK VINA RESULT:      -3.0      2.525      5.983
REMARK  Name = 51137752
REMARK  6 active torsions:
REMARK  status: ('A' for Active; 'I' for Inactive)
REMARK    1  A    between atoms: C_6  and  C_10
REMARK    2  A    between atoms: C_9  and  C_14
REMARK    3  A    between atoms: C_15  and  C_16
REMARK    4  A    between atoms: C_15  and  C_17
REMARK    5  A    between atoms: C_15  and  C_18
REMARK    6  A    between atoms: C_15  and  C_19
REMARK                            x       y       z     vdW  Elec       q    Type
REMARK                         _______ _______ _______ _____ _____    ______ ____
ROOT
ATOM      1  O   UNL     1       1.156  -0.663  21.629  0.00  0.00    -0.275 OA
ATOM      3  N   UNL     1       0.082  -0.789  23.676  0.00  0.00    -0.300 N 
ATOM      9  C   UNL     1      -1.475  -0.952  25.467  0.00  0.00    +0.095 C 
ATOM     10  C   UNL     1       1.046  -0.315  22.801  0.00  0.00    +0.219 C 
ATOM     11  C   UNL     1      -0.105  -0.387  25.069  0.00  0.00    +0.120 C 
ATOM     12  C   UNL     1      -1.585  -2.194  24.571  0.00  0.00    +0.033 C 
ATOM     13  C   UNL     1      -0.912  -1.770  23.272  0.00  0.00    +0.108 C 
ENDROOT
BRANCH   9  14
ATOM      2  O   UNL     1      -2.407   1.306  25.226  0.00  0.00    -0.424 OA
ATOM      4  N   UNL     1      -3.943  -0.319  25.182  0.00  0.00    -0.112 NA
ATOM      5  N   UNL     1      -4.597   0.891  25.038  0.00  0.00    -0.112 NA
ATOM     14  C   UNL     1      -2.668  -0.028  25.289  0.00  0.00    +0.222 A 
ATOM     16  C   UNL     1      -3.661   1.810  25.069  0.00  0.00    +0.223 A 
BRANCH  16  15
ATOM     15  C   UNL     1      -3.781   3.270  24.957  0.00  0.00    +0.040 C 
ATOM     17  C   UNL     1      -5.133   3.798  25.552  0.00  0.00    +0.020 C 
ATOM     18  C   UNL     1      -3.726   3.753  23.465  0.00  0.00    +0.020 C 
ATOM     19  C   UNL     1      -2.671   4.115  25.687  0.00  0.00    +0.020 C 
ENDBRANCH  16  15
ENDBRANCH   9  14
BRANCH  10   6
ATOM      6  C   UNL     1       1.989   0.711  23.340  0.00  0.00    +0.075 C 
ATOM      7  C   UNL     1       3.089   1.228  22.459  0.00  0.00    +0.013 C 
ATOM      8  C   UNL     1       3.413   0.320  23.610  0.00  0.00    +0.013 C 
ENDBRANCH  10   6
TORSDOF 3
ENDMDL
MODEL 5
REMARK VINA RESULT:      -2.9      1.868      5.393
REMARK  Name = 51137752
REMARK  6 active torsions:
REMARK  status: ('A' for Active; 'I' for Inactive)
REMARK    1  A    between atoms: C_6  and  C_10
REMARK    2  A    between atoms: C_9  and  C_14
REMARK    3  A    between atoms: C_15  and  C_16
REMARK    4  A    between atoms: C_15  and  C_17
REMARK    5  A    between atoms: C_15  and  C_18
REMARK    6  A    between atoms: C_15  and  C_19
REMARK                            x       y       z     vdW  Elec       q    Type
REMARK                         _______ _______ _______ _____ _____    ______ ____
ROOT
ATOM      1  O   UNL     1      -3.086  -2.969  25.876  0.00  0.00    -0.275 OA
ATOM      3  N   UNL     1      -1.769  -1.568  24.587  0.00  0.00    -0.300 N 
ATOM      9  C   UNL     1      -0.222   0.035  23.752  0.00  0.00    +0.095 C 
ATOM     10  C   UNL     1      -2.942  -2.232  24.905  0.00  0.00    +0.219 C 
ATOM     11  C   UNL     1      -1.558  -0.663  23.459  0.00  0.00    +0.120 C 
ATOM     12  C   UNL     1       0.525  -1.029  24.570  0.00  0.00    +0.033 C 
ATOM     13  C   UNL     1      -0.568  -1.690  25.398  0.00  0.00    +0.108 C 
ENDROOT
BRANCH   9  14
ATOM      2  O   UNL     1      -1.463   2.053  24.394  0.00  0.00    -0.424 OA
ATOM      4  N   UNL     1       0.608   1.955  25.234  0.00  0.00    -0.112 NA
ATOM      5  N   UNL     1       0.026   3.131  25.669  0.00  0.00    -0.112 NA
ATOM     14  C   UNL     1      -0.296   1.359  24.493  0.00  0.00    +0.222 A 
ATOM     16  C   UNL     1      -1.182   3.145  25.155  0.00  0.00    +0.223 A 
BRANCH  16  15
ATOM     15  C   UNL     1      -2.242   4.153  25.288  0.00  0.00    +0.040 C 
ATOM     17  C   UNL     1      -3.377   3.958  24.223  0.00  0.00    +0.020 C 
ATOM     18  C   UNL     1      -1.695   5.612  25.101  0.00  0.00    +0.020 C 
ATOM     19  C   UNL     1      -2.997   4.188  26.669  0.00  0.00    +0.020 C 
ENDBRANCH  16  15
ENDBRANCH   9  14
BRANCH  10   6
ATOM      6  C   UNL     1      -4.108  -1.997  24.001  0.00  0.00    +0.075 C 
ATOM      7  C   UNL     1      -4.113  -0.787  23.113  0.00  0.00    +0.013 C 
ATOM      8  C   UNL     1      -5.038  -0.856  24.293  0.00  0.00    +0.013 C 
ENDBRANCH  10   6
TORSDOF 3
ENDMDL
MODEL 6
REMARK VINA RESULT:      -2.7      2.328      5.399
REMARK  Name = 51137752
REMARK  6 active torsions:
REMARK  status: ('A' for Active; 'I' for Inactive)
REMARK    1  A    between atoms: C_6  and  C_10
REMARK    2  A    between atoms: C_9  and  C_14
REMARK    3  A    between atoms: C_15  and  C_16
REMARK    4  A    between atoms: C_15  and  C_17
REMARK    5  A    between atoms: C_15  and  C_18
REMARK    6  A    between atoms: C_15  and  C_19
REMARK                            x       y       z     vdW  Elec       q    Type
REMARK                         _______ _______ _______ _____ _____    ______ ____
ROOT
ATOM      1  O   UNL     1       0.462  -1.031  24.370  0.00  0.00    -0.275 OA
ATOM      3  N   UNL     1       0.005   1.221  24.656  0.00  0.00    -0.300 N 
ATOM      9  C   UNL     1      -0.897   3.345  25.234  0.00  0.00    +0.095 C 
ATOM     10  C   UNL     1       0.430   0.117  23.935  0.00  0.00    +0.219 C 
ATOM     11  C   UNL     1      -0.074   2.598  24.174  0.00  0.00    +0.120 C 
ATOM     12  C   UNL     1      -0.570   2.555  26.511  0.00  0.00    +0.033 C 
ATOM     13  C   UNL     1      -0.453   1.115  26.032  0.00  0.00    +0.108 C 
ENDROOT
BRANCH   9  14
ATOM      2  O   UNL     1      -3.136   2.347  25.367  0.00  0.00    -0.424 OA
ATOM      4  N   UNL     1      -3.108   4.400  24.480  0.00  0.00    -0.112 NA
ATOM      5  N   UNL     1      -4.419   3.959  24.495  0.00  0.00    -0.112 NA
ATOM     14  C   UNL     1      -2.395   3.427  24.997  0.00  0.00    +0.222 A 
ATOM     16  C   UNL     1      -4.386   2.757  25.021  0.00  0.00    +0.223 A 
BRANCH  16  15
ATOM     15  C   UNL     1      -5.488   1.821  25.283  0.00  0.00    +0.040 C 
ATOM     17  C   UNL     1      -6.121   2.037  26.701  0.00  0.00    +0.020 C 
ATOM     18  C   UNL     1      -5.016   0.326  25.222  0.00  0.00    +0.020 C 
ATOM     19  C   UNL     1      -6.708   1.891  24.290  0.00  0.00    +0.020 C 
ENDBRANCH  16  15
ENDBRANCH   9  14
BRANCH  10   6
ATOM      6  C   UNL     1       0.849   0.363  22.523  0.00  0.00    +0.075 C 
ATOM      7  C   UNL     1       1.210  -0.804  21.652  0.00  0.00    +0.013 C 
ATOM      8  C   UNL     1       2.281   0.130  22.137  0.00  0.00    +0.013 C 
ENDBRANCH  10   6
TORSDOF 3
ENDMDL
MODEL 7
REMARK VINA RESULT:      -2.6     15.210     17.719
REMARK  Name = 51137752
REMARK  6 active torsions:
REMARK  status: ('A' for Active; 'I' for Inactive)
REMARK    1  A    between atoms: C_6  and  C_10
REMARK    2  A    between atoms: C_9  and  C_14
REMARK    3  A    between atoms: C_15  and  C_16
REMARK    4  A    between atoms: C_15  and  C_17
REMARK    5  A    between atoms: C_15  and  C_18
REMARK    6  A    between atoms: C_15  and  C_19
REMARK                            x       y       z     vdW  Elec       q    Type
REMARK                         _______ _______ _______ _____ _____    ______ ____
ROOT
ATOM      1  O   UNL     1      -0.640  -8.623  13.985  0.00  0.00    -0.275 OA
ATOM      3  N   UNL     1      -1.948  -9.686  12.397  0.00  0.00    -0.300 N 
ATOM      9  C   UNL     1      -3.466 -10.265  10.659  0.00  0.00    +0.095 C 
ATOM     10  C   UNL     1      -1.335  -9.572  13.634  0.00  0.00    +0.219 C 
ATOM     11  C   UNL     1      -2.802 -10.781  11.944  0.00  0.00    +0.120 C 
ATOM     12  C   UNL     1      -2.410  -9.289  10.120  0.00  0.00    +0.033 C 
ATOM     13  C   UNL     1      -1.817  -8.660  11.374  0.00  0.00    +0.108 C 
ENDROOT
BRANCH   9  14
ATOM      2  O   UNL     1      -5.655  -9.633   9.745  0.00  0.00    -0.424 OA
ATOM      4  N   UNL     1      -5.324  -8.964  11.854  0.00  0.00    -0.112 NA
ATOM      5  N   UNL     1      -6.584  -8.546  11.465  0.00  0.00    -0.112 NA
ATOM     14  C   UNL     1      -4.819  -9.592  10.818  0.00  0.00    +0.222 A 
ATOM     16  C   UNL     1      -6.734  -8.959  10.229  0.00  0.00    +0.223 A 
BRANCH  16  15
ATOM     15  C   UNL     1      -7.877  -8.798   9.321  0.00  0.00    +0.040 C 
ATOM     17  C   UNL     1      -7.894  -7.386   8.638  0.00  0.00    +0.020 C 
ATOM     18  C   UNL     1      -9.248  -8.953  10.069  0.00  0.00    +0.020 C 
ATOM     19  C   UNL     1      -7.963  -9.818   8.125  0.00  0.00    +0.020 C 
ENDBRANCH  16  15
ENDBRANCH   9  14
BRANCH  10   6
ATOM      6  C   UNL     1      -1.574 -10.686  14.601  0.00  0.00    +0.075 C 
ATOM      7  C   UNL     1      -2.606 -10.512  15.677  0.00  0.00    +0.013 C 
ATOM      8  C   UNL     1      -1.146 -10.514  16.029  0.00  0.00    +0.013 C 
ENDBRANCH  10   6
TORSDOF 3
ENDMDL
MODEL 8
REMARK VINA RESULT:      -2.4      3.431      6.480
REMARK  Name = 51137752
REMARK  6 active torsions:
REMARK  status: ('A' for Active; 'I' for Inactive)
REMARK    1  A    between atoms: C_6  and  C_10
REMARK    2  A    between atoms: C_9  and  C_14
REMARK    3  A    between atoms: C_15  and  C_16
REMARK    4  A    between atoms: C_15  and  C_17
REMARK    5  A    between atoms: C_15  and  C_18
REMARK    6  A    between atoms: C_15  and  C_19
REMARK                            x       y       z     vdW  Elec       q    Type
REMARK                         _______ _______ _______ _____ _____    ______ ____
ROOT
ATOM      1  O   UNL     1       3.723   0.790  21.603  0.00  0.00    -0.275 OA
ATOM      3  N   UNL     1       2.048  -0.077  22.945  0.00  0.00    -0.300 N 
ATOM      9  C   UNL     1       0.018  -0.583  24.079  0.00  0.00    +0.095 C 
ATOM     10  C   UNL     1       3.346   0.321  22.673  0.00  0.00    +0.219 C 
ATOM     11  C   UNL     1       1.548  -0.617  24.208  0.00  0.00    +0.120 C 
ATOM     12  C   UNL     1      -0.181  -0.741  22.564  0.00  0.00    +0.033 C 
ATOM     13  C   UNL     1       0.985   0.028  21.958  0.00  0.00    +0.108 C 
ENDROOT
BRANCH   9  14
ATOM      2  O   UNL     1      -1.989   0.817  24.273  0.00  0.00    -0.424 OA
ATOM      4  N   UNL     1      -0.209   1.628  25.358  0.00  0.00    -0.112 NA
ATOM      5  N   UNL     1      -1.261   2.505  25.547  0.00  0.00    -0.112 NA
ATOM     14  C   UNL     1      -0.680   0.659  24.608  0.00  0.00    +0.222 A 
ATOM     16  C   UNL     1      -2.278   1.991  24.897  0.00  0.00    +0.223 A 
BRANCH  16  15
ATOM     15  C   UNL     1      -3.650   2.497  24.757  0.00  0.00    +0.040 C 
ATOM     17  C   UNL     1      -3.948   2.996  23.300  0.00  0.00    +0.020 C 
ATOM     18  C   UNL     1      -3.931   3.708  25.714  0.00  0.00    +0.020 C 
ATOM     19  C   UNL     1      -4.803   1.472  25.068  0.00  0.00    +0.020 C 
ENDBRANCH  16  15
ENDBRANCH   9  14
BRANCH  10   6
ATOM      6  C   UNL     1       4.333   0.182  23.785  0.00  0.00    +0.075 C 
ATOM      7  C   UNL     1       5.799   0.158  23.465  0.00  0.00    +0.013 C 
ATOM      8  C   UNL     1       5.109  -1.096  23.916  0.00  0.00    +0.013 C 
ENDBRANCH  10   6
TORSDOF 3
ENDMDL
MODEL 9
REMARK VINA RESULT:      -1.8      1.298      2.119
REMARK  Name = 51137752
REMARK  6 active torsions:
REMARK  status: ('A' for Active; 'I' for Inactive)
REMARK    1  A    between atoms: C_6  and  C_10
REMARK    2  A    between atoms: C_9  and  C_14
REMARK    3  A    between atoms: C_15  and  C_16
REMARK    4  A    between atoms: C_15  and  C_17
REMARK    5  A    between atoms: C_15  and  C_18
REMARK    6  A    between atoms: C_15  and  C_19
REMARK                            x       y       z     vdW  Elec       q    Type
REMARK                         _______ _______ _______ _____ _____    ______ ____
ROOT
ATOM      1  O   UNL     1      -5.232   4.109  24.927  0.00  0.00    -0.275 OA
ATOM      3  N   UNL     1      -3.185   3.394  24.115  0.00  0.00    -0.300 N 
ATOM      9  C   UNL     1      -1.364   2.201  23.155  0.00  0.00    +0.095 C 
ATOM     10  C   UNL     1      -4.009   4.048  25.016  0.00  0.00    +0.219 C 
ATOM     11  C   UNL     1      -1.731   3.273  24.192  0.00  0.00    +0.120 C 
ATOM     12  C   UNL     1      -2.484   2.362  22.116  0.00  0.00    +0.033 C 
ATOM     13  C   UNL     1      -3.711   2.703  22.949  0.00  0.00    +0.108 C 
ENDROOT
BRANCH   9  14
ATOM      2  O   UNL     1      -2.446   0.138  23.929  0.00  0.00    -0.424 OA
ATOM      4  N   UNL     1      -0.213   0.029  23.882  0.00  0.00    -0.112 NA
ATOM      5  N   UNL     1      -0.690  -1.188  24.333  0.00  0.00    -0.112 NA
ATOM     14  C   UNL     1      -1.272   0.771  23.660  0.00  0.00    +0.222 A 
ATOM     16  C   UNL     1      -1.998  -1.078  24.343  0.00  0.00    +0.223 A 
BRANCH  16  15
ATOM     15  C   UNL     1      -3.016  -2.064  24.730  0.00  0.00    +0.040 C 
ATOM     17  C   UNL     1      -4.368  -1.846  23.966  0.00  0.00    +0.020 C 
ATOM     18  C   UNL     1      -3.348  -1.998  26.262  0.00  0.00    +0.020 C 
ATOM     19  C   UNL     1      -2.653  -3.574  24.469  0.00  0.00    +0.020 C 
ENDBRANCH  16  15
ENDBRANCH   9  14
BRANCH  10   6
ATOM      6  C   UNL     1      -3.339   4.694  26.184  0.00  0.00    +0.075 C 
ATOM      7  C   UNL     1      -2.134   4.037  26.792  0.00  0.00    +0.013 C 
ATOM      8  C   UNL     1      -3.440   4.044  27.533  0.00  0.00    +0.013 C 
ENDBRANCH  10   6
TORSDOF 3
ENDMDL
MODEL 10
REMARK VINA RESULT:      -1.1      2.393      4.262
REMARK  Name = 51137752
REMARK  6 active torsions:
REMARK  status: ('A' for Active; 'I' for Inactive)
REMARK    1  A    between atoms: C_6  and  C_10
REMARK    2  A    between atoms: C_9  and  C_14
REMARK    3  A    between atoms: C_15  and  C_16
REMARK    4  A    between atoms: C_15  and  C_17
REMARK    5  A    between atoms: C_15  and  C_18
REMARK    6  A    between atoms: C_15  and  C_19
REMARK                            x       y       z     vdW  Elec       q    Type
REMARK                         _______ _______ _______ _____ _____    ______ ____
ROOT
ATOM      1  O   UNL     1      -5.227   1.628  26.424  0.00  0.00    -0.275 OA
ATOM      3  N   UNL     1      -4.249   0.108  24.977  0.00  0.00    -0.300 N 
ATOM      9  C   UNL     1      -2.933  -1.574  23.930  0.00  0.00    +0.095 C 
ATOM     10  C   UNL     1      -4.819   1.328  25.307  0.00  0.00    +0.219 C 
ATOM     11  C   UNL     1      -3.727  -0.286  23.671  0.00  0.00    +0.120 C 
ATOM     12  C   UNL     1      -3.673  -2.171  25.136  0.00  0.00    +0.033 C 
ATOM     13  C   UNL     1      -4.081  -0.955  25.955  0.00  0.00    +0.108 C 
ENDROOT
BRANCH   9  14
ATOM      2  O   UNL     1      -0.718  -0.737  23.280  0.00  0.00    -0.424 OA
ATOM      4  N   UNL     1      -0.739  -1.827  25.233  0.00  0.00    -0.112 NA
ATOM      5  N   UNL     1       0.557  -1.414  24.988  0.00  0.00    -0.112 NA
ATOM     14  C   UNL     1      -1.448  -1.412  24.209  0.00  0.00    +0.222 A 
ATOM     16  C   UNL     1       0.521  -0.782  23.839  0.00  0.00    +0.223 A 
BRANCH  16  15
ATOM     15  C   UNL     1       1.608  -0.132  23.095  0.00  0.00    +0.040 C 
ATOM     17  C   UNL     1       1.678   1.409  23.378  0.00  0.00    +0.020 C 
ATOM     18  C   UNL     1       1.441  -0.297  21.543  0.00  0.00    +0.020 C 
ATOM     19  C   UNL     1       3.063  -0.655  23.392  0.00  0.00    +0.020 C 
ENDBRANCH  16  15
ENDBRANCH   9  14
BRANCH  10   6
ATOM      6  C   UNL     1      -4.906   2.340  24.211  0.00  0.00    +0.075 C 
ATOM      7  C   UNL     1      -3.658   3.042  23.762  0.00  0.00    +0.013 C 
ATOM      8  C   UNL     1      -4.701   3.790  24.541  0.00  0.00    +0.013 C 
ENDBRANCH  10   6
TORSDOF 3
ENDMDL
