MODEL 1
REMARK VINA RESULT:      -1.8      0.000      0.000
REMARK  Name = 40777095
REMARK  9 active torsions:
REMARK  status: ('A' for Active; 'I' for Inactive)
REMARK    1  A    between atoms: O_3  and  C_28
REMARK    2  A    between atoms: N_6  and  C_16
REMARK    3  A    between atoms: C_10  and  C_17
REMARK    4  A    between atoms: C_11  and  C_16
REMARK    5  A    between atoms: C_19  and  C_23
REMARK    6  A    between atoms: C_20  and  C_22
REMARK    7  A    between atoms: C_21  and  C_24
REMARK    8  A    between atoms: C_22  and  C_25
REMARK    9  A    between atoms: C_25  and  C_28
REMARK                            x       y       z     vdW  Elec       q    Type
REMARK                         _______ _______ _______ _____ _____    ______ ____
ROOT
ATOM      5  N   UNL     1      -0.340   4.194  25.488  0.00  0.00    -0.297 NA
ATOM      9  C   UNL     1      -2.232   4.043  23.706  0.00  0.00    +0.002 C 
ATOM     10  C   UNL     1      -2.789   3.719  25.120  0.00  0.00    +0.055 C 
ATOM     11  C   UNL     1       0.104   3.351  24.346  0.00  0.00    +0.074 C 
ATOM     12  C   UNL     1      -1.072   3.080  23.381  0.00  0.00    +0.024 C 
ATOM     13  C   UNL     1      -1.637   5.465  23.779  0.00  0.00    +0.019 C 
ATOM     14  C   UNL     1      -1.574   3.629  26.088  0.00  0.00    +0.094 C 
ATOM     15  C   UNL     1      -0.654   5.543  24.962  0.00  0.00    +0.085 C 
ENDROOT
BRANCH  10  17
ATOM      7  N   UNL     1      -4.946   2.785  25.797  0.00  0.00    -0.237 NA
ATOM      8  N   UNL     1      -5.465   0.444  25.554  0.00  0.00    -0.232 NA
ATOM     17  C   UNL     1      -3.732   2.532  25.266  0.00  0.00    +0.050 A 
ATOM     18  C   UNL     1      -3.317   1.280  24.861  0.00  0.00    +0.052 A 
ATOM     19  C   UNL     1      -4.235   0.264  25.030  0.00  0.00    +0.076 A 
ATOM     21  C   UNL     1      -5.751   1.711  25.910  0.00  0.00    +0.127 A 
ATOM     24  C   UNL     1      -7.102   1.949  26.496  0.00  0.00    +0.088 C 
BRANCH  19  23
ATOM      1 BR   UNL     1      -1.442  -0.850  26.119  0.00  0.00    -0.050 Br
ATOM     23  C   UNL     1      -3.924  -1.094  24.647  0.00  0.00    +0.014 A 
ATOM     26  C   UNL     1      -2.743  -1.722  25.043  0.00  0.00    +0.027 A 
ATOM     27  C   UNL     1      -4.847  -1.777  23.857  0.00  0.00    +0.011 A 
ATOM     29  C   UNL     1      -2.485  -3.034  24.649  0.00  0.00    +0.016 A 
ATOM     30  C   UNL     1      -4.589  -3.090  23.462  0.00  0.00    +0.001 A 
ATOM     31  C   UNL     1      -3.408  -3.718  23.857  0.00  0.00    +0.001 A 
ENDBRANCH  19  23
ENDBRANCH  10  17
BRANCH  11  16
ATOM     16  C   UNL     1       0.775   2.055  24.804  0.00  0.00    +0.123 C 
BRANCH  16   6
ATOM      2  O   UNL     1       0.568  -0.376  23.248  0.00  0.00    -0.276 OA
ATOM      6  N   UNL     1       1.693   1.579  23.815  0.00  0.00    -0.314 N 
ATOM     20  C   UNL     1       1.517   0.390  23.107  0.00  0.00    +0.214 C 
ATOM     32  H   UNL     1       2.518   2.141  23.626  0.00  0.00    +0.149 HD
BRANCH  20  22
ATOM     22  C   UNL     1       2.648   0.138  22.126  0.00  0.00    +0.107 C 
BRANCH  22  25
ATOM     25  C   UNL     1       3.943   0.829  22.539  0.00  0.00    +0.129 C 
BRANCH  25  28
ATOM      4  O   UNL     1       6.082   0.040  23.391  0.00  0.00    -0.251 OA
ATOM     28  C   UNL     1       4.872  -0.105  23.279  0.00  0.00    +0.305 C 
BRANCH  28   3
ATOM      3  O   UNL     1       4.196  -1.151  23.822  0.00  0.00    -0.481 OA
ATOM     33  H   UNL     1       3.746  -0.901  24.658  0.00  0.00    +0.295 HD
ENDBRANCH  28   3
ENDBRANCH  25  28
ENDBRANCH  22  25
ENDBRANCH  20  22
ENDBRANCH  16   6
ENDBRANCH  11  16
TORSDOF 8
ENDMDL
MODEL 2
REMARK VINA RESULT:      -1.5      1.568      5.101
REMARK  Name = 40777095
REMARK  9 active torsions:
REMARK  status: ('A' for Active; 'I' for Inactive)
REMARK    1  A    between atoms: O_3  and  C_28
REMARK    2  A    between atoms: N_6  and  C_16
REMARK    3  A    between atoms: C_10  and  C_17
REMARK    4  A    between atoms: C_11  and  C_16
REMARK    5  A    between atoms: C_19  and  C_23
REMARK    6  A    between atoms: C_20  and  C_22
REMARK    7  A    between atoms: C_21  and  C_24
REMARK    8  A    between atoms: C_22  and  C_25
REMARK    9  A    between atoms: C_25  and  C_28
REMARK                            x       y       z     vdW  Elec       q    Type
REMARK                         _______ _______ _______ _____ _____    ______ ____
ROOT
ATOM      5  N   UNL     1      -1.711  -2.125  23.782  0.00  0.00    -0.297 NA
ATOM      9  C   UNL     1      -3.623  -1.926  25.539  0.00  0.00    +0.002 C 
ATOM     10  C   UNL     1      -3.785  -0.847  24.433  0.00  0.00    +0.055 C 
ATOM     11  C   UNL     1      -1.139  -2.103  25.155  0.00  0.00    +0.074 C 
ATOM     12  C   UNL     1      -2.235  -1.779  26.195  0.00  0.00    +0.024 C 
ATOM     13  C   UNL     1      -3.647  -3.297  24.829  0.00  0.00    +0.019 C 
ATOM     14  C   UNL     1      -2.509  -0.897  23.544  0.00  0.00    +0.094 C 
ATOM     15  C   UNL     1      -2.617  -3.294  23.685  0.00  0.00    +0.085 C 
ENDROOT
BRANCH  10  17
ATOM      7  N   UNL     1      -5.345   0.751  25.431  0.00  0.00    -0.237 NA
ATOM      8  N   UNL     1      -4.824   3.093  25.643  0.00  0.00    -0.232 NA
ATOM     17  C   UNL     1      -4.137   0.571  24.859  0.00  0.00    +0.050 A 
ATOM     18  C   UNL     1      -3.230   1.589  24.649  0.00  0.00    +0.052 A 
ATOM     19  C   UNL     1      -3.630   2.842  25.065  0.00  0.00    +0.076 A 
ATOM     21  C   UNL     1      -5.620   2.018  25.794  0.00  0.00    +0.127 A 
ATOM     24  C   UNL     1      -6.949   2.257  26.427  0.00  0.00    +0.088 C 
BRANCH  19  23
ATOM      1 BR   UNL     1      -0.647   2.483  26.159  0.00  0.00    -0.050 Br
ATOM     23  C   UNL     1      -2.774   3.993  24.901  0.00  0.00    +0.014 A 
ATOM     26  C   UNL     1      -1.446   3.994  25.327  0.00  0.00    +0.027 A 
ATOM     27  C   UNL     1      -3.313   5.128  24.296  0.00  0.00    +0.011 A 
ATOM     29  C   UNL     1      -0.656   5.129  25.148  0.00  0.00    +0.016 A 
ATOM     30  C   UNL     1      -2.523   6.264  24.116  0.00  0.00    +0.001 A 
ATOM     31  C   UNL     1      -1.195   6.264  24.543  0.00  0.00    +0.001 A 
ENDBRANCH  19  23
ENDBRANCH  10  17
BRANCH  11  16
ATOM     16  C   UNL     1       0.057  -1.158  25.274  0.00  0.00    +0.123 C 
BRANCH  16   6
ATOM      2  O   UNL     1       0.806   1.152  23.701  0.00  0.00    -0.276 OA
ATOM      6  N   UNL     1       0.820  -1.145  24.063  0.00  0.00    -0.314 N 
ATOM     20  C   UNL     1       1.139   0.020  23.364  0.00  0.00    +0.214 C 
ATOM     32  H   UNL     1       1.141  -2.036  23.696  0.00  0.00    +0.149 HD
BRANCH  20  22
ATOM     22  C   UNL     1       1.954  -0.269  22.117  0.00  0.00    +0.107 C 
BRANCH  22  25
ATOM     25  C   UNL     1       3.283   0.477  22.103  0.00  0.00    +0.129 C 
BRANCH  25  28
ATOM      4  O   UNL     1       5.034   0.754  23.771  0.00  0.00    -0.251 OA
ATOM     28  C   UNL     1       4.181   0.054  23.242  0.00  0.00    +0.305 C 
BRANCH  28   3
ATOM      3  O   UNL     1       3.927  -1.224  23.627  0.00  0.00    -0.481 OA
ATOM     33  H   UNL     1       4.365  -1.444  24.477  0.00  0.00    +0.295 HD
ENDBRANCH  28   3
ENDBRANCH  25  28
ENDBRANCH  22  25
ENDBRANCH  20  22
ENDBRANCH  16   6
ENDBRANCH  11  16
TORSDOF 8
ENDMDL
MODEL 3
REMARK VINA RESULT:       0.8      2.165      5.731
REMARK  Name = 40777095
REMARK  9 active torsions:
REMARK  status: ('A' for Active; 'I' for Inactive)
REMARK    1  A    between atoms: O_3  and  C_28
REMARK    2  A    between atoms: N_6  and  C_16
REMARK    3  A    between atoms: C_10  and  C_17
REMARK    4  A    between atoms: C_11  and  C_16
REMARK    5  A    between atoms: C_19  and  C_23
REMARK    6  A    between atoms: C_20  and  C_22
REMARK    7  A    between atoms: C_21  and  C_24
REMARK    8  A    between atoms: C_22  and  C_25
REMARK    9  A    between atoms: C_25  and  C_28
REMARK                            x       y       z     vdW  Elec       q    Type
REMARK                         _______ _______ _______ _____ _____    ______ ____
ROOT
ATOM      5  N   UNL     1      -4.847   2.919  23.759  0.00  0.00    -0.297 NA
ATOM      9  C   UNL     1      -3.892   3.200  26.165  0.00  0.00    +0.002 C 
ATOM     10  C   UNL     1      -2.795   3.497  25.106  0.00  0.00    +0.055 C 
ATOM     11  C   UNL     1      -5.178   1.724  24.579  0.00  0.00    +0.074 C 
ATOM     12  C   UNL     1      -4.447   1.779  25.939  0.00  0.00    +0.024 C 
ATOM     13  C   UNL     1      -5.048   4.187  25.897  0.00  0.00    +0.019 C 
ATOM     14  C   UNL     1      -3.377   3.115  23.715  0.00  0.00    +0.094 C 
ATOM     15  C   UNL     1      -5.453   4.103  24.414  0.00  0.00    +0.085 C 
ENDROOT
BRANCH  10  17
ATOM      7  N   UNL     1      -0.886   3.047  26.568  0.00  0.00    -0.237 NA
ATOM      8  N   UNL     1       1.085   1.901  25.790  0.00  0.00    -0.232 NA
ATOM     17  C   UNL     1      -1.405   2.919  25.329  0.00  0.00    +0.050 A 
ATOM     18  C   UNL     1      -0.749   2.302  24.284  0.00  0.00    +0.052 A 
ATOM     19  C   UNL     1       0.506   1.807  24.575  0.00  0.00    +0.076 A 
ATOM     21  C   UNL     1       0.344   2.524  26.727  0.00  0.00    +0.127 A 
ATOM     24  C   UNL     1       0.953   2.649  28.082  0.00  0.00    +0.088 C 
BRANCH  19  23
ATOM      1 BR   UNL     1      -1.119  -0.169  22.656  0.00  0.00    -0.050 Br
ATOM     23  C   UNL     1       1.298   1.141  23.567  0.00  0.00    +0.014 A 
ATOM     26  C   UNL     1       0.736   0.248  22.655  0.00  0.00    +0.027 A 
ATOM     27  C   UNL     1       2.665   1.413  23.526  0.00  0.00    +0.011 A 
ATOM     29  C   UNL     1       1.540  -0.372  21.700  0.00  0.00    +0.016 A 
ATOM     30  C   UNL     1       3.470   0.793  22.570  0.00  0.00    +0.001 A 
ATOM     31  C   UNL     1       2.908  -0.100  21.658  0.00  0.00    +0.001 A 
ENDBRANCH  19  23
ENDBRANCH  10  17
BRANCH  11  16
ATOM     16  C   UNL     1      -4.906   0.414  23.838  0.00  0.00    +0.123 C 
BRANCH  16   6
ATOM      2  O   UNL     1      -4.591  -2.438  23.469  0.00  0.00    -0.276 OA
ATOM      6  N   UNL     1      -4.149  -0.486  24.653  0.00  0.00    -0.314 N 
ATOM     20  C   UNL     1      -4.048  -1.855  24.403  0.00  0.00    +0.214 C 
ATOM     32  H   UNL     1      -3.663  -0.100  25.458  0.00  0.00    +0.149 HD
BRANCH  20  22
ATOM     22  C   UNL     1      -3.182  -2.560  25.431  0.00  0.00    +0.107 C 
BRANCH  22  25
ATOM     25  C   UNL     1      -1.714  -2.605  25.024  0.00  0.00    +0.129 C 
BRANCH  25  28
ATOM      4  O   UNL     1      -1.362  -0.514  26.219  0.00  0.00    -0.251 OA
ATOM     28  C   UNL     1      -0.905  -1.525  25.703  0.00  0.00    +0.305 C 
BRANCH  28   3
ATOM      3  O   UNL     1       0.424  -1.809  25.679  0.00  0.00    -0.481 OA
ATOM     33  H   UNL     1       0.617  -2.684  26.080  0.00  0.00    +0.295 HD
ENDBRANCH  28   3
ENDBRANCH  25  28
ENDBRANCH  22  25
ENDBRANCH  20  22
ENDBRANCH  16   6
ENDBRANCH  11  16
TORSDOF 8
ENDMDL
MODEL 4
REMARK VINA RESULT:       0.9      2.418      5.788
REMARK  Name = 40777095
REMARK  9 active torsions:
REMARK  status: ('A' for Active; 'I' for Inactive)
REMARK    1  A    between atoms: O_3  and  C_28
REMARK    2  A    between atoms: N_6  and  C_16
REMARK    3  A    between atoms: C_10  and  C_17
REMARK    4  A    between atoms: C_11  and  C_16
REMARK    5  A    between atoms: C_19  and  C_23
REMARK    6  A    between atoms: C_20  and  C_22
REMARK    7  A    between atoms: C_21  and  C_24
REMARK    8  A    between atoms: C_22  and  C_25
REMARK    9  A    between atoms: C_25  and  C_28
REMARK                            x       y       z     vdW  Elec       q    Type
REMARK                         _______ _______ _______ _____ _____    ______ ____
ROOT
ATOM      5  N   UNL     1      -2.035  -2.224  23.732  0.00  0.00    -0.297 NA
ATOM      9  C   UNL     1      -3.330  -1.797  25.951  0.00  0.00    +0.002 C 
ATOM     10  C   UNL     1      -3.922  -0.935  24.801  0.00  0.00    +0.055 C 
ATOM     11  C   UNL     1      -1.077  -1.939  24.833  0.00  0.00    +0.074 C 
ATOM     12  C   UNL     1      -1.827  -1.481  26.103  0.00  0.00    +0.024 C 
ATOM     13  C   UNL     1      -3.442  -3.270  25.506  0.00  0.00    +0.019 C 
ATOM     14  C   UNL     1      -2.979  -1.089  23.573  0.00  0.00    +0.094 C 
ATOM     15  C   UNL     1      -2.816  -3.427  24.109  0.00  0.00    +0.085 C 
ENDROOT
BRANCH  10  17
ATOM      7  N   UNL     1      -5.487   0.774  25.584  0.00  0.00    -0.237 NA
ATOM      8  N   UNL     1      -4.914   3.113  25.635  0.00  0.00    -0.232 NA
ATOM     17  C   UNL     1      -4.256   0.521  25.093  0.00  0.00    +0.050 A 
ATOM     18  C   UNL     1      -3.312   1.497  24.850  0.00  0.00    +0.052 A 
ATOM     19  C   UNL     1      -3.700   2.789  25.143  0.00  0.00    +0.076 A 
ATOM     21  C   UNL     1      -5.745   2.072  25.829  0.00  0.00    +0.127 A 
ATOM     24  C   UNL     1      -7.098   2.392  26.370  0.00  0.00    +0.088 C 
BRANCH  19  23
ATOM      1 BR   UNL     1      -1.742   2.504  22.630  0.00  0.00    -0.050 Br
ATOM     23  C   UNL     1      -2.805   3.903  24.932  0.00  0.00    +0.014 A 
ATOM     26  C   UNL     1      -1.891   3.928  23.879  0.00  0.00    +0.027 A 
ATOM     27  C   UNL     1      -2.874   4.974  25.822  0.00  0.00    +0.011 A 
ATOM     29  C   UNL     1      -1.046   5.025  23.715  0.00  0.00    +0.016 A 
ATOM     30  C   UNL     1      -2.029   6.072  25.659  0.00  0.00    +0.001 A 
ATOM     31  C   UNL     1      -1.115   6.097  24.606  0.00  0.00    +0.001 A 
ENDBRANCH  19  23
ENDBRANCH  10  17
BRANCH  11  16
ATOM     16  C   UNL     1       0.006  -0.941  24.419  0.00  0.00    +0.123 C 
BRANCH  16   6
ATOM      2  O   UNL     1       1.357   1.569  23.923  0.00  0.00    -0.276 OA
ATOM      6  N   UNL     1      -0.082   0.258  25.195  0.00  0.00    -0.314 N 
ATOM     20  C   UNL     1       0.606   1.431  24.884  0.00  0.00    +0.214 C 
ATOM     32  H   UNL     1      -0.677   0.246  26.018  0.00  0.00    +0.149 HD
BRANCH  20  22
ATOM     22  C   UNL     1       0.324   2.539  25.882  0.00  0.00    +0.107 C 
BRANCH  22  25
ATOM     25  C   UNL     1      -0.042   2.002  27.261  0.00  0.00    +0.129 C 
BRANCH  25  28
ATOM      4  O   UNL     1       0.752   2.452  29.518  0.00  0.00    -0.251 OA
ATOM     28  C   UNL     1       0.962   2.413  28.313  0.00  0.00    +0.305 C 
BRANCH  28   3
ATOM      3  O   UNL     1       2.158   2.740  27.758  0.00  0.00    -0.481 OA
ATOM     33  H   UNL     1       2.624   3.432  28.275  0.00  0.00    +0.295 HD
ENDBRANCH  28   3
ENDBRANCH  25  28
ENDBRANCH  22  25
ENDBRANCH  20  22
ENDBRANCH  16   6
ENDBRANCH  11  16
TORSDOF 8
ENDMDL
MODEL 5
REMARK VINA RESULT:       1.0      3.465      7.643
REMARK  Name = 40777095
REMARK  9 active torsions:
REMARK  status: ('A' for Active; 'I' for Inactive)
REMARK    1  A    between atoms: O_3  and  C_28
REMARK    2  A    between atoms: N_6  and  C_16
REMARK    3  A    between atoms: C_10  and  C_17
REMARK    4  A    between atoms: C_11  and  C_16
REMARK    5  A    between atoms: C_19  and  C_23
REMARK    6  A    between atoms: C_20  and  C_22
REMARK    7  A    between atoms: C_21  and  C_24
REMARK    8  A    between atoms: C_22  and  C_25
REMARK    9  A    between atoms: C_25  and  C_28
REMARK                            x       y       z     vdW  Elec       q    Type
REMARK                         _______ _______ _______ _____ _____    ______ ____
ROOT
ATOM      5  N   UNL     1      -3.243  -2.166  25.973  0.00  0.00    -0.297 NA
ATOM      9  C   UNL     1      -2.407  -2.103  23.508  0.00  0.00    +0.002 C 
ATOM     10  C   UNL     1      -1.260  -1.715  24.481  0.00  0.00    +0.055 C 
ATOM     11  C   UNL     1      -4.185  -1.376  25.138  0.00  0.00    +0.074 C 
ATOM     12  C   UNL     1      -3.603  -1.153  23.724  0.00  0.00    +0.024 C 
ATOM     13  C   UNL     1      -2.872  -3.519  23.911  0.00  0.00    +0.019 C 
ATOM     14  C   UNL     1      -1.882  -1.578  25.900  0.00  0.00    +0.094 C 
ATOM     15  C   UNL     1      -3.185  -3.540  25.418  0.00  0.00    +0.085 C 
ENDROOT
BRANCH  10  17
ATOM      7  N   UNL     1       0.801  -0.802  23.534  0.00  0.00    -0.237 NA
ATOM      8  N   UNL     1       1.236   1.567  23.447  0.00  0.00    -0.232 NA
ATOM     17  C   UNL     1      -0.382  -0.525  24.119  0.00  0.00    +0.050 A 
ATOM     18  C   UNL     1      -0.821   0.753  24.396  0.00  0.00    +0.052 A 
ATOM     19  C   UNL     1       0.039   1.770  24.034  0.00  0.00    +0.076 A 
ATOM     21  C   UNL     1       1.550   0.275  23.228  0.00  0.00    +0.127 A 
ATOM     24  C   UNL     1       2.868   0.010  22.582  0.00  0.00    +0.088 C 
BRANCH  19  23
ATOM      1 BR   UNL     1      -1.043   2.421  26.972  0.00  0.00    -0.050 Br
ATOM     23  C   UNL     1      -0.301   3.154  24.271  0.00  0.00    +0.014 A 
ATOM     26  C   UNL     1      -0.787   3.596  25.501  0.00  0.00    +0.027 A 
ATOM     27  C   UNL     1      -0.132   4.057  23.222  0.00  0.00    +0.011 A 
ATOM     29  C   UNL     1      -1.103   4.942  25.683  0.00  0.00    +0.016 A 
ATOM     30  C   UNL     1      -0.447   5.404  23.404  0.00  0.00    +0.001 A 
ATOM     31  C   UNL     1      -0.933   5.846  24.634  0.00  0.00    +0.001 A 
ENDBRANCH  19  23
ENDBRANCH  10  17
BRANCH  11  16
ATOM     16  C   UNL     1      -4.590  -0.059  25.801  0.00  0.00    +0.123 C 
BRANCH  16   6
ATOM      2  O   UNL     1      -6.215   1.890  24.411  0.00  0.00    -0.276 OA
ATOM      6  N   UNL     1      -4.134   1.060  25.035  0.00  0.00    -0.314 N 
ATOM     20  C   UNL     1      -4.989   1.957  24.394  0.00  0.00    +0.214 C 
ATOM     32  H   UNL     1      -3.131   1.202  24.955  0.00  0.00    +0.149 HD
BRANCH  20  22
ATOM     22  C   UNL     1      -4.228   3.042  23.655  0.00  0.00    +0.107 C 
BRANCH  22  25
ATOM     25  C   UNL     1      -4.241   4.373  24.398  0.00  0.00    +0.129 C 
BRANCH  25  28
ATOM      4  O   UNL     1      -4.291   3.908  26.787  0.00  0.00    -0.251 OA
ATOM     28  C   UNL     1      -4.872   4.251  25.766  0.00  0.00    +0.305 C 
BRANCH  28   3
ATOM      3  O   UNL     1      -6.191   4.575  25.736  0.00  0.00    -0.481 OA
ATOM     33  H   UNL     1      -6.473   4.875  24.845  0.00  0.00    +0.295 HD
ENDBRANCH  28   3
ENDBRANCH  25  28
ENDBRANCH  22  25
ENDBRANCH  20  22
ENDBRANCH  16   6
ENDBRANCH  11  16
TORSDOF 8
ENDMDL
MODEL 6
REMARK VINA RESULT:       1.6      2.660      6.157
REMARK  Name = 40777095
REMARK  9 active torsions:
REMARK  status: ('A' for Active; 'I' for Inactive)
REMARK    1  A    between atoms: O_3  and  C_28
REMARK    2  A    between atoms: N_6  and  C_16
REMARK    3  A    between atoms: C_10  and  C_17
REMARK    4  A    between atoms: C_11  and  C_16
REMARK    5  A    between atoms: C_19  and  C_23
REMARK    6  A    between atoms: C_20  and  C_22
REMARK    7  A    between atoms: C_21  and  C_24
REMARK    8  A    between atoms: C_22  and  C_25
REMARK    9  A    between atoms: C_25  and  C_28
REMARK                            x       y       z     vdW  Elec       q    Type
REMARK                         _______ _______ _______ _____ _____    ______ ____
ROOT
ATOM      5  N   UNL     1      -4.197   4.112  24.155  0.00  0.00    -0.297 NA
ATOM      9  C   UNL     1      -2.073   4.275  25.654  0.00  0.00    +0.002 C 
ATOM     10  C   UNL     1      -1.762   3.484  24.353  0.00  0.00    +0.055 C 
ATOM     11  C   UNL     1      -4.524   3.701  25.546  0.00  0.00    +0.074 C 
ATOM     12  C   UNL     1      -3.240   3.592  26.398  0.00  0.00    +0.024 C 
ATOM     13  C   UNL     1      -2.566   5.671  25.219  0.00  0.00    +0.019 C 
ATOM     14  C   UNL     1      -3.112   3.255  23.614  0.00  0.00    +0.094 C 
ATOM     15  C   UNL     1      -3.707   5.510  24.197  0.00  0.00    +0.085 C 
ENDROOT
BRANCH  10  17
ATOM      7  N   UNL     1      -1.446   1.232  25.252  0.00  0.00    -0.237 NA
ATOM      8  N   UNL     1       0.482  -0.108  24.711  0.00  0.00    -0.232 NA
ATOM     17  C   UNL     1      -0.943   2.206  24.467  0.00  0.00    +0.050 A 
ATOM     18  C   UNL     1       0.249   2.099  23.780  0.00  0.00    +0.052 A 
ATOM     19  C   UNL     1       0.926   0.908  23.941  0.00  0.00    +0.076 A 
ATOM     21  C   UNL     1      -0.693   0.118  25.329  0.00  0.00    +0.127 A 
ATOM     24  C   UNL     1      -1.214  -0.982  26.191  0.00  0.00    +0.088 C 
BRANCH  19  23
ATOM      1 BR   UNL     1       0.730  -0.700  21.184  0.00  0.00    -0.050 Br
ATOM     23  C   UNL     1       2.187   0.670  23.278  0.00  0.00    +0.014 A 
ATOM     26  C   UNL     1       2.268  -0.018  22.068  0.00  0.00    +0.027 A 
ATOM     27  C   UNL     1       3.346   1.150  23.887  0.00  0.00    +0.011 A 
ATOM     29  C   UNL     1       3.508  -0.224  21.464  0.00  0.00    +0.016 A 
ATOM     30  C   UNL     1       4.586   0.944  23.284  0.00  0.00    +0.001 A 
ATOM     31  C   UNL     1       4.667   0.256  22.073  0.00  0.00    +0.001 A 
ENDBRANCH  19  23
ENDBRANCH  10  17
BRANCH  11  16
ATOM     16  C   UNL     1      -5.352   2.416  25.596  0.00  0.00    +0.123 C 
BRANCH  16   6
ATOM      2  O   UNL     1      -4.363  -0.270  26.022  0.00  0.00    -0.276 OA
ATOM      6  N   UNL     1      -4.912   1.487  24.600  0.00  0.00    -0.314 N 
ATOM     20  C   UNL     1      -4.448   0.204  24.892  0.00  0.00    +0.214 C 
ATOM     32  H   UNL     1      -4.939   1.786  23.630  0.00  0.00    +0.149 HD
BRANCH  20  22
ATOM     22  C   UNL     1      -4.048  -0.556  23.641  0.00  0.00    +0.107 C 
BRANCH  22  25
ATOM     25  C   UNL     1      -4.350  -2.047  23.743  0.00  0.00    +0.129 C 
BRANCH  25  28
ATOM      4  O   UNL     1      -2.144  -3.075  23.805  0.00  0.00    -0.251 OA
ATOM     28  C   UNL     1      -3.204  -2.815  24.359  0.00  0.00    +0.305 C 
BRANCH  28   3
ATOM      3  O   UNL     1      -3.488  -3.195  25.633  0.00  0.00    -0.481 OA
ATOM     33  H   UNL     1      -3.869  -2.458  26.157  0.00  0.00    +0.295 HD
ENDBRANCH  28   3
ENDBRANCH  25  28
ENDBRANCH  22  25
ENDBRANCH  20  22
ENDBRANCH  16   6
ENDBRANCH  11  16
TORSDOF 8
ENDMDL
MODEL 7
REMARK VINA RESULT:       1.7      2.796      4.931
REMARK  Name = 40777095
REMARK  9 active torsions:
REMARK  status: ('A' for Active; 'I' for Inactive)
REMARK    1  A    between atoms: O_3  and  C_28
REMARK    2  A    between atoms: N_6  and  C_16
REMARK    3  A    between atoms: C_10  and  C_17
REMARK    4  A    between atoms: C_11  and  C_16
REMARK    5  A    between atoms: C_19  and  C_23
REMARK    6  A    between atoms: C_20  and  C_22
REMARK    7  A    between atoms: C_21  and  C_24
REMARK    8  A    between atoms: C_22  and  C_25
REMARK    9  A    between atoms: C_25  and  C_28
REMARK                            x       y       z     vdW  Elec       q    Type
REMARK                         _______ _______ _______ _____ _____    ______ ____
ROOT
ATOM      5  N   UNL     1      -3.911   3.718  25.988  0.00  0.00    -0.297 NA
ATOM      9  C   UNL     1      -4.715   2.355  23.920  0.00  0.00    +0.002 C 
ATOM     10  C   UNL     1      -4.259   1.400  25.058  0.00  0.00    +0.055 C 
ATOM     11  C   UNL     1      -3.252   4.228  24.756  0.00  0.00    +0.074 C 
ATOM     12  C   UNL     1      -3.555   3.304  23.556  0.00  0.00    +0.024 C 
ATOM     13  C   UNL     1      -5.850   3.226  24.499  0.00  0.00    +0.019 C 
ATOM     14  C   UNL     1      -3.609   2.276  26.167  0.00  0.00    +0.094 C 
ATOM     15  C   UNL     1      -5.376   3.868  25.815  0.00  0.00    +0.085 C 
ENDROOT
BRANCH  10  17
ATOM      7  N   UNL     1      -4.004  -1.001  24.667  0.00  0.00    -0.237 NA
ATOM      8  N   UNL     1      -1.897  -1.982  24.033  0.00  0.00    -0.232 NA
ATOM     17  C   UNL     1      -3.395   0.203  24.688  0.00  0.00    +0.050 A 
ATOM     18  C   UNL     1      -2.060   0.392  24.396  0.00  0.00    +0.052 A 
ATOM     19  C   UNL     1      -1.353  -0.748  24.072  0.00  0.00    +0.076 A 
ATOM     21  C   UNL     1      -3.208  -2.035  24.336  0.00  0.00    +0.127 A 
ATOM     24  C   UNL     1      -3.844  -3.384  24.306  0.00  0.00    +0.088 C 
BRANCH  19  23
ATOM      1 BR   UNL     1       0.492  -2.857  25.614  0.00  0.00    -0.050 Br
ATOM     23  C   UNL     1       0.054  -0.686  23.747  0.00  0.00    +0.014 A 
ATOM     26  C   UNL     1       0.987  -1.539  24.337  0.00  0.00    +0.027 A 
ATOM     27  C   UNL     1       0.468   0.264  22.815  0.00  0.00    +0.011 A 
ATOM     29  C   UNL     1       2.334  -1.443  23.993  0.00  0.00    +0.016 A 
ATOM     30  C   UNL     1       1.816   0.361  22.471  0.00  0.00    +0.001 A 
ATOM     31  C   UNL     1       2.749  -0.492  23.060  0.00  0.00    +0.001 A 
ENDBRANCH  19  23
ENDBRANCH  10  17
BRANCH  11  16
ATOM     16  C   UNL     1      -1.749   4.443  24.945  0.00  0.00    +0.123 C 
BRANCH  16   6
ATOM      2  O   UNL     1       0.520   2.648  24.996  0.00  0.00    -0.276 OA
ATOM      6  N   UNL     1      -1.263   3.694  26.063  0.00  0.00    -0.314 N 
ATOM     20  C   UNL     1      -0.155   2.847  26.002  0.00  0.00    +0.214 C 
ATOM     32  H   UNL     1      -1.758   3.786  26.945  0.00  0.00    +0.149 HD
BRANCH  20  22
ATOM     22  C   UNL     1       0.128   2.183  27.336  0.00  0.00    +0.107 C 
BRANCH  22  25
ATOM     25  C   UNL     1       1.393   2.720  27.998  0.00  0.00    +0.129 C 
BRANCH  25  28
ATOM      4  O   UNL     1       0.668   2.899  30.315  0.00  0.00    -0.251 OA
ATOM     28  C   UNL     1       1.425   2.424  29.479  0.00  0.00    +0.305 C 
BRANCH  28   3
ATOM      3  O   UNL     1       2.415   1.545  29.789  0.00  0.00    -0.481 OA
ATOM     33  H   UNL     1       2.596   0.924  29.051  0.00  0.00    +0.295 HD
ENDBRANCH  28   3
ENDBRANCH  25  28
ENDBRANCH  22  25
ENDBRANCH  20  22
ENDBRANCH  16   6
ENDBRANCH  11  16
TORSDOF 8
ENDMDL
