MODEL 1
REMARK VINA RESULT:      -4.9      0.000      0.000
REMARK  Name = 75536892
REMARK  3 active torsions:
REMARK  status: ('A' for Active; 'I' for Inactive)
REMARK    1  A    between atoms: O_2  and  C_8
REMARK    2  A    between atoms: O_2  and  C_14
REMARK    3  A    between atoms: C_13  and  C_15
REMARK                            x       y       z     vdW  Elec       q    Type
REMARK                         _______ _______ _______ _____ _____    ______ ____
ROOT
ATOM      1  O   UNL     1       1.170  -0.397  23.378  0.00  0.00    -0.375 OA
ATOM      3  O   UNL     1      -0.494   4.116  23.794  0.00  0.00    -0.268 OA
ATOM      4  N   UNL     1      -0.330   1.986  24.756  0.00  0.00    -0.290 N 
ATOM      8  C   UNL     1      -0.354  -0.513  25.280  0.00  0.00    +0.216 C 
ATOM      9  C   UNL     1      -0.984   0.872  25.453  0.00  0.00    +0.155 C 
ATOM     10  C   UNL     1       1.076   1.837  24.375  0.00  0.00    +0.136 C 
ATOM     11  C   UNL     1      -0.096  -0.877  23.820  0.00  0.00    +0.206 C 
ATOM     12  C   UNL     1       1.216   1.001  23.109  0.00  0.00    +0.179 C 
ATOM     13  C   UNL     1      -0.994   3.173  24.404  0.00  0.00    +0.267 C 
ENDROOT
BRANCH  13  15
ATOM      5  N   UNL     1      -3.319   2.780  23.958  0.00  0.00    -0.247 NA
ATOM      7  N   UNL     1      -4.062   4.129  26.302  0.00  0.00    -0.259 NA
ATOM     15  C   UNL     1      -2.407   3.321  24.789  0.00  0.00    +0.144 A 
ATOM     18  C   UNL     1      -2.771   3.983  25.940  0.00  0.00    +0.143 A 
ATOM     20  C   UNL     1      -4.609   2.924  24.320  0.00  0.00    +0.131 A 
ATOM     22  C   UNL     1      -4.974   3.587  25.471  0.00  0.00    +0.130 A 
ENDBRANCH  13  15
BRANCH   8   2
ATOM      2  O   UNL     1      -1.269  -1.455  25.840  0.00  0.00    -0.483 OA
BRANCH   2  14
ATOM      6  N   UNL     1      -3.838  -3.197  23.909  0.00  0.00    -0.260 NA
ATOM     14  C   UNL     1      -2.425  -1.672  25.144  0.00  0.00    +0.139 A 
ATOM     16  C   UNL     1      -3.347  -0.649  24.949  0.00  0.00    +0.049 A 
ATOM     17  C   UNL     1      -2.715  -2.917  24.608  0.00  0.00    +0.156 A 
ATOM     19  C   UNL     1      -4.515  -0.899  24.236  0.00  0.00    +0.023 A 
ATOM     21  C   UNL     1      -4.710  -2.179  23.740  0.00  0.00    +0.111 A 
ENDBRANCH   2  14
ENDBRANCH   8   2
TORSDOF 3
ENDMDL
MODEL 2
REMARK VINA RESULT:      -4.7      1.538      4.901
REMARK  Name = 75536892
REMARK  3 active torsions:
REMARK  status: ('A' for Active; 'I' for Inactive)
REMARK    1  A    between atoms: O_2  and  C_8
REMARK    2  A    between atoms: O_2  and  C_14
REMARK    3  A    between atoms: C_13  and  C_15
REMARK                            x       y       z     vdW  Elec       q    Type
REMARK                         _______ _______ _______ _____ _____    ______ ____
ROOT
ATOM      1  O   UNL     1      -0.359   3.653  25.633  0.00  0.00    -0.375 OA
ATOM      3  O   UNL     1       0.146  -1.101  24.959  0.00  0.00    -0.268 OA
ATOM      4  N   UNL     1      -0.857   0.890  24.238  0.00  0.00    -0.290 N 
ATOM      8  C   UNL     1      -2.106   3.107  24.020  0.00  0.00    +0.216 C 
ATOM      9  C   UNL     1      -2.065   1.594  23.788  0.00  0.00    +0.155 C 
ATOM     10  C   UNL     1       0.374   1.664  24.409  0.00  0.00    +0.136 C 
ATOM     11  C   UNL     1      -1.764   3.504  25.454  0.00  0.00    +0.206 C 
ATOM     12  C   UNL     1       0.363   2.430  25.725  0.00  0.00    +0.179 C 
ATOM     13  C   UNL     1      -0.833  -0.479  24.549  0.00  0.00    +0.267 C 
ENDROOT
BRANCH  13  15
ATOM      5  N   UNL     1      -1.972  -2.591  24.523  0.00  0.00    -0.247 NA
ATOM      7  N   UNL     1      -4.409  -1.342  23.915  0.00  0.00    -0.259 NA
ATOM     15  C   UNL     1      -2.072  -1.256  24.376  0.00  0.00    +0.144 A 
ATOM     18  C   UNL     1      -3.268  -0.641  24.078  0.00  0.00    +0.143 A 
ATOM     20  C   UNL     1      -3.112  -3.291  24.361  0.00  0.00    +0.131 A 
ATOM     22  C   UNL     1      -4.309  -2.677  24.062  0.00  0.00    +0.130 A 
ENDBRANCH  13  15
BRANCH   8   2
ATOM      2  O   UNL     1      -3.437   3.533  23.725  0.00  0.00    -0.483 OA
BRANCH   2  14
ATOM      6  N   UNL     1      -5.594   3.160  26.653  0.00  0.00    -0.260 NA
ATOM     14  C   UNL     1      -4.427   3.054  24.538  0.00  0.00    +0.139 A 
ATOM     16  C   UNL     1      -5.253   2.015  24.126  0.00  0.00    +0.049 A 
ATOM     17  C   UNL     1      -4.636   3.588  25.800  0.00  0.00    +0.156 A 
ATOM     19  C   UNL     1      -6.250   1.547  24.975  0.00  0.00    +0.023 A 
ATOM     21  C   UNL     1      -6.378   2.149  26.218  0.00  0.00    +0.111 A 
ENDBRANCH   2  14
ENDBRANCH   8   2
TORSDOF 3
ENDMDL
MODEL 3
REMARK VINA RESULT:      -4.6      1.990      4.501
REMARK  Name = 75536892
REMARK  3 active torsions:
REMARK  status: ('A' for Active; 'I' for Inactive)
REMARK    1  A    between atoms: O_2  and  C_8
REMARK    2  A    between atoms: O_2  and  C_14
REMARK    3  A    between atoms: C_13  and  C_15
REMARK                            x       y       z     vdW  Elec       q    Type
REMARK                         _______ _______ _______ _____ _____    ______ ____
ROOT
ATOM      1  O   UNL     1      -4.882   3.790  26.132  0.00  0.00    -0.375 OA
ATOM      3  O   UNL     1      -0.209   3.606  24.931  0.00  0.00    -0.268 OA
ATOM      4  N   UNL     1      -2.390   2.898  24.451  0.00  0.00    -0.290 N 
ATOM      8  C   UNL     1      -4.772   1.980  24.500  0.00  0.00    +0.216 C 
ATOM      9  C   UNL     1      -3.304   1.803  24.102  0.00  0.00    +0.155 C 
ATOM     10  C   UNL     1      -2.956   4.228  24.684  0.00  0.00    +0.136 C 
ATOM     11  C   UNL     1      -4.955   2.378  25.962  0.00  0.00    +0.206 C 
ATOM     12  C   UNL     1      -3.565   4.329  26.077  0.00  0.00    +0.179 C 
ATOM     13  C   UNL     1      -1.005   2.726  24.609  0.00  0.00    +0.267 C 
ENDROOT
BRANCH  13  15
ATOM      5  N   UNL     1       0.385   1.260  23.314  0.00  0.00    -0.247 NA
ATOM      7  N   UNL     1      -0.225  -0.904  24.991  0.00  0.00    -0.259 NA
ATOM     15  C   UNL     1      -0.437   1.388  24.374  0.00  0.00    +0.144 A 
ATOM     18  C   UNL     1      -0.737   0.327  25.198  0.00  0.00    +0.143 A 
ATOM     20  C   UNL     1       0.897   0.031  23.108  0.00  0.00    +0.131 A 
ATOM     22  C   UNL     1       0.597  -1.032  23.931  0.00  0.00    +0.130 A 
ENDBRANCH  13  15
BRANCH   8   2
ATOM      2  O   UNL     1      -5.414   0.724  24.276  0.00  0.00    -0.483 OA
BRANCH   2  14
ATOM      6  N   UNL     1      -3.384  -1.632  26.198  0.00  0.00    -0.260 NA
ATOM     14  C   UNL     1      -4.690  -0.395  24.582  0.00  0.00    +0.139 A 
ATOM     16  C   UNL     1      -4.508  -1.410  23.649  0.00  0.00    +0.049 A 
ATOM     17  C   UNL     1      -4.112  -0.553  25.832  0.00  0.00    +0.156 A 
ATOM     19  C   UNL     1      -3.766  -2.535  23.988  0.00  0.00    +0.023 A 
ATOM     21  C   UNL     1      -3.229  -2.597  25.265  0.00  0.00    +0.111 A 
ENDBRANCH   2  14
ENDBRANCH   8   2
TORSDOF 3
ENDMDL
MODEL 4
REMARK VINA RESULT:      -4.6      1.927      4.981
REMARK  Name = 75536892
REMARK  3 active torsions:
REMARK  status: ('A' for Active; 'I' for Inactive)
REMARK    1  A    between atoms: O_2  and  C_8
REMARK    2  A    between atoms: O_2  and  C_14
REMARK    3  A    between atoms: C_13  and  C_15
REMARK                            x       y       z     vdW  Elec       q    Type
REMARK                         _______ _______ _______ _____ _____    ______ ____
ROOT
ATOM      1  O   UNL     1      -4.376  -2.816  23.852  0.00  0.00    -0.375 OA
ATOM      3  O   UNL     1      -0.010  -1.486  25.427  0.00  0.00    -0.268 OA
ATOM      4  N   UNL     1      -2.308  -1.030  25.389  0.00  0.00    -0.290 N 
ATOM      8  C   UNL     1      -4.743  -0.583  24.763  0.00  0.00    +0.216 C 
ATOM      9  C   UNL     1      -3.388  -0.048  25.236  0.00  0.00    +0.155 C 
ATOM     10  C   UNL     1      -2.669  -2.438  25.566  0.00  0.00    +0.136 C 
ATOM     11  C   UNL     1      -4.641  -1.458  23.516  0.00  0.00    +0.206 C 
ATOM     12  C   UNL     1      -3.031  -3.084  24.235  0.00  0.00    +0.179 C 
ATOM     13  C   UNL     1      -0.946  -0.693  25.336  0.00  0.00    +0.267 C 
ENDROOT
BRANCH  13  15
ATOM      5  N   UNL     1      -0.534   1.477  26.273  0.00  0.00    -0.247 NA
ATOM      7  N   UNL     1       0.016   2.539  23.736  0.00  0.00    -0.259 NA
ATOM     15  C   UNL     1      -0.584   0.723  25.158  0.00  0.00    +0.144 A 
ATOM     18  C   UNL     1      -0.314   1.243  23.912  0.00  0.00    +0.143 A 
ATOM     20  C   UNL     1      -0.204   2.772  26.098  0.00  0.00    +0.131 A 
ATOM     22  C   UNL     1       0.066   3.293  24.851  0.00  0.00    +0.130 A 
ENDBRANCH  13  15
BRANCH   8   2
ATOM      2  O   UNL     1      -5.555   0.554  24.468  0.00  0.00    -0.483 OA
BRANCH   2  14
ATOM      6  N   UNL     1      -4.957   3.736  26.166  0.00  0.00    -0.260 NA
ATOM     14  C   UNL     1      -5.015   1.779  24.747  0.00  0.00    +0.139 A 
ATOM     16  C   UNL     1      -4.018   2.322  23.945  0.00  0.00    +0.049 A 
ATOM     17  C   UNL     1      -5.447   2.520  25.836  0.00  0.00    +0.156 A 
ATOM     19  C   UNL     1      -3.489   3.572  24.252  0.00  0.00    +0.023 A 
ATOM     21  C   UNL     1      -3.989   4.231  25.364  0.00  0.00    +0.111 A 
ENDBRANCH   2  14
ENDBRANCH   8   2
TORSDOF 3
ENDMDL
MODEL 5
REMARK VINA RESULT:      -4.5      1.357      1.616
REMARK  Name = 75536892
REMARK  3 active torsions:
REMARK  status: ('A' for Active; 'I' for Inactive)
REMARK    1  A    between atoms: O_2  and  C_8
REMARK    2  A    between atoms: O_2  and  C_14
REMARK    3  A    between atoms: C_13  and  C_15
REMARK                            x       y       z     vdW  Elec       q    Type
REMARK                         _______ _______ _______ _____ _____    ______ ____
ROOT
ATOM      1  O   UNL     1       0.856   1.586  23.872  0.00  0.00    -0.375 OA
ATOM      3  O   UNL     1      -2.729   4.770  24.439  0.00  0.00    -0.268 OA
ATOM      4  N   UNL     1      -1.657   2.852  25.253  0.00  0.00    -0.290 N 
ATOM      8  C   UNL     1      -0.555   0.573  25.586  0.00  0.00    +0.216 C 
ATOM      9  C   UNL     1      -1.764   1.490  25.792  0.00  0.00    +0.155 C 
ATOM     10  C   UNL     1      -0.322   3.402  25.016  0.00  0.00    +0.136 C 
ATOM     11  C   UNL     1      -0.069   0.536  24.139  0.00  0.00    +0.206 C 
ATOM     12  C   UNL     1       0.267   2.872  23.715  0.00  0.00    +0.179 C 
ATOM     13  C   UNL     1      -2.772   3.639  24.921  0.00  0.00    +0.267 C 
ENDROOT
BRANCH  13  15
ATOM      5  N   UNL     1      -4.632   2.314  24.185  0.00  0.00    -0.247 NA
ATOM      7  N   UNL     1      -6.032   2.849  26.557  0.00  0.00    -0.259 NA
ATOM     15  C   UNL     1      -4.114   3.085  25.161  0.00  0.00    +0.144 A 
ATOM     18  C   UNL     1      -4.800   3.348  26.326  0.00  0.00    +0.143 A 
ATOM     20  C   UNL     1      -5.862   1.814  24.416  0.00  0.00    +0.131 A 
ATOM     22  C   UNL     1      -6.550   2.077  25.581  0.00  0.00    +0.130 A 
ENDBRANCH  13  15
BRANCH   8   2
ATOM      2  O   UNL     1      -0.964  -0.740  25.973  0.00  0.00    -0.483 OA
BRANCH   2  14
ATOM      6  N   UNL     1      -2.831  -3.047  23.840  0.00  0.00    -0.260 NA
ATOM     14  C   UNL     1      -2.005  -1.286  25.276  0.00  0.00    +0.139 A 
ATOM     16  C   UNL     1      -3.259  -0.684  25.271  0.00  0.00    +0.049 A 
ATOM     17  C   UNL     1      -1.845  -2.456  24.551  0.00  0.00    +0.156 A 
ATOM     19  C   UNL     1      -4.299  -1.262  24.552  0.00  0.00    +0.023 A 
ATOM     21  C   UNL     1      -4.035  -2.434  23.859  0.00  0.00    +0.111 A 
ENDBRANCH   2  14
ENDBRANCH   8   2
TORSDOF 3
ENDMDL
MODEL 6
REMARK VINA RESULT:      -4.4      1.789      4.471
REMARK  Name = 75536892
REMARK  3 active torsions:
REMARK  status: ('A' for Active; 'I' for Inactive)
REMARK    1  A    between atoms: O_2  and  C_8
REMARK    2  A    between atoms: O_2  and  C_14
REMARK    3  A    between atoms: C_13  and  C_15
REMARK                            x       y       z     vdW  Elec       q    Type
REMARK                         _______ _______ _______ _____ _____    ______ ____
ROOT
ATOM      1  O   UNL     1      -1.005  -2.355  25.135  0.00  0.00    -0.375 OA
ATOM      3  O   UNL     1      -5.457  -0.658  24.350  0.00  0.00    -0.268 OA
ATOM      4  N   UNL     1      -3.152  -0.331  24.077  0.00  0.00    -0.290 N 
ATOM      8  C   UNL     1      -0.628  -0.072  24.362  0.00  0.00    +0.216 C 
ATOM      9  C   UNL     1      -1.999   0.575  24.144  0.00  0.00    +0.155 C 
ATOM     10  C   UNL     1      -2.915  -1.734  23.734  0.00  0.00    +0.136 C 
ATOM     11  C   UNL     1      -0.605  -1.049  25.535  0.00  0.00    +0.206 C 
ATOM     12  C   UNL     1      -2.407  -2.515  24.939  0.00  0.00    +0.179 C 
ATOM     13  C   UNL     1      -4.467   0.073  24.362  0.00  0.00    +0.267 C 
ENDROOT
BRANCH  13  15
ATOM      5  N   UNL     1      -4.131   2.405  23.907  0.00  0.00    -0.247 NA
ATOM      7  N   UNL     1      -5.695   3.127  26.120  0.00  0.00    -0.259 NA
ATOM     15  C   UNL     1      -4.704   1.484  24.706  0.00  0.00    +0.144 A 
ATOM     18  C   UNL     1      -5.473   1.838  25.793  0.00  0.00    +0.143 A 
ATOM     20  C   UNL     1      -4.354   3.693  24.233  0.00  0.00    +0.131 A 
ATOM     22  C   UNL     1      -5.122   4.048  25.321  0.00  0.00    +0.130 A 
ENDBRANCH  13  15
BRANCH   8   2
ATOM      2  O   UNL     1       0.292   0.989  24.622  0.00  0.00    -0.483 OA
BRANCH   2  14
ATOM      6  N   UNL     1      -1.583   3.665  26.260  0.00  0.00    -0.260 NA
ATOM     14  C   UNL     1      -0.248   2.224  24.850  0.00  0.00    +0.139 A 
ATOM     16  C   UNL     1      -0.044   3.272  23.960  0.00  0.00    +0.049 A 
ATOM     17  C   UNL     1      -1.019   2.470  25.976  0.00  0.00    +0.156 A 
ATOM     19  C   UNL     1      -0.608   4.517  24.219  0.00  0.00    +0.023 A 
ATOM     21  C   UNL     1      -1.362   4.660  25.372  0.00  0.00    +0.111 A 
ENDBRANCH   2  14
ENDBRANCH   8   2
TORSDOF 3
ENDMDL
MODEL 7
REMARK VINA RESULT:      -3.7      2.179      4.521
REMARK  Name = 75536892
REMARK  3 active torsions:
REMARK  status: ('A' for Active; 'I' for Inactive)
REMARK    1  A    between atoms: O_2  and  C_8
REMARK    2  A    between atoms: O_2  and  C_14
REMARK    3  A    between atoms: C_13  and  C_15
REMARK                            x       y       z     vdW  Elec       q    Type
REMARK                         _______ _______ _______ _____ _____    ______ ____
ROOT
ATOM      1  O   UNL     1      -6.282   2.768  26.126  0.00  0.00    -0.375 OA
ATOM      3  O   UNL     1      -2.135   4.816  24.741  0.00  0.00    -0.268 OA
ATOM      4  N   UNL     1      -3.667   3.071  24.425  0.00  0.00    -0.290 N 
ATOM      8  C   UNL     1      -5.271   1.099  24.663  0.00  0.00    +0.216 C 
ATOM      9  C   UNL     1      -3.908   1.637  24.218  0.00  0.00    +0.155 C 
ATOM     10  C   UNL     1      -4.824   3.958  24.561  0.00  0.00    +0.136 C 
ATOM     11  C   UNL     1      -5.639   1.499  26.090  0.00  0.00    +0.206 C 
ATOM     12  C   UNL     1      -5.411   3.883  25.964  0.00  0.00    +0.179 C 
ATOM     13  C   UNL     1      -2.382   3.628  24.536  0.00  0.00    +0.267 C 
ENDROOT
BRANCH  13  15
ATOM      5  N   UNL     1      -1.232   1.886  23.354  0.00  0.00    -0.247 NA
ATOM      7  N   UNL     1       0.891   1.957  25.186  0.00  0.00    -0.259 NA
ATOM     15  C   UNL     1      -1.220   2.735  24.399  0.00  0.00    +0.144 A 
ATOM     18  C   UNL     1      -0.178   2.771  25.299  0.00  0.00    +0.143 A 
ATOM     20  C   UNL     1      -0.164   1.072  23.240  0.00  0.00    +0.131 A 
ATOM     22  C   UNL     1       0.879   1.107  24.140  0.00  0.00    +0.130 A 
ENDBRANCH  13  15
BRANCH   8   2
ATOM      2  O   UNL     1      -5.197  -0.326  24.584  0.00  0.00    -0.483 OA
BRANCH   2  14
ATOM      6  N   UNL     1      -1.788  -0.796  25.819  0.00  0.00    -0.260 NA
ATOM     14  C   UNL     1      -3.961  -0.884  24.762  0.00  0.00    +0.139 A 
ATOM     16  C   UNL     1      -3.603  -2.057  24.107  0.00  0.00    +0.049 A 
ATOM     17  C   UNL     1      -3.026  -0.297  25.600  0.00  0.00    +0.156 A 
ATOM     19  C   UNL     1      -2.339  -2.601  24.307  0.00  0.00    +0.023 A 
ATOM     21  C   UNL     1      -1.476  -1.937  25.165  0.00  0.00    +0.111 A 
ENDBRANCH   2  14
ENDBRANCH   8   2
TORSDOF 3
ENDMDL
MODEL 8
REMARK VINA RESULT:      -3.6      1.781      4.901
REMARK  Name = 75536892
REMARK  3 active torsions:
REMARK  status: ('A' for Active; 'I' for Inactive)
REMARK    1  A    between atoms: O_2  and  C_8
REMARK    2  A    between atoms: O_2  and  C_14
REMARK    3  A    between atoms: C_13  and  C_15
REMARK                            x       y       z     vdW  Elec       q    Type
REMARK                         _______ _______ _______ _____ _____    ______ ____
ROOT
ATOM      1  O   UNL     1      -0.943   4.590  24.993  0.00  0.00    -0.375 OA
ATOM      3  O   UNL     1       0.516  -0.012  24.941  0.00  0.00    -0.268 OA
ATOM      4  N   UNL     1      -0.979   1.585  24.102  0.00  0.00    -0.290 N 
ATOM      8  C   UNL     1      -2.703   3.436  23.759  0.00  0.00    +0.216 C 
ATOM      9  C   UNL     1      -2.357   1.945  23.743  0.00  0.00    +0.155 C 
ATOM     10  C   UNL     1       0.062   2.605  23.970  0.00  0.00    +0.136 C 
ATOM     11  C   UNL     1      -2.291   4.136  25.052  0.00  0.00    +0.206 C 
ATOM     12  C   UNL     1       0.037   3.569  25.150  0.00  0.00    +0.179 C 
ATOM     13  C   UNL     1      -0.617   0.322  24.598  0.00  0.00    +0.267 C 
ENDROOT
BRANCH  13  15
ATOM      5  N   UNL     1      -2.642  -0.457  25.623  0.00  0.00    -0.247 NA
ATOM      7  N   UNL     1      -2.593  -2.802  24.086  0.00  0.00    -0.259 NA
ATOM     15  C   UNL     1      -1.665  -0.703  24.729  0.00  0.00    +0.144 A 
ATOM     18  C   UNL     1      -1.640  -1.854  23.974  0.00  0.00    +0.143 A 
ATOM     20  C   UNL     1      -3.594  -1.404  25.735  0.00  0.00    +0.131 A 
ATOM     22  C   UNL     1      -3.570  -2.556  24.980  0.00  0.00    +0.130 A 
ENDBRANCH  13  15
BRANCH   8   2
ATOM      2  O   UNL     1      -4.121   3.531  23.610  0.00  0.00    -0.483 OA
BRANCH   2  14
ATOM      6  N   UNL     1      -5.947   2.955  26.724  0.00  0.00    -0.260 NA
ATOM     14  C   UNL     1      -4.878   2.898  24.556  0.00  0.00    +0.139 A 
ATOM     16  C   UNL     1      -5.343   1.603  24.353  0.00  0.00    +0.049 A 
ATOM     17  C   UNL     1      -5.205   3.524  25.748  0.00  0.00    +0.156 A 
ATOM     19  C   UNL     1      -6.110   0.983  25.334  0.00  0.00    +0.023 A 
ATOM     21  C   UNL     1      -6.381   1.696  26.491  0.00  0.00    +0.111 A 
ENDBRANCH   2  14
ENDBRANCH   8   2
TORSDOF 3
ENDMDL
MODEL 9
REMARK VINA RESULT:      -3.6      1.947      3.968
REMARK  Name = 75536892
REMARK  3 active torsions:
REMARK  status: ('A' for Active; 'I' for Inactive)
REMARK    1  A    between atoms: O_2  and  C_8
REMARK    2  A    between atoms: O_2  and  C_14
REMARK    3  A    between atoms: C_13  and  C_15
REMARK                            x       y       z     vdW  Elec       q    Type
REMARK                         _______ _______ _______ _____ _____    ______ ____
ROOT
ATOM      1  O   UNL     1      -2.814  -2.499  24.024  0.00  0.00    -0.375 OA
ATOM      3  O   UNL     1       0.928   0.512  24.520  0.00  0.00    -0.268 OA
ATOM      4  N   UNL     1      -1.236  -0.064  25.211  0.00  0.00    -0.290 N 
ATOM      8  C   UNL     1      -3.707  -0.681  25.385  0.00  0.00    +0.216 C 
ATOM      9  C   UNL     1      -2.600   0.364  25.546  0.00  0.00    +0.155 C 
ATOM     10  C   UNL     1      -0.933  -1.496  25.229  0.00  0.00    +0.136 C 
ATOM     11  C   UNL     1      -3.687  -1.374  24.024  0.00  0.00    +0.206 C 
ATOM     12  C   UNL     1      -1.428  -2.178  23.960  0.00  0.00    +0.179 C 
ATOM     13  C   UNL     1      -0.217   0.829  24.839  0.00  0.00    +0.267 C 
ENDROOT
BRANCH  13  15
ATOM      5  N   UNL     1      -0.108   2.961  23.743  0.00  0.00    -0.247 NA
ATOM      7  N   UNL     1      -1.481   4.189  25.858  0.00  0.00    -0.259 NA
ATOM     15  C   UNL     1      -0.523   2.269  24.822  0.00  0.00    +0.144 A 
ATOM     18  C   UNL     1      -1.197   2.871  25.861  0.00  0.00    +0.143 A 
ATOM     20  C   UNL     1      -0.392   4.278  23.740  0.00  0.00    +0.131 A 
ATOM     22  C   UNL     1      -1.066   4.881  24.779  0.00  0.00    +0.130 A 
ENDBRANCH  13  15
BRANCH   8   2
ATOM      2  O   UNL     1      -4.949   0.007  25.537  0.00  0.00    -0.483 OA
BRANCH   2  14
ATOM      6  N   UNL     1      -4.190   3.158  23.845  0.00  0.00    -0.260 NA
ATOM     14  C   UNL     1      -4.944   1.346  25.258  0.00  0.00    +0.139 A 
ATOM     16  C   UNL     1      -5.646   2.247  26.051  0.00  0.00    +0.049 A 
ATOM     17  C   UNL     1      -4.238   1.848  24.176  0.00  0.00    +0.156 A 
ATOM     19  C   UNL     1      -5.621   3.603  25.743  0.00  0.00    +0.023 A 
ATOM     21  C   UNL     1      -4.884   4.003  24.639  0.00  0.00    +0.111 A 
ENDBRANCH   2  14
ENDBRANCH   8   2
TORSDOF 3
ENDMDL
MODEL 10
REMARK VINA RESULT:      -2.8     18.095     20.663
REMARK  Name = 75536892
REMARK  3 active torsions:
REMARK  status: ('A' for Active; 'I' for Inactive)
REMARK    1  A    between atoms: O_2  and  C_8
REMARK    2  A    between atoms: O_2  and  C_14
REMARK    3  A    between atoms: C_13  and  C_15
REMARK                            x       y       z     vdW  Elec       q    Type
REMARK                         _______ _______ _______ _____ _____    ______ ____
ROOT
ATOM      1  O   UNL     1      12.643  -4.780  32.594  0.00  0.00    -0.375 OA
ATOM      3  O   UNL     1      12.926  -9.093  30.442  0.00  0.00    -0.268 OA
ATOM      4  N   UNL     1      13.996  -7.485  31.768  0.00  0.00    -0.290 N 
ATOM      8  C   UNL     1      15.004  -5.367  32.778  0.00  0.00    +0.216 C 
ATOM      9  C   UNL     1      15.205  -6.706  32.062  0.00  0.00    +0.155 C 
ATOM     10  C   UNL     1      12.792  -7.224  32.560  0.00  0.00    +0.136 C 
ATOM     11  C   UNL     1      13.951  -4.483  32.115  0.00  0.00    +0.206 C 
ATOM     12  C   UNL     1      12.073  -5.974  32.068  0.00  0.00    +0.179 C 
ATOM     13  C   UNL     1      13.925  -8.442  30.743  0.00  0.00    +0.267 C 
ENDROOT
BRANCH  13  15
ATOM      5  N   UNL     1      15.324  -7.931  28.861  0.00  0.00    -0.247 NA
ATOM      7  N   UNL     1      17.138  -9.944  29.583  0.00  0.00    -0.259 NA
ATOM     15  C   UNL     1      15.136  -8.704  29.948  0.00  0.00    +0.144 A 
ATOM     18  C   UNL     1      16.026  -9.693  30.303  0.00  0.00    +0.143 A 
ATOM     20  C   UNL     1      16.435  -8.182  28.141  0.00  0.00    +0.131 A 
ATOM     22  C   UNL     1      17.326  -9.171  28.495  0.00  0.00    +0.130 A 
ENDBRANCH  13  15
BRANCH   8   2
ATOM      2  O   UNL     1      16.262  -4.692  32.751  0.00  0.00    -0.483 OA
BRANCH   2  14
ATOM      6  N   UNL     1      17.269  -3.653  29.394  0.00  0.00    -0.260 NA
ATOM     14  C   UNL     1      16.499  -3.883  31.674  0.00  0.00    +0.139 A 
ATOM     16  C   UNL     1      16.235  -2.520  31.731  0.00  0.00    +0.049 A 
ATOM     17  C   UNL     1      17.011  -4.396  30.493  0.00  0.00    +0.156 A 
ATOM     19  C   UNL     1      16.486  -1.721  30.620  0.00  0.00    +0.023 A 
ATOM     21  C   UNL     1      16.999  -2.332  29.486  0.00  0.00    +0.111 A 
ENDBRANCH   2  14
ENDBRANCH   8   2
TORSDOF 3
ENDMDL
