MODEL 1
REMARK VINA RESULT:       3.8      0.000      0.000
REMARK  Name = 11941491
REMARK  5 active torsions:
REMARK  status: ('A' for Active; 'I' for Inactive)
REMARK    1  A    between atoms: S_1  and  C_21
REMARK    2  A    between atoms: S_1  and  C_26
REMARK    3  A    between atoms: N_7  and  C_9
REMARK    4  A    between atoms: C_17  and  C_21
REMARK    5  A    between atoms: C_20  and  C_23
REMARK                            x       y       z     vdW  Elec       q    Type
REMARK                         _______ _______ _______ _____ _____    ______ ____
ROOT
ATOM      3  O   UNL     1      -4.868  -0.575  25.389  0.00  0.00    -0.273 OA
ATOM      4  O   UNL     1      -1.773   1.630  21.739  0.00  0.00    -0.270 OA
ATOM      6  N   UNL     1      -3.197   1.585  23.545  0.00  0.00    -0.284 N 
ATOM      8  N   UNL     1      -2.690  -0.993  24.869  0.00  0.00    -0.283 N 
ATOM      9  C   UNL     1      -4.677   2.235  25.271  0.00  0.00    +0.104 C 
ATOM     10  C   UNL     1      -3.471   1.340  24.948  0.00  0.00    +0.183 C 
ATOM     11  C   UNL     1      -5.384   2.380  23.922  0.00  0.00    +0.043 C 
ATOM     12  C   UNL     1      -4.236   2.393  22.924  0.00  0.00    +0.111 C 
ATOM     13  C   UNL     1      -3.762  -0.145  25.055  0.00  0.00    +0.240 C 
ATOM     14  C   UNL     1      -2.031   1.261  22.885  0.00  0.00    +0.249 C 
ATOM     15  C   UNL     1      -1.046   0.398  23.588  0.00  0.00    +0.059 A 
ATOM     16  C   UNL     1      -1.389  -0.680  24.421  0.00  0.00    +0.046 A 
ATOM     18  C   UNL     1       0.303   0.602  23.240  0.00  0.00    +0.024 A 
ATOM     19  C   UNL     1      -0.378  -1.568  24.831  0.00  0.00    +0.024 A 
ATOM     20  C   UNL     1       1.297  -0.263  23.695  0.00  0.00    -0.010 A 
ATOM     22  C   UNL     1       0.955  -1.356  24.480  0.00  0.00    +0.011 A 
ATOM     29  H   UNL     1      -2.836  -1.953  25.173  0.00  0.00    +0.155 HD
ENDROOT
BRANCH  20  23
ATOM      2  S   UNL     1       3.847  -1.211  23.756  0.00  0.00    -0.097 S 
ATOM     23  C   UNL     1       2.674  -0.037  23.331  0.00  0.00    +0.019 A 
ATOM     24  C   UNL     1       3.232   1.029  22.659  0.00  0.00    +0.016 A 
ATOM     25  C   UNL     1       4.639   0.879  22.492  0.00  0.00    +0.008 A 
ATOM     27  C   UNL     1       5.104  -0.295  23.041  0.00  0.00    +0.046 A 
ENDBRANCH  20  23
BRANCH   9   7
ATOM      5  O   UNL     1      -2.001   2.995  26.073  0.00  0.00    -0.275 OA
ATOM      7  N   UNL     1      -4.247   3.518  25.778  0.00  0.00    -0.309 N 
ATOM     17  C   UNL     1      -2.937   3.790  26.138  0.00  0.00    +0.223 C 
ATOM     28  H   UNL     1      -4.930   4.268  25.818  0.00  0.00    +0.149 HD
BRANCH  17  21
ATOM     21  C   UNL     1      -2.749   5.196  26.655  0.00  0.00    +0.164 C 
BRANCH  21   1
ATOM      1  S   UNL     1      -2.092   6.229  25.324  0.00  0.00    -0.155 S 
ATOM     26  C   UNL     1      -0.795   5.115  24.735  0.00  0.00    +0.085 C 
ENDBRANCH  21   1
ENDBRANCH  17  21
ENDBRANCH   9   7
TORSDOF 4
ENDMDL
