MODEL 1
REMARK VINA RESULT:      -0.2      0.000      0.000
REMARK  Name = 11879542
REMARK  9 active torsions:
REMARK  status: ('A' for Active; 'I' for Inactive)
REMARK    1  A    between atoms: S_1  and  C_19
REMARK    2  A    between atoms: S_1  and  C_21
REMARK    3  A    between atoms: O_5  and  C_16
REMARK    4  A    between atoms: O_5  and  C_20
REMARK    5  A    between atoms: N_7  and  C_15
REMARK    6  A    between atoms: N_11  and  C_20
REMARK    7  A    between atoms: N_11  and  C_22
REMARK    8  A    between atoms: C_21  and  C_23
REMARK    9  A    between atoms: C_27  and  C_32
REMARK                            x       y       z     vdW  Elec       q    Type
REMARK                         _______ _______ _______ _____ _____    ______ ____
ROOT
ATOM      3  O   UNL     1      -2.574   0.222  24.034  0.00  0.00    -0.368 OA
ATOM      4  O   UNL     1      -5.065  -1.603  23.890  0.00  0.00    -0.368 OA
ATOM     13  C   UNL     1      -4.685  -0.551  24.805  0.00  0.00    +0.177 C 
ATOM     14  C   UNL     1      -3.184  -0.655  24.992  0.00  0.00    +0.192 C 
ATOM     15  C   UNL     1      -4.890   0.797  24.141  0.00  0.00    +0.168 C 
ATOM     16  C   UNL     1      -2.909  -2.106  24.676  0.00  0.00    +0.232 C 
ATOM     17  C   UNL     1      -3.586   1.000  23.378  0.00  0.00    +0.190 C 
ATOM     18  C   UNL     1      -3.905  -2.383  23.573  0.00  0.00    +0.207 C 
ENDROOT
BRANCH  15   7
ATOM      7  N   UNL     1      -5.225   1.850  25.103  0.00  0.00    -0.212 N 
ATOM      8  N   UNL     1      -6.001   1.574  26.157  0.00  0.00    -0.043 NA
ATOM      9  N   UNL     1      -5.399   3.721  26.175  0.00  0.00    -0.101 NA
ATOM     10  N   UNL     1      -6.105   2.725  26.811  0.00  0.00    -0.022 NA
ATOM     19  C   UNL     1      -4.861   3.156  25.119  0.00  0.00    +0.210 A 
BRANCH  19   1
ATOM      1  S   UNL     1      -3.863   3.892  23.929  0.00  0.00    -0.077 S 
BRANCH   1  21
ATOM     21  C   UNL     1      -2.571   4.654  24.957  0.00  0.00    +0.151 C 
BRANCH  21  23
ATOM      6  O   UNL     1      -1.327   3.205  26.416  0.00  0.00    -0.467 OA
ATOM     23  C   UNL     1      -1.423   3.713  25.173  0.00  0.00    +0.115 A 
ATOM     26  C   UNL     1      -0.446   3.268  24.349  0.00  0.00    +0.045 A 
ATOM     29  C   UNL     1       0.339   2.398  25.143  0.00  0.00    +0.041 A 
ATOM     30  C   UNL     1      -0.238   2.394  26.391  0.00  0.00    +0.195 A 
ENDBRANCH  21  23
ENDBRANCH   1  21
ENDBRANCH  19   1
ENDBRANCH  15   7
BRANCH  16   5
ATOM      5  O   UNL     1      -1.584  -2.353  24.269  0.00  0.00    -0.466 OA
BRANCH   5  20
ATOM      2  S   UNL     1       0.289  -2.489  26.171  0.00  0.00    +0.006 S 
ATOM     20  C   UNL     1      -0.463  -1.794  24.845  0.00  0.00    +0.233 C 
BRANCH  20  11
ATOM     11  N   UNL     1       0.036  -0.630  24.296  0.00  0.00    -0.279 N 
ATOM     33  H   UNL     1      -0.410   0.220  24.634  0.00  0.00    +0.156 HD
BRANCH  11  22
ATOM     22  C   UNL     1       1.062  -0.411  23.342  0.00  0.00    +0.035 A 
ATOM     24  C   UNL     1       2.347  -0.150  23.781  0.00  0.00    +0.042 A 
ATOM     25  C   UNL     1       0.751  -0.463  21.994  0.00  0.00    +0.023 A 
ATOM     27  C   UNL     1       3.356   0.068  22.841  0.00  0.00    +0.054 A 
ATOM     28  C   UNL     1       1.760  -0.246  21.055  0.00  0.00    +0.003 A 
ATOM     31  C   UNL     1       3.062   0.020  21.479  0.00  0.00    +0.019 A 
BRANCH  27  32
ATOM     12  N   UNL     1       5.775   0.561  23.628  0.00  0.00    -0.191 NA
ATOM     32  C   UNL     1       4.690   0.339  23.275  0.00  0.00    +0.099 C 
ENDBRANCH  27  32
ENDBRANCH  11  22
ENDBRANCH  20  11
ENDBRANCH   5  20
ENDBRANCH  16   5
TORSDOF 9
ENDMDL
MODEL 2
REMARK VINA RESULT:       0.8      2.339      7.067
REMARK  Name = 11879542
REMARK  9 active torsions:
REMARK  status: ('A' for Active; 'I' for Inactive)
REMARK    1  A    between atoms: S_1  and  C_19
REMARK    2  A    between atoms: S_1  and  C_21
REMARK    3  A    between atoms: O_5  and  C_16
REMARK    4  A    between atoms: O_5  and  C_20
REMARK    5  A    between atoms: N_7  and  C_15
REMARK    6  A    between atoms: N_11  and  C_20
REMARK    7  A    between atoms: N_11  and  C_22
REMARK    8  A    between atoms: C_21  and  C_23
REMARK    9  A    between atoms: C_27  and  C_32
REMARK                            x       y       z     vdW  Elec       q    Type
REMARK                         _______ _______ _______ _____ _____    ______ ____
ROOT
ATOM      3  O   UNL     1      -2.500   2.687  24.000  0.00  0.00    -0.368 OA
ATOM      4  O   UNL     1       0.113   4.059  24.919  0.00  0.00    -0.368 OA
ATOM     13  C   UNL     1      -0.438   2.748  25.179  0.00  0.00    +0.177 C 
ATOM     14  C   UNL     1      -1.939   2.921  25.301  0.00  0.00    +0.192 C 
ATOM     15  C   UNL     1      -0.256   1.869  23.957  0.00  0.00    +0.168 C 
ATOM     16  C   UNL     1      -2.076   4.367  25.715  0.00  0.00    +0.232 C 
ATOM     17  C   UNL     1      -1.479   2.208  23.113  0.00  0.00    +0.190 C 
ATOM     18  C   UNL     1      -0.949   5.023  24.951  0.00  0.00    +0.207 C 
ENDROOT
BRANCH  15   7
ATOM      7  N   UNL     1      -0.102   0.454  24.302  0.00  0.00    -0.212 N 
ATOM      8  N   UNL     1      -0.681  -0.034  25.404  0.00  0.00    -0.043 NA
ATOM      9  N   UNL     1       0.433  -1.641  24.333  0.00  0.00    -0.101 NA
ATOM     10  N   UNL     1      -0.350  -1.320  25.419  0.00  0.00    -0.022 NA
ATOM     19  C   UNL     1       0.573  -0.526  23.654  0.00  0.00    +0.210 A 
BRANCH  19   1
ATOM      1  S   UNL     1       1.447  -0.291  22.193  0.00  0.00    -0.077 S 
BRANCH   1  21
ATOM     21  C   UNL     1       2.721   0.896  22.717  0.00  0.00    +0.151 C 
BRANCH  21  23
ATOM      6  O   UNL     1       3.774  -1.119  23.496  0.00  0.00    -0.467 OA
ATOM     23  C   UNL     1       3.940   0.191  23.236  0.00  0.00    +0.115 A 
ATOM     26  C   UNL     1       5.196   0.622  23.498  0.00  0.00    +0.045 A 
ATOM     29  C   UNL     1       5.888  -0.520  23.967  0.00  0.00    +0.041 A 
ATOM     30  C   UNL     1       4.980  -1.553  23.947  0.00  0.00    +0.195 A 
ENDBRANCH  21  23
ENDBRANCH   1  21
ENDBRANCH  19   1
ENDBRANCH  15   7
BRANCH  16   5
ATOM      5  O   UNL     1      -3.328   4.928  25.399  0.00  0.00    -0.466 OA
BRANCH   5  20
ATOM      2  S   UNL     1      -5.989   5.170  25.476  0.00  0.00    +0.006 S 
ATOM     20  C   UNL     1      -4.547   4.338  25.659  0.00  0.00    +0.233 C 
BRANCH  20  11
ATOM     11  N   UNL     1      -4.554   3.023  26.080  0.00  0.00    -0.279 N 
ATOM     33  H   UNL     1      -4.177   2.877  27.014  0.00  0.00    +0.156 HD
BRANCH  11  22
ATOM     22  C   UNL     1      -4.993   1.839  25.437  0.00  0.00    +0.035 A 
ATOM     24  C   UNL     1      -4.164   0.731  25.421  0.00  0.00    +0.042 A 
ATOM     25  C   UNL     1      -6.241   1.819  24.838  0.00  0.00    +0.023 A 
ATOM     27  C   UNL     1      -4.597  -0.434  24.786  0.00  0.00    +0.054 A 
ATOM     28  C   UNL     1      -6.673   0.654  24.204  0.00  0.00    +0.003 A 
ATOM     31  C   UNL     1      -5.851  -0.472  24.177  0.00  0.00    +0.019 A 
BRANCH  27  32
ATOM     12  N   UNL     1      -3.069  -2.526  24.737  0.00  0.00    -0.191 NA
ATOM     32  C   UNL     1      -3.755  -1.588  24.760  0.00  0.00    +0.099 C 
ENDBRANCH  27  32
ENDBRANCH  11  22
ENDBRANCH  20  11
ENDBRANCH   5  20
ENDBRANCH  16   5
TORSDOF 9
ENDMDL
MODEL 3
REMARK VINA RESULT:       1.1      2.355      5.659
REMARK  Name = 11879542
REMARK  9 active torsions:
REMARK  status: ('A' for Active; 'I' for Inactive)
REMARK    1  A    between atoms: S_1  and  C_19
REMARK    2  A    between atoms: S_1  and  C_21
REMARK    3  A    between atoms: O_5  and  C_16
REMARK    4  A    between atoms: O_5  and  C_20
REMARK    5  A    between atoms: N_7  and  C_15
REMARK    6  A    between atoms: N_11  and  C_20
REMARK    7  A    between atoms: N_11  and  C_22
REMARK    8  A    between atoms: C_21  and  C_23
REMARK    9  A    between atoms: C_27  and  C_32
REMARK                            x       y       z     vdW  Elec       q    Type
REMARK                         _______ _______ _______ _____ _____    ______ ____
ROOT
ATOM      3  O   UNL     1      -2.769   1.376  24.668  0.00  0.00    -0.368 OA
ATOM      4  O   UNL     1      -5.472   0.402  25.810  0.00  0.00    -0.368 OA
ATOM     13  C   UNL     1      -4.580  -0.156  24.819  0.00  0.00    +0.177 C 
ATOM     14  C   UNL     1      -4.007   1.012  24.040  0.00  0.00    +0.192 C 
ATOM     15  C   UNL     1      -3.380  -0.776  25.508  0.00  0.00    +0.168 C 
ATOM     16  C   UNL     1      -5.060   2.080  24.218  0.00  0.00    +0.232 C 
ATOM     17  C   UNL     1      -2.437   0.411  25.677  0.00  0.00    +0.190 C 
ATOM     18  C   UNL     1      -5.534   1.824  25.631  0.00  0.00    +0.207 C 
ENDROOT
BRANCH  15   7
ATOM      7  N   UNL     1      -2.832  -1.912  24.764  0.00  0.00    -0.212 N 
ATOM      8  N   UNL     1      -3.631  -2.915  24.385  0.00  0.00    -0.043 NA
ATOM      9  N   UNL     1      -1.537  -3.297  23.722  0.00  0.00    -0.101 NA
ATOM     10  N   UNL     1      -2.833  -3.762  23.746  0.00  0.00    -0.022 NA
ATOM     19  C   UNL     1      -1.560  -2.149  24.358  0.00  0.00    +0.210 A 
BRANCH  19   1
ATOM      1  S   UNL     1      -0.241  -1.088  24.656  0.00  0.00    -0.077 S 
BRANCH   1  21
ATOM     21  C   UNL     1      -0.048  -0.282  23.038  0.00  0.00    +0.151 C 
BRANCH  21  23
ATOM      6  O   UNL     1       1.871  -0.337  21.593  0.00  0.00    -0.467 OA
ATOM     23  C   UNL     1       1.386   0.077  22.777  0.00  0.00    +0.115 A 
ATOM     26  C   UNL     1       2.302   0.748  23.513  0.00  0.00    +0.045 A 
ATOM     29  C   UNL     1       3.475   0.759  22.721  0.00  0.00    +0.041 A 
ATOM     30  C   UNL     1       3.161   0.086  21.564  0.00  0.00    +0.195 A 
ENDBRANCH  21  23
ENDBRANCH   1  21
ENDBRANCH  19   1
ENDBRANCH  15   7
BRANCH  16   5
ATOM      5  O   UNL     1      -4.568   3.389  24.053  0.00  0.00    -0.466 OA
BRANCH   5  20
ATOM      2  S   UNL     1      -5.905   5.083  25.628  0.00  0.00    +0.006 S 
ATOM     20  C   UNL     1      -4.519   4.347  25.043  0.00  0.00    +0.233 C 
BRANCH  20  11
ATOM     11  N   UNL     1      -3.283   4.690  25.553  0.00  0.00    -0.279 N 
ATOM     33  H   UNL     1      -3.278   5.545  26.105  0.00  0.00    +0.156 HD
BRANCH  11  22
ATOM     22  C   UNL     1      -2.018   4.061  25.441  0.00  0.00    +0.035 A 
ATOM     24  C   UNL     1      -1.385   3.608  26.584  0.00  0.00    +0.042 A 
ATOM     25  C   UNL     1      -1.445   3.916  24.188  0.00  0.00    +0.023 A 
ATOM     27  C   UNL     1      -0.138   2.991  26.473  0.00  0.00    +0.054 A 
ATOM     28  C   UNL     1      -0.199   3.298  24.078  0.00  0.00    +0.003 A 
ATOM     31  C   UNL     1       0.455   2.836  25.220  0.00  0.00    +0.019 A 
BRANCH  27  32
ATOM     12  N   UNL     1       1.074   2.131  28.596  0.00  0.00    -0.191 NA
ATOM     32  C   UNL     1       0.531   2.517  27.643  0.00  0.00    +0.099 C 
ENDBRANCH  27  32
ENDBRANCH  11  22
ENDBRANCH  20  11
ENDBRANCH   5  20
ENDBRANCH  16   5
TORSDOF 9
ENDMDL
MODEL 4
REMARK VINA RESULT:       1.5      1.725      4.408
REMARK  Name = 11879542
REMARK  9 active torsions:
REMARK  status: ('A' for Active; 'I' for Inactive)
REMARK    1  A    between atoms: S_1  and  C_19
REMARK    2  A    between atoms: S_1  and  C_21
REMARK    3  A    between atoms: O_5  and  C_16
REMARK    4  A    between atoms: O_5  and  C_20
REMARK    5  A    between atoms: N_7  and  C_15
REMARK    6  A    between atoms: N_11  and  C_20
REMARK    7  A    between atoms: N_11  and  C_22
REMARK    8  A    between atoms: C_21  and  C_23
REMARK    9  A    between atoms: C_27  and  C_32
REMARK                            x       y       z     vdW  Elec       q    Type
REMARK                         _______ _______ _______ _____ _____    ______ ____
ROOT
ATOM      3  O   UNL     1      -2.145   3.250  26.493  0.00  0.00    -0.368 OA
ATOM      4  O   UNL     1      -2.635   5.599  24.545  0.00  0.00    -0.368 OA
ATOM     13  C   UNL     1      -3.153   4.251  24.589  0.00  0.00    +0.177 C 
ATOM     14  C   UNL     1      -2.021   3.363  25.068  0.00  0.00    +0.192 C 
ATOM     15  C   UNL     1      -4.204   4.146  25.677  0.00  0.00    +0.168 C 
ATOM     16  C   UNL     1      -0.793   4.147  24.674  0.00  0.00    +0.232 C 
ATOM     17  C   UNL     1      -3.372   3.858  26.922  0.00  0.00    +0.190 C 
ATOM     18  C   UNL     1      -1.244   5.573  24.893  0.00  0.00    +0.207 C 
ENDROOT
BRANCH  15   7
ATOM      7  N   UNL     1      -5.234   3.152  25.367  0.00  0.00    -0.212 N 
ATOM      8  N   UNL     1      -6.479   3.309  25.831  0.00  0.00    -0.043 NA
ATOM      9  N   UNL     1      -6.326   1.437  24.628  0.00  0.00    -0.101 NA
ATOM     10  N   UNL     1      -7.145   2.254  25.375  0.00  0.00    -0.022 NA
ATOM     19  C   UNL     1      -5.147   2.014  24.636  0.00  0.00    +0.210 A 
BRANCH  19   1
ATOM      1  S   UNL     1      -3.707   1.468  23.872  0.00  0.00    -0.077 S 
BRANCH   1  21
ATOM     21  C   UNL     1      -3.087   0.262  25.083  0.00  0.00    +0.151 C 
BRANCH  21  23
ATOM      6  O   UNL     1      -2.586  -2.087  25.157  0.00  0.00    -0.467 OA
ATOM     23  C   UNL     1      -3.410  -1.143  24.666  0.00  0.00    +0.115 A 
ATOM     26  C   UNL     1      -4.384  -1.655  23.878  0.00  0.00    +0.045 A 
ATOM     29  C   UNL     1      -4.155  -3.052  23.870  0.00  0.00    +0.041 A 
ATOM     30  C   UNL     1      -3.051  -3.264  24.662  0.00  0.00    +0.195 A 
ENDBRANCH  21  23
ENDBRANCH   1  21
ENDBRANCH  19   1
ENDBRANCH  15   7
BRANCH  16   5
ATOM      5  O   UNL     1       0.348   3.828  25.437  0.00  0.00    -0.466 OA
BRANCH   5  20
ATOM      2  S   UNL     1       1.144   2.617  27.682  0.00  0.00    +0.006 S 
ATOM     20  C   UNL     1       0.535   2.647  26.122  0.00  0.00    +0.233 C 
BRANCH  20  11
ATOM     11  N   UNL     1       0.203   1.468  25.485  0.00  0.00    -0.279 N 
ATOM     33  H   UNL     1      -0.541   0.940  25.937  0.00  0.00    +0.156 HD
BRANCH  11  22
ATOM     22  C   UNL     1       0.717   0.862  24.311  0.00  0.00    +0.035 A 
ATOM     24  C   UNL     1       2.075   0.925  24.058  0.00  0.00    +0.042 A 
ATOM     25  C   UNL     1      -0.154   0.225  23.443  0.00  0.00    +0.023 A 
ATOM     27  C   UNL     1       2.580   0.330  22.900  0.00  0.00    +0.054 A 
ATOM     28  C   UNL     1       0.351  -0.369  22.287  0.00  0.00    +0.003 A 
ATOM     31  C   UNL     1       1.718  -0.316  22.015  0.00  0.00    +0.019 A 
BRANCH  27  32
ATOM     12  N   UNL     1       5.120   0.429  22.397  0.00  0.00    -0.191 NA
ATOM     32  C   UNL     1       3.981   0.384  22.622  0.00  0.00    +0.099 C 
ENDBRANCH  27  32
ENDBRANCH  11  22
ENDBRANCH  20  11
ENDBRANCH   5  20
ENDBRANCH  16   5
TORSDOF 9
ENDMDL
MODEL 5
REMARK VINA RESULT:       1.5      1.930      4.256
REMARK  Name = 11879542
REMARK  9 active torsions:
REMARK  status: ('A' for Active; 'I' for Inactive)
REMARK    1  A    between atoms: S_1  and  C_19
REMARK    2  A    between atoms: S_1  and  C_21
REMARK    3  A    between atoms: O_5  and  C_16
REMARK    4  A    between atoms: O_5  and  C_20
REMARK    5  A    between atoms: N_7  and  C_15
REMARK    6  A    between atoms: N_11  and  C_20
REMARK    7  A    between atoms: N_11  and  C_22
REMARK    8  A    between atoms: C_21  and  C_23
REMARK    9  A    between atoms: C_27  and  C_32
REMARK                            x       y       z     vdW  Elec       q    Type
REMARK                         _______ _______ _______ _____ _____    ______ ____
ROOT
ATOM      3  O   UNL     1      -1.378   2.272  25.831  0.00  0.00    -0.368 OA
ATOM      4  O   UNL     1      -1.333   5.126  24.644  0.00  0.00    -0.368 OA
ATOM     13  C   UNL     1      -2.295   4.051  24.550  0.00  0.00    +0.177 C 
ATOM     14  C   UNL     1      -1.503   2.760  24.486  0.00  0.00    +0.192 C 
ATOM     15  C   UNL     1      -3.075   3.953  25.847  0.00  0.00    +0.168 C 
ATOM     16  C   UNL     1      -0.173   3.212  23.931  0.00  0.00    +0.232 C 
ATOM     17  C   UNL     1      -2.183   3.069  26.711  0.00  0.00    +0.190 C 
ATOM     18  C   UNL     1      -0.012   4.574  24.565  0.00  0.00    +0.207 C 
ENDROOT
BRANCH  15   7
ATOM      7  N   UNL     1      -4.440   3.461  25.643  0.00  0.00    -0.212 N 
ATOM      8  N   UNL     1      -5.480   4.147  26.130  0.00  0.00    -0.043 NA
ATOM      9  N   UNL     1      -6.182   2.315  25.070  0.00  0.00    -0.101 NA
ATOM     10  N   UNL     1      -6.547   3.440  25.775  0.00  0.00    -0.022 NA
ATOM     19  C   UNL     1      -4.872   2.349  25.000  0.00  0.00    +0.210 A 
BRANCH  19   1
ATOM      1  S   UNL     1      -3.832   1.211  24.239  0.00  0.00    -0.077 S 
BRANCH   1  21
ATOM     21  C   UNL     1      -4.020  -0.236  25.323  0.00  0.00    +0.151 C 
BRANCH  21  23
ATOM      6  O   UNL     1      -1.745  -0.911  25.701  0.00  0.00    -0.467 OA
ATOM     23  C   UNL     1      -2.911  -1.224  25.107  0.00  0.00    +0.115 A 
ATOM     26  C   UNL     1      -2.853  -2.389  24.420  0.00  0.00    +0.045 A 
ATOM     29  C   UNL     1      -1.528  -2.855  24.595  0.00  0.00    +0.041 A 
ATOM     30  C   UNL     1      -0.895  -1.921  25.381  0.00  0.00    +0.195 A 
ENDBRANCH  21  23
ENDBRANCH   1  21
ENDBRANCH  19   1
ENDBRANCH  15   7
BRANCH  16   5
ATOM      5  O   UNL     1       0.893   2.348  24.249  0.00  0.00    -0.466 OA
BRANCH   5  20
ATOM      2  S   UNL     1       0.289   0.125  22.895  0.00  0.00    +0.006 S 
ATOM     20  C   UNL     1       1.332   1.309  23.457  0.00  0.00    +0.233 C 
BRANCH  20  11
ATOM     11  N   UNL     1       2.673   1.265  23.129  0.00  0.00    -0.279 N 
ATOM     33  H   UNL     1       3.016   2.093  22.647  0.00  0.00    +0.156 HD
BRANCH  11  22
ATOM     22  C   UNL     1       3.656   0.267  23.346  0.00  0.00    +0.035 A 
ATOM     24  C   UNL     1       4.990   0.584  23.166  0.00  0.00    +0.042 A 
ATOM     25  C   UNL     1       3.256  -1.002  23.730  0.00  0.00    +0.023 A 
ATOM     27  C   UNL     1       5.957  -0.400  23.378  0.00  0.00    +0.054 A 
ATOM     28  C   UNL     1       4.223  -1.984  23.942  0.00  0.00    +0.003 A 
ATOM     31  C   UNL     1       5.574  -1.684  23.765  0.00  0.00    +0.019 A 
BRANCH  27  32
ATOM     12  N   UNL     1       8.467   0.158  23.051  0.00  0.00    -0.191 NA
ATOM     32  C   UNL     1       7.341  -0.092  23.197  0.00  0.00    +0.099 C 
ENDBRANCH  27  32
ENDBRANCH  11  22
ENDBRANCH  20  11
ENDBRANCH   5  20
ENDBRANCH  16   5
TORSDOF 9
ENDMDL
MODEL 6
REMARK VINA RESULT:       1.6      2.304      6.206
REMARK  Name = 11879542
REMARK  9 active torsions:
REMARK  status: ('A' for Active; 'I' for Inactive)
REMARK    1  A    between atoms: S_1  and  C_19
REMARK    2  A    between atoms: S_1  and  C_21
REMARK    3  A    between atoms: O_5  and  C_16
REMARK    4  A    between atoms: O_5  and  C_20
REMARK    5  A    between atoms: N_7  and  C_15
REMARK    6  A    between atoms: N_11  and  C_20
REMARK    7  A    between atoms: N_11  and  C_22
REMARK    8  A    between atoms: C_21  and  C_23
REMARK    9  A    between atoms: C_27  and  C_32
REMARK                            x       y       z     vdW  Elec       q    Type
REMARK                         _______ _______ _______ _____ _____    ______ ____
ROOT
ATOM      3  O   UNL     1      -3.154   0.506  25.750  0.00  0.00    -0.368 OA
ATOM      4  O   UNL     1      -2.651  -1.783  23.734  0.00  0.00    -0.368 OA
ATOM     13  C   UNL     1      -2.111  -0.446  23.839  0.00  0.00    +0.177 C 
ATOM     14  C   UNL     1      -3.240   0.445  24.319  0.00  0.00    +0.192 C 
ATOM     15  C   UNL     1      -1.089  -0.398  24.958  0.00  0.00    +0.168 C 
ATOM     16  C   UNL     1      -4.471  -0.303  23.865  0.00  0.00    +0.232 C 
ATOM     17  C   UNL     1      -1.949  -0.139  26.190  0.00  0.00    +0.190 C 
ATOM     18  C   UNL     1      -4.050  -1.743  24.046  0.00  0.00    +0.207 C 
ENDROOT
BRANCH  15   7
ATOM      7  N   UNL     1      -0.033   0.587  24.711  0.00  0.00    -0.212 N 
ATOM      8  N   UNL     1       0.084   1.658  25.503  0.00  0.00    -0.043 NA
ATOM      9  N   UNL     1       1.650   1.688  23.916  0.00  0.00    -0.101 NA
ATOM     10  N   UNL     1       1.119   2.330  25.011  0.00  0.00    -0.022 NA
ATOM     19  C   UNL     1       0.921   0.609  23.749  0.00  0.00    +0.210 A 
BRANCH  19   1
ATOM      1  S   UNL     1       1.098  -0.599  22.539  0.00  0.00    -0.077 S 
BRANCH   1  21
ATOM     21  C   UNL     1       2.635  -0.075  21.722  0.00  0.00    +0.151 C 
BRANCH  21  23
ATOM      6  O   UNL     1       3.893  -1.271  23.384  0.00  0.00    -0.467 OA
ATOM     23  C   UNL     1       3.800  -0.137  22.665  0.00  0.00    +0.115 A 
ATOM     26  C   UNL     1       4.794   0.740  22.940  0.00  0.00    +0.045 A 
ATOM     29  C   UNL     1       5.588   0.102  23.923  0.00  0.00    +0.041 A 
ATOM     30  C   UNL     1       4.998  -1.118  24.159  0.00  0.00    +0.195 A 
ENDBRANCH  21  23
ENDBRANCH   1  21
ENDBRANCH  19   1
ENDBRANCH  15   7
BRANCH  16   5
ATOM      5  O   UNL     1      -5.626   0.010  24.607  0.00  0.00    -0.466 OA
BRANCH   5  20
ATOM      2  S   UNL     1      -6.785   1.337  26.617  0.00  0.00    +0.006 S 
ATOM     20  C   UNL     1      -5.868   1.220  25.220  0.00  0.00    +0.233 C 
BRANCH  20  11
ATOM     11  N   UNL     1      -5.327   2.356  24.650  0.00  0.00    -0.279 N 
ATOM     33  H   UNL     1      -5.732   2.610  23.752  0.00  0.00    +0.156 HD
BRANCH  11  22
ATOM     22  C   UNL     1      -4.303   3.229  25.096  0.00  0.00    +0.035 A 
ATOM     24  C   UNL     1      -3.206   3.454  24.284  0.00  0.00    +0.042 A 
ATOM     25  C   UNL     1      -4.426   3.834  26.335  0.00  0.00    +0.023 A 
ATOM     27  C   UNL     1      -2.198   4.312  24.725  0.00  0.00    +0.054 A 
ATOM     28  C   UNL     1      -3.418   4.693  26.775  0.00  0.00    +0.003 A 
ATOM     31  C   UNL     1      -2.303   4.931  25.970  0.00  0.00    +0.019 A 
BRANCH  27  32
ATOM     12  N   UNL     1      -0.129   4.756  23.229  0.00  0.00    -0.191 NA
ATOM     32  C   UNL     1      -1.057   4.557  23.901  0.00  0.00    +0.099 C 
ENDBRANCH  27  32
ENDBRANCH  11  22
ENDBRANCH  20  11
ENDBRANCH   5  20
ENDBRANCH  16   5
TORSDOF 9
ENDMDL
MODEL 7
REMARK VINA RESULT:       1.9      2.818      4.109
REMARK  Name = 11879542
REMARK  9 active torsions:
REMARK  status: ('A' for Active; 'I' for Inactive)
REMARK    1  A    between atoms: S_1  and  C_19
REMARK    2  A    between atoms: S_1  and  C_21
REMARK    3  A    between atoms: O_5  and  C_16
REMARK    4  A    between atoms: O_5  and  C_20
REMARK    5  A    between atoms: N_7  and  C_15
REMARK    6  A    between atoms: N_11  and  C_20
REMARK    7  A    between atoms: N_11  and  C_22
REMARK    8  A    between atoms: C_21  and  C_23
REMARK    9  A    between atoms: C_27  and  C_32
REMARK                            x       y       z     vdW  Elec       q    Type
REMARK                         _______ _______ _______ _____ _____    ______ ____
ROOT
ATOM      3  O   UNL     1      -3.974   2.078  23.567  0.00  0.00    -0.368 OA
ATOM      4  O   UNL     1      -5.448   2.969  26.133  0.00  0.00    -0.368 OA
ATOM     13  C   UNL     1      -4.055   3.009  25.751  0.00  0.00    +0.177 C 
ATOM     14  C   UNL     1      -3.785   1.750  24.951  0.00  0.00    +0.192 C 
ATOM     15  C   UNL     1      -3.831   4.139  24.766  0.00  0.00    +0.168 C 
ATOM     16  C   UNL     1      -4.849   0.802  25.451  0.00  0.00    +0.232 C 
ATOM     17  C   UNL     1      -4.171   3.492  23.428  0.00  0.00    +0.190 C 
ATOM     18  C   UNL     1      -6.018   1.732  25.681  0.00  0.00    +0.207 C 
ENDROOT
BRANCH  15   7
ATOM      7  N   UNL     1      -2.486   4.710  24.864  0.00  0.00    -0.212 N 
ATOM      8  N   UNL     1      -2.249   5.949  24.422  0.00  0.00    -0.043 NA
ATOM      9  N   UNL     1      -0.383   5.045  25.242  0.00  0.00    -0.101 NA
ATOM     10  N   UNL     1      -0.957   6.151  24.656  0.00  0.00    -0.022 NA
ATOM     19  C   UNL     1      -1.349   4.165  25.362  0.00  0.00    +0.210 A 
BRANCH  19   1
ATOM      1  S   UNL     1      -1.250   2.583  26.026  0.00  0.00    -0.077 S 
BRANCH   1  21
ATOM     21  C   UNL     1       0.547   2.377  26.212  0.00  0.00    +0.151 C 
BRANCH  21  23
ATOM      6  O   UNL     1       2.248   2.819  27.850  0.00  0.00    -0.467 OA
ATOM     23  C   UNL     1       0.960   2.484  27.651  0.00  0.00    +0.115 A 
ATOM     26  C   UNL     1       0.280   2.306  28.807  0.00  0.00    +0.045 A 
ATOM     29  C   UNL     1       1.224   2.551  29.832  0.00  0.00    +0.041 A 
ATOM     30  C   UNL     1       2.405   2.859  29.199  0.00  0.00    +0.195 A 
ENDBRANCH  21  23
ENDBRANCH   1  21
ENDBRANCH  19   1
ENDBRANCH  15   7
BRANCH  16   5
ATOM      5  O   UNL     1      -5.160  -0.227  24.540  0.00  0.00    -0.466 OA
BRANCH   5  20
ATOM      2  S   UNL     1      -4.565  -2.713  23.762  0.00  0.00    +0.006 S 
ATOM     20  C   UNL     1      -4.242  -1.083  23.971  0.00  0.00    +0.233 C 
BRANCH  20  11
ATOM     11  N   UNL     1      -3.029  -0.559  23.569  0.00  0.00    -0.279 N 
ATOM     33  H   UNL     1      -3.099   0.170  22.863  0.00  0.00    +0.156 HD
BRANCH  11  22
ATOM     22  C   UNL     1      -1.703  -0.860  23.967  0.00  0.00    +0.035 A 
ATOM     24  C   UNL     1      -0.646  -0.298  23.274  0.00  0.00    +0.042 A 
ATOM     25  C   UNL     1      -1.497  -1.712  25.040  0.00  0.00    +0.023 A 
ATOM     27  C   UNL     1       0.660  -0.597  23.666  0.00  0.00    +0.054 A 
ATOM     28  C   UNL     1      -0.191  -2.009  25.431  0.00  0.00    +0.003 A 
ATOM     31  C   UNL     1       0.887  -1.452  24.744  0.00  0.00    +0.019 A 
BRANCH  27  32
ATOM     12  N   UNL     1       2.664   0.439  22.391  0.00  0.00    -0.191 NA
ATOM     32  C   UNL     1       1.765  -0.026  22.963  0.00  0.00    +0.099 C 
ENDBRANCH  27  32
ENDBRANCH  11  22
ENDBRANCH  20  11
ENDBRANCH   5  20
ENDBRANCH  16   5
TORSDOF 9
ENDMDL
MODEL 8
REMARK VINA RESULT:       2.0      2.296      6.408
REMARK  Name = 11879542
REMARK  9 active torsions:
REMARK  status: ('A' for Active; 'I' for Inactive)
REMARK    1  A    between atoms: S_1  and  C_19
REMARK    2  A    between atoms: S_1  and  C_21
REMARK    3  A    between atoms: O_5  and  C_16
REMARK    4  A    between atoms: O_5  and  C_20
REMARK    5  A    between atoms: N_7  and  C_15
REMARK    6  A    between atoms: N_11  and  C_20
REMARK    7  A    between atoms: N_11  and  C_22
REMARK    8  A    between atoms: C_21  and  C_23
REMARK    9  A    between atoms: C_27  and  C_32
REMARK                            x       y       z     vdW  Elec       q    Type
REMARK                         _______ _______ _______ _____ _____    ______ ____
ROOT
ATOM      3  O   UNL     1      -3.158   2.016  23.689  0.00  0.00    -0.368 OA
ATOM      4  O   UNL     1      -1.094   3.955  24.926  0.00  0.00    -0.368 OA
ATOM     13  C   UNL     1      -1.065   2.530  24.687  0.00  0.00    +0.177 C 
ATOM     14  C   UNL     1      -2.466   2.014  24.946  0.00  0.00    +0.192 C 
ATOM     15  C   UNL     1      -0.831   2.268  23.212  0.00  0.00    +0.168 C 
ATOM     16  C   UNL     1      -3.031   3.044  25.895  0.00  0.00    +0.232 C 
ATOM     17  C   UNL     1      -2.240   2.328  22.632  0.00  0.00    +0.190 C 
ATOM     18  C   UNL     1      -2.403   4.321  25.386  0.00  0.00    +0.207 C 
ENDROOT
BRANCH  15   7
ATOM      7  N   UNL     1      -0.106   1.018  22.973  0.00  0.00    -0.212 N 
ATOM      8  N   UNL     1      -0.777  -0.103  22.687  0.00  0.00    -0.043 NA
ATOM      9  N   UNL     1       1.418  -0.496  22.718  0.00  0.00    -0.101 NA
ATOM     10  N   UNL     1       0.162  -1.029  22.532  0.00  0.00    -0.022 NA
ATOM     19  C   UNL     1       1.227   0.774  22.989  0.00  0.00    +0.210 A 
BRANCH  19   1
ATOM      1  S   UNL     1       2.421   1.967  23.317  0.00  0.00    -0.077 S 
BRANCH   1  21
ATOM     21  C   UNL     1       3.848   1.317  22.398  0.00  0.00    +0.151 C 
BRANCH  21  23
ATOM      6  O   UNL     1       4.115  -0.925  23.219  0.00  0.00    -0.467 OA
ATOM     23  C   UNL     1       4.616   0.323  23.219  0.00  0.00    +0.115 A 
ATOM     26  C   UNL     1       5.734   0.439  23.973  0.00  0.00    +0.045 A 
ATOM     29  C   UNL     1       5.961  -0.856  24.499  0.00  0.00    +0.041 A 
ATOM     30  C   UNL     1       4.949  -1.649  24.011  0.00  0.00    +0.195 A 
ENDBRANCH  21  23
ENDBRANCH   1  21
ENDBRANCH  19   1
ENDBRANCH  15   7
BRANCH  16   5
ATOM      5  O   UNL     1      -4.438   3.105  25.889  0.00  0.00    -0.466 OA
BRANCH   5  20
ATOM      2  S   UNL     1      -6.687   2.250  24.727  0.00  0.00    +0.006 S 
ATOM     20  C   UNL     1      -5.274   2.047  25.601  0.00  0.00    +0.233 C 
BRANCH  20  11
ATOM     11  N   UNL     1      -4.913   0.794  26.056  0.00  0.00    -0.279 N 
ATOM     33  H   UNL     1      -5.149   0.616  27.030  0.00  0.00    +0.156 HD
BRANCH  11  22
ATOM     22  C   UNL     1      -4.271  -0.288  25.404  0.00  0.00    +0.035 A 
ATOM     24  C   UNL     1      -2.976  -0.619  25.760  0.00  0.00    +0.042 A 
ATOM     25  C   UNL     1      -4.955  -0.986  24.422  0.00  0.00    +0.023 A 
ATOM     27  C   UNL     1      -2.345  -1.684  25.116  0.00  0.00    +0.054 A 
ATOM     28  C   UNL     1      -4.323  -2.050  23.779  0.00  0.00    +0.003 A 
ATOM     31  C   UNL     1      -3.017  -2.399  24.125  0.00  0.00    +0.019 A 
BRANCH  27  32
ATOM     12  N   UNL     1       0.081  -2.331  25.759  0.00  0.00    -0.191 NA
ATOM     32  C   UNL     1      -1.007  -2.041  25.471  0.00  0.00    +0.099 C 
ENDBRANCH  27  32
ENDBRANCH  11  22
ENDBRANCH  20  11
ENDBRANCH   5  20
ENDBRANCH  16   5
TORSDOF 9
ENDMDL
MODEL 9
REMARK VINA RESULT:       2.0      2.494      6.152
REMARK  Name = 11879542
REMARK  9 active torsions:
REMARK  status: ('A' for Active; 'I' for Inactive)
REMARK    1  A    between atoms: S_1  and  C_19
REMARK    2  A    between atoms: S_1  and  C_21
REMARK    3  A    between atoms: O_5  and  C_16
REMARK    4  A    between atoms: O_5  and  C_20
REMARK    5  A    between atoms: N_7  and  C_15
REMARK    6  A    between atoms: N_11  and  C_20
REMARK    7  A    between atoms: N_11  and  C_22
REMARK    8  A    between atoms: C_21  and  C_23
REMARK    9  A    between atoms: C_27  and  C_32
REMARK                            x       y       z     vdW  Elec       q    Type
REMARK                         _______ _______ _______ _____ _____    ______ ____
ROOT
ATOM      3  O   UNL     1      -3.507   1.929  24.219  0.00  0.00    -0.368 OA
ATOM      4  O   UNL     1      -3.207   5.005  24.286  0.00  0.00    -0.368 OA
ATOM     13  C   UNL     1      -2.530   3.948  25.003  0.00  0.00    +0.177 C 
ATOM     14  C   UNL     1      -3.567   2.881  25.292  0.00  0.00    +0.192 C 
ATOM     15  C   UNL     1      -1.533   3.269  24.083  0.00  0.00    +0.168 C 
ATOM     16  C   UNL     1      -4.860   3.661  25.274  0.00  0.00    +0.232 C 
ATOM     17  C   UNL     1      -2.388   2.227  23.370  0.00  0.00    +0.190 C 
ATOM     18  C   UNL     1      -4.600   4.681  24.190  0.00  0.00    +0.207 C 
ENDROOT
BRANCH  15   7
ATOM      7  N   UNL     1      -0.373   2.742  24.805  0.00  0.00    -0.212 N 
ATOM      8  N   UNL     1      -0.092   3.182  26.036  0.00  0.00    -0.043 NA
ATOM      9  N   UNL     1       1.403   1.658  25.395  0.00  0.00    -0.101 NA
ATOM     10  N   UNL     1       0.998   2.514  26.394  0.00  0.00    -0.022 NA
ATOM     19  C   UNL     1       0.538   1.816  24.420  0.00  0.00    +0.210 A 
BRANCH  19   1
ATOM      1  S   UNL     1       0.515   1.015  22.899  0.00  0.00    -0.077 S 
BRANCH   1  21
ATOM     21  C   UNL     1       1.469  -0.489  23.263  0.00  0.00    +0.151 C 
BRANCH  21  23
ATOM      6  O   UNL     1       3.716  -1.202  23.729  0.00  0.00    -0.467 OA
ATOM     23  C   UNL     1       2.944  -0.217  23.233  0.00  0.00    +0.115 A 
ATOM     26  C   UNL     1       3.664   0.843  22.797  0.00  0.00    +0.045 A 
ATOM     29  C   UNL     1       5.015   0.497  23.040  0.00  0.00    +0.041 A 
ATOM     30  C   UNL     1       4.993  -0.755  23.607  0.00  0.00    +0.195 A 
ENDBRANCH  21  23
ENDBRANCH   1  21
ENDBRANCH  19   1
ENDBRANCH  15   7
BRANCH  16   5
ATOM      5  O   UNL     1      -5.992   2.868  24.998  0.00  0.00    -0.466 OA
BRANCH   5  20
ATOM      2  S   UNL     1      -6.736   1.330  27.053  0.00  0.00    +0.006 S 
ATOM     20  C   UNL     1      -6.205   1.598  25.487  0.00  0.00    +0.233 C 
BRANCH  20  11
ATOM     11  N   UNL     1      -5.970   0.530  24.643  0.00  0.00    -0.279 N 
ATOM     33  H   UNL     1      -6.667   0.411  23.910  0.00  0.00    +0.156 HD
BRANCH  11  22
ATOM     22  C   UNL     1      -4.928  -0.430  24.618  0.00  0.00    +0.035 A 
ATOM     24  C   UNL     1      -3.789  -0.210  25.373  0.00  0.00    +0.042 A 
ATOM     25  C   UNL     1      -5.073  -1.564  23.836  0.00  0.00    +0.023 A 
ATOM     27  C   UNL     1      -2.763  -1.155  25.346  0.00  0.00    +0.054 A 
ATOM     28  C   UNL     1      -4.046  -2.508  23.811  0.00  0.00    +0.003 A 
ATOM     31  C   UNL     1      -2.891  -2.303  24.565  0.00  0.00    +0.019 A 
BRANCH  27  32
ATOM     12  N   UNL     1      -0.617  -0.776  26.749  0.00  0.00    -0.191 NA
ATOM     32  C   UNL     1      -1.579  -0.946  26.119  0.00  0.00    +0.099 C 
ENDBRANCH  27  32
ENDBRANCH  11  22
ENDBRANCH  20  11
ENDBRANCH   5  20
ENDBRANCH  16   5
TORSDOF 9
ENDMDL
MODEL 10
REMARK VINA RESULT:       2.0      2.445      5.764
REMARK  Name = 11879542
REMARK  9 active torsions:
REMARK  status: ('A' for Active; 'I' for Inactive)
REMARK    1  A    between atoms: S_1  and  C_19
REMARK    2  A    between atoms: S_1  and  C_21
REMARK    3  A    between atoms: O_5  and  C_16
REMARK    4  A    between atoms: O_5  and  C_20
REMARK    5  A    between atoms: N_7  and  C_15
REMARK    6  A    between atoms: N_11  and  C_20
REMARK    7  A    between atoms: N_11  and  C_22
REMARK    8  A    between atoms: C_21  and  C_23
REMARK    9  A    between atoms: C_27  and  C_32
REMARK                            x       y       z     vdW  Elec       q    Type
REMARK                         _______ _______ _______ _____ _____    ______ ____
ROOT
ATOM      3  O   UNL     1      -2.737   0.104  25.646  0.00  0.00    -0.368 OA
ATOM      4  O   UNL     1      -2.793  -2.305  23.709  0.00  0.00    -0.368 OA
ATOM     13  C   UNL     1      -2.115  -1.030  23.652  0.00  0.00    +0.177 C 
ATOM     14  C   UNL     1      -3.059  -0.006  24.251  0.00  0.00    +0.192 C 
ATOM     15  C   UNL     1      -0.926  -1.045  24.593  0.00  0.00    +0.168 C 
ATOM     16  C   UNL     1      -4.414  -0.637  24.038  0.00  0.00    +0.232 C 
ATOM     17  C   UNL     1      -1.547  -0.646  25.927  0.00  0.00    +0.190 C 
ATOM     18  C   UNL     1      -4.113  -2.105  24.233  0.00  0.00    +0.207 C 
ENDROOT
BRANCH  15   7
ATOM      7  N   UNL     1       0.167  -0.188  24.128  0.00  0.00    -0.212 N 
ATOM      8  N   UNL     1       0.971  -0.601  23.143  0.00  0.00    -0.043 NA
ATOM      9  N   UNL     1       1.577   1.428  23.843  0.00  0.00    -0.101 NA
ATOM     10  N   UNL     1       1.835   0.394  22.971  0.00  0.00    -0.022 NA
ATOM     19  C   UNL     1       0.539   1.046  24.550  0.00  0.00    +0.210 A 
BRANCH  19   1
ATOM      1  S   UNL     1      -0.253   1.915  25.804  0.00  0.00    -0.077 S 
BRANCH   1  21
ATOM     21  C   UNL     1       1.095   2.963  26.429  0.00  0.00    +0.151 C 
BRANCH  21  23
ATOM      6  O   UNL     1       2.600   2.936  28.302  0.00  0.00    -0.467 OA
ATOM     23  C   UNL     1       1.336   2.724  27.891  0.00  0.00    +0.115 A 
ATOM     26  C   UNL     1       0.518   2.329  28.894  0.00  0.00    +0.045 A 
ATOM     29  C   UNL     1       1.339   2.288  30.046  0.00  0.00    +0.041 A 
ATOM     30  C   UNL     1       2.596   2.665  29.633  0.00  0.00    +0.195 A 
ENDBRANCH  21  23
ENDBRANCH   1  21
ENDBRANCH  19   1
ENDBRANCH  15   7
BRANCH  16   5
ATOM      5  O   UNL     1      -5.398  -0.174  24.933  0.00  0.00    -0.466 OA
BRANCH   5  20
ATOM      2  S   UNL     1      -6.620   1.592  26.524  0.00  0.00    +0.006 S 
ATOM     20  C   UNL     1      -5.599   1.147  25.274  0.00  0.00    +0.233 C 
BRANCH  20  11
ATOM     11  N   UNL     1      -4.925   2.112  24.551  0.00  0.00    -0.279 N 
ATOM     33  H   UNL     1      -5.120   2.101  23.552  0.00  0.00    +0.156 HD
BRANCH  11  22
ATOM     22  C   UNL     1      -4.009   3.114  24.957  0.00  0.00    +0.035 A 
ATOM     24  C   UNL     1      -2.884   3.352  24.189  0.00  0.00    +0.042 A 
ATOM     25  C   UNL     1      -4.262   3.831  26.114  0.00  0.00    +0.023 A 
ATOM     27  C   UNL     1      -1.982   4.338  24.590  0.00  0.00    +0.054 A 
ATOM     28  C   UNL     1      -3.360   4.817  26.515  0.00  0.00    +0.003 A 
ATOM     31  C   UNL     1      -2.219   5.070  25.753  0.00  0.00    +0.019 A 
BRANCH  27  32
ATOM     12  N   UNL     1       0.137   4.809  23.174  0.00  0.00    -0.191 NA
ATOM     32  C   UNL     1      -0.813   4.597  23.809  0.00  0.00    +0.099 C 
ENDBRANCH  27  32
ENDBRANCH  11  22
ENDBRANCH  20  11
ENDBRANCH   5  20
ENDBRANCH  16   5
TORSDOF 9
ENDMDL
