MODEL 1
REMARK VINA RESULT:      14.4      0.000      0.000
REMARK  Name = 7050334
REMARK  7 active torsions:
REMARK  status: ('A' for Active; 'I' for Inactive)
REMARK    1  A    between atoms: S_2  and  C_30
REMARK    2  A    between atoms: S_2  and  C_32
REMARK    3  A    between atoms: O_7  and  C_25
REMARK    4  A    between atoms: O_7  and  C_31
REMARK    5  A    between atoms: N_9  and  C_18
REMARK    6  A    between atoms: N_10  and  C_12
REMARK    7  A    between atoms: C_19  and  C_22
REMARK                            x       y       z     vdW  Elec       q    Type
REMARK                         _______ _______ _______ _____ _____    ______ ____
ROOT
ATOM      4  O   UNL     1      -1.296   2.775  23.364  0.00  0.00    -0.273 OA
ATOM      5  O   UNL     1      -3.033  -0.257  26.422  0.00  0.00    -0.252 OA
ATOM      8  N   UNL     1      -1.080  -0.158  25.174  0.00  0.00    -0.273 N 
ATOM      9  N   UNL     1      -2.514   1.552  24.984  0.00  0.00    -0.193 N 
ATOM     11  C   UNL     1      -0.448   0.695  24.203  0.00  0.00    +0.166 C 
ATOM     12  C   UNL     1       0.446  -1.407  23.100  0.00  0.00    +0.077 C 
ATOM     13  C   UNL     1      -0.235  -0.043  22.886  0.00  0.00    +0.054 C 
ATOM     14  C   UNL     1      -0.281  -2.236  24.174  0.00  0.00    +0.041 C 
ATOM     15  C   UNL     1      -0.492  -1.451  25.471  0.00  0.00    +0.112 C 
ATOM     16  C   UNL     1      -1.469   1.814  24.104  0.00  0.00    +0.248 C 
ATOM     17  C   UNL     1      -2.301   0.334  25.637  0.00  0.00    +0.316 C 
ENDROOT
BRANCH   9  18
ATOM      1 CL   UNL     1      -7.606   2.203  24.568  0.00  0.00    -0.081 Cl
ATOM      3  F   UNL     1      -6.941   4.838  25.753  0.00  0.00    -0.204 F 
ATOM     18  C   UNL     1      -3.655   2.394  25.179  0.00  0.00    +0.047 A 
ATOM     20  C   UNL     1      -4.929   1.945  24.821  0.00  0.00    +0.047 A 
ATOM     21  C   UNL     1      -3.501   3.669  25.731  0.00  0.00    +0.027 A 
ATOM     23  C   UNL     1      -6.041   2.765  25.012  0.00  0.00    +0.078 A 
ATOM     24  C   UNL     1      -4.613   4.489  25.922  0.00  0.00    +0.041 A 
ATOM     27  C   UNL     1      -5.883   4.037  25.562  0.00  0.00    +0.142 A 
ENDBRANCH   9  18
BRANCH  12  10
ATOM      6  O   UNL     1       2.411  -0.258  21.436  0.00  0.00    -0.270 OA
ATOM     10  N   UNL     1       1.844  -1.248  23.430  0.00  0.00    -0.308 N 
ATOM     19  C   UNL     1       2.752  -0.668  22.547  0.00  0.00    +0.248 C 
ATOM     33  H   UNL     1       2.171  -1.667  24.294  0.00  0.00    +0.149 HD
BRANCH  19  22
ATOM     22  C   UNL     1       4.132  -0.546  23.038  0.00  0.00    +0.078 A 
ATOM     25  C   UNL     1       4.782   0.679  23.012  0.00  0.00    +0.133 A 
ATOM     26  C   UNL     1       4.766  -1.681  23.526  0.00  0.00    +0.018 A 
ATOM     28  C   UNL     1       6.092   0.773  23.482  0.00  0.00    +0.061 A 
ATOM     29  C   UNL     1       6.076  -1.588  23.995  0.00  0.00    +0.015 A 
ATOM     30  C   UNL     1       6.738  -0.361  23.974  0.00  0.00    +0.011 A 
BRANCH  30   2
ATOM      2  S   UNL     1       8.412  -0.242  24.575  0.00  0.00    -0.128 S 
ATOM     32  C   UNL     1       9.337   0.046  23.039  0.00  0.00    +0.090 C 
ENDBRANCH  30   2
BRANCH  25   7
ATOM      7  O   UNL     1       4.167   1.798  22.536  0.00  0.00    -0.494 OA
ATOM     31  C   UNL     1       2.878   2.104  23.065  0.00  0.00    +0.277 C 
ENDBRANCH  25   7
ENDBRANCH  19  22
ENDBRANCH  12  10
TORSDOF 5
ENDMDL
MODEL 2
REMARK VINA RESULT:      16.4      0.827      1.532
REMARK  Name = 7050334
REMARK  7 active torsions:
REMARK  status: ('A' for Active; 'I' for Inactive)
REMARK    1  A    between atoms: S_2  and  C_30
REMARK    2  A    between atoms: S_2  and  C_32
REMARK    3  A    between atoms: O_7  and  C_25
REMARK    4  A    between atoms: O_7  and  C_31
REMARK    5  A    between atoms: N_9  and  C_18
REMARK    6  A    between atoms: N_10  and  C_12
REMARK    7  A    between atoms: C_19  and  C_22
REMARK                            x       y       z     vdW  Elec       q    Type
REMARK                         _______ _______ _______ _____ _____    ______ ____
ROOT
ATOM      4  O   UNL     1      -1.093   3.056  23.436  0.00  0.00    -0.273 OA
ATOM      5  O   UNL     1      -2.807  -0.258  26.200  0.00  0.00    -0.252 OA
ATOM      8  N   UNL     1      -0.835  -0.010  25.004  0.00  0.00    -0.273 N 
ATOM      9  N   UNL     1      -2.309   1.675  24.925  0.00  0.00    -0.193 N 
ATOM     11  C   UNL     1      -0.208   0.935  24.119  0.00  0.00    +0.166 C 
ATOM     12  C   UNL     1       0.760  -1.048  22.867  0.00  0.00    +0.077 C 
ATOM     13  C   UNL     1       0.048   0.313  22.751  0.00  0.00    +0.054 C 
ATOM     14  C   UNL     1       0.035  -1.979  23.854  0.00  0.00    +0.041 C 
ATOM     15  C   UNL     1      -0.220  -1.309  25.206  0.00  0.00    +0.112 C 
ATOM     16  C   UNL     1      -1.256   2.033  24.091  0.00  0.00    +0.248 C 
ATOM     17  C   UNL     1      -2.077   0.413  25.481  0.00  0.00    +0.316 C 
ENDROOT
BRANCH   9  18
ATOM      1 CL   UNL     1      -7.433   2.133  24.675  0.00  0.00    -0.081 Cl
ATOM      3  F   UNL     1      -6.832   4.780  25.869  0.00  0.00    -0.204 F 
ATOM     18  C   UNL     1      -3.475   2.470  25.165  0.00  0.00    +0.047 A 
ATOM     20  C   UNL     1      -4.741   1.976  24.842  0.00  0.00    +0.047 A 
ATOM     21  C   UNL     1      -3.352   3.745  25.726  0.00  0.00    +0.027 A 
ATOM     23  C   UNL     1      -5.877   2.751  25.077  0.00  0.00    +0.078 A 
ATOM     24  C   UNL     1      -4.488   4.519  25.961  0.00  0.00    +0.041 A 
ATOM     27  C   UNL     1      -5.751   4.023  25.636  0.00  0.00    +0.142 A 
ENDBRANCH   9  18
BRANCH  12  10
ATOM      6  O   UNL     1       2.706   0.350  21.380  0.00  0.00    -0.270 OA
ATOM     10  N   UNL     1       2.147  -0.882  23.236  0.00  0.00    -0.308 N 
ATOM     19  C   UNL     1       3.046  -0.174  22.443  0.00  0.00    +0.248 C 
ATOM     33  H   UNL     1       2.477  -1.388  24.052  0.00  0.00    +0.149 HD
BRANCH  19  22
ATOM     22  C   UNL     1       4.414  -0.066  22.968  0.00  0.00    +0.078 A 
ATOM     25  C   UNL     1       5.074  -1.188  23.447  0.00  0.00    +0.133 A 
ATOM     26  C   UNL     1       5.028   1.180  22.974  0.00  0.00    +0.018 A 
ATOM     28  C   UNL     1       6.373  -1.063  23.943  0.00  0.00    +0.061 A 
ATOM     29  C   UNL     1       6.325   1.305  23.470  0.00  0.00    +0.015 A 
ATOM     30  C   UNL     1       6.997   0.183  23.954  0.00  0.00    +0.011 A 
BRANCH  30   2
ATOM      2  S   UNL     1       8.656   0.343  24.586  0.00  0.00    -0.128 S 
ATOM     32  C   UNL     1       9.650   0.051  23.095  0.00  0.00    +0.090 C 
ENDBRANCH  30   2
BRANCH  25   7
ATOM      7  O   UNL     1       4.480  -2.415  23.445  0.00  0.00    -0.494 OA
ATOM     31  C   UNL     1       3.822  -2.817  24.645  0.00  0.00    +0.277 C 
ENDBRANCH  25   7
ENDBRANCH  19  22
ENDBRANCH  12  10
TORSDOF 5
ENDMDL
