MODEL 1
REMARK VINA RESULT:       7.4      0.000      0.000
REMARK  Name = 11879850
REMARK  8 active torsions:
REMARK  status: ('A' for Active; 'I' for Inactive)
REMARK    1  A    between atoms: S_1  and  N_11
REMARK    2  A    between atoms: S_1  and  C_30
REMARK    3  A    between atoms: O_6  and  C_34
REMARK    4  A    between atoms: N_11  and  C_23
REMARK    5  A    between atoms: N_12  and  C_37
REMARK    6  A    between atoms: C_22  and  C_25
REMARK    7  A    between atoms: C_28  and  C_34
REMARK    8  A    between atoms: C_38  and  C_39
REMARK                            x       y       z     vdW  Elec       q    Type
REMARK                         _______ _______ _______ _____ _____    ______ ____
ROOT
ATOM      2  O   UNL     1      -5.837  -6.945   9.712  0.00  0.00    -0.266 OA
ATOM      3  O   UNL     1     -10.085  -6.948  12.678  0.00  0.00    -0.270 OA
ATOM      9  N   UNL     1     -10.284  -8.711  11.153  0.00  0.00    -0.297 N 
ATOM     10  N   UNL     1      -7.516  -8.576   9.611  0.00  0.00    -0.310 N 
ATOM     13  C   UNL     1      -9.887  -8.089   8.776  0.00  0.00    +0.027 C 
ATOM     14  C   UNL     1      -9.307 -10.349   9.564  0.00  0.00    +0.054 C 
ATOM     15  C   UNL     1      -9.904  -9.566   8.395  0.00  0.00    +0.018 C 
ATOM     16  C   UNL     1     -10.719  -7.854  10.050  0.00  0.00    +0.113 C 
ATOM     17  C   UNL     1      -8.431  -7.639   8.946  0.00  0.00    +0.130 C 
ATOM     18  C   UNL     1     -10.173 -10.141  10.822  0.00  0.00    +0.117 C 
ATOM     19  C   UNL     1      -7.882  -9.908   9.846  0.00  0.00    +0.027 A 
ATOM     20  C   UNL     1      -6.992 -10.781  10.352  0.00  0.00    +0.024 A 
ATOM     21  C   UNL     1      -6.223  -8.096   9.909  0.00  0.00    +0.274 A 
ATOM     22  C   UNL     1      -9.995  -8.140  12.395  0.00  0.00    +0.247 C 
ATOM     23  C   UNL     1      -5.295  -9.099  10.488  0.00  0.00    +0.112 A 
ATOM     24  C   UNL     1      -5.656 -10.366  10.686  0.00  0.00    +0.031 A 
ENDROOT
BRANCH  22  25
ATOM     25  C   UNL     1      -9.519  -9.025  13.463  0.00  0.00    +0.038 A 
ATOM     26  C   UNL     1      -8.151  -9.152  13.699  0.00  0.00    +0.028 A 
ATOM     27  C   UNL     1     -10.434  -9.736  14.234  0.00  0.00    +0.013 A 
ATOM     28  C   UNL     1      -7.698  -9.995  14.713  0.00  0.00    +0.060 A 
ATOM     29  C   UNL     1      -9.981 -10.579  15.248  0.00  0.00    +0.002 A 
ATOM     31  C   UNL     1      -8.612 -10.708  15.488  0.00  0.00    +0.015 A 
BRANCH  28  34
ATOM      7  O   UNL     1      -5.767 -10.636  15.971  0.00  0.00    -0.245 OA
ATOM     34  C   UNL     1      -6.272 -10.128  14.965  0.00  0.00    +0.337 C 
BRANCH  34   6
ATOM      6  O   UNL     1      -5.515  -9.621  13.952  0.00  0.00    -0.477 OA
ATOM     41  H   UNL     1      -6.009  -8.957  13.425  0.00  0.00    +0.295 HD
ENDBRANCH  34   6
ENDBRANCH  28  34
ENDBRANCH  22  25
BRANCH  23  11
ATOM     11  N   UNL     1      -3.984  -8.731  10.838  0.00  0.00    -0.211 N 
ATOM     40  H   UNL     1      -3.585  -8.022  10.205  0.00  0.00    +0.174 HD
BRANCH  11   1
ATOM      1  S   UNL     1      -2.919  -9.978  11.259  0.00  0.00    +0.072 S 
ATOM      4  O   UNL     1      -3.369 -10.611  12.484  0.00  0.00    -0.150 OA
ATOM      5  O   UNL     1      -2.623 -10.781  10.088  0.00  0.00    -0.150 OA
BRANCH   1  30
ATOM     30  C   UNL     1      -1.464  -9.052  11.647  0.00  0.00    +0.109 A 
ATOM     32  C   UNL     1      -0.506  -8.858  10.668  0.00  0.00    +0.030 A 
ATOM     33  C   UNL     1      -1.311  -8.539  12.923  0.00  0.00    +0.030 A 
ATOM     35  C   UNL     1       0.642  -8.127  10.974  0.00  0.00    +0.025 A 
ATOM     36  C   UNL     1      -0.163  -7.808  13.230  0.00  0.00    +0.025 A 
ATOM     37  C   UNL     1       0.814  -7.602  12.255  0.00  0.00    +0.033 A 
BRANCH  37  12
ATOM      8  O   UNL     1       3.642  -7.900  11.267  0.00  0.00    -0.276 OA
ATOM     12  N   UNL     1       1.962  -6.871  12.562  0.00  0.00    -0.286 N 
ATOM     38  C   UNL     1       3.262  -7.056  12.071  0.00  0.00    +0.214 C 
ATOM     39  C   UNL     1       4.226  -6.053  12.652  0.00  0.00    +0.109 C 
ATOM     42  H   UNL     1       1.829  -6.112  13.227  0.00  0.00    +0.155 HD
ENDBRANCH  37  12
ENDBRANCH   1  30
ENDBRANCH  11   1
ENDBRANCH  23  11
TORSDOF 7
ENDMDL
MODEL 2
REMARK VINA RESULT:       7.8     15.542     17.882
REMARK  Name = 11879850
REMARK  8 active torsions:
REMARK  status: ('A' for Active; 'I' for Inactive)
REMARK    1  A    between atoms: S_1  and  N_11
REMARK    2  A    between atoms: S_1  and  C_30
REMARK    3  A    between atoms: O_6  and  C_34
REMARK    4  A    between atoms: N_11  and  C_23
REMARK    5  A    between atoms: N_12  and  C_37
REMARK    6  A    between atoms: C_22  and  C_25
REMARK    7  A    between atoms: C_28  and  C_34
REMARK    8  A    between atoms: C_38  and  C_39
REMARK                            x       y       z     vdW  Elec       q    Type
REMARK                         _______ _______ _______ _____ _____    ______ ____
ROOT
ATOM      2  O   UNL     1      -3.831   0.798  22.106  0.00  0.00    -0.266 OA
ATOM      3  O   UNL     1       0.048   3.609  24.079  0.00  0.00    -0.270 OA
ATOM      9  N   UNL     1      -1.923   4.267  25.155  0.00  0.00    -0.297 N 
ATOM     10  N   UNL     1      -4.063   2.295  23.893  0.00  0.00    -0.310 N 
ATOM     13  C   UNL     1      -3.809   4.830  23.632  0.00  0.00    +0.027 C 
ATOM     14  C   UNL     1      -4.272   3.869  25.851  0.00  0.00    +0.054 C 
ATOM     15  C   UNL     1      -4.746   4.905  24.833  0.00  0.00    +0.018 C 
ATOM     16  C   UNL     1      -2.361   5.133  24.061  0.00  0.00    +0.113 C 
ATOM     17  C   UNL     1      -3.942   3.446  22.986  0.00  0.00    +0.130 C 
ATOM     18  C   UNL     1      -2.839   4.207  26.305  0.00  0.00    +0.117 C 
ATOM     19  C   UNL     1      -4.304   2.470  25.262  0.00  0.00    +0.027 A 
ATOM     20  C   UNL     1      -4.525   1.407  26.057  0.00  0.00    +0.024 A 
ATOM     21  C   UNL     1      -4.023   1.015  23.302  0.00  0.00    +0.274 A 
ATOM     22  C   UNL     1      -0.721   3.564  25.036  0.00  0.00    +0.247 C 
ATOM     23  C   UNL     1      -4.249  -0.118  24.233  0.00  0.00    +0.112 A 
ATOM     24  C   UNL     1      -4.496   0.070  25.529  0.00  0.00    +0.031 A 
ENDROOT
BRANCH  22  25
ATOM     25  C   UNL     1      -0.337   2.671  26.134  0.00  0.00    +0.038 A 
ATOM     26  C   UNL     1       0.660   3.059  27.027  0.00  0.00    +0.028 A 
ATOM     27  C   UNL     1      -0.968   1.438  26.278  0.00  0.00    +0.013 A 
ATOM     28  C   UNL     1       1.027   2.208  28.070  0.00  0.00    +0.060 A 
ATOM     29  C   UNL     1      -0.601   0.588  27.320  0.00  0.00    +0.002 A 
ATOM     31  C   UNL     1       0.396   0.973  28.217  0.00  0.00    +0.015 A 
BRANCH  28  34
ATOM      7  O   UNL     1       2.924   3.472  28.794  0.00  0.00    -0.245 OA
ATOM     34  C   UNL     1       2.065   2.611  29.005  0.00  0.00    +0.337 C 
BRANCH  34   6
ATOM      6  O   UNL     1       2.001   1.924  30.180  0.00  0.00    -0.477 OA
ATOM     41  H   UNL     1       2.447   1.053  30.118  0.00  0.00    +0.295 HD
ENDBRANCH  34   6
ENDBRANCH  28  34
ENDBRANCH  22  25
BRANCH  23  11
ATOM     11  N   UNL     1      -4.217  -1.441  23.758  0.00  0.00    -0.211 N 
ATOM     40  H   UNL     1      -5.157  -1.821  23.571  0.00  0.00    +0.174 HD
BRANCH  11   1
ATOM      1  S   UNL     1      -3.165  -2.514  24.537  0.00  0.00    +0.072 S 
ATOM      4  O   UNL     1      -3.412  -2.490  25.965  0.00  0.00    -0.150 OA
ATOM      5  O   UNL     1      -3.138  -3.776  23.821  0.00  0.00    -0.150 OA
BRANCH   1  30
ATOM     30  C   UNL     1      -1.613  -1.715  24.255  0.00  0.00    +0.109 A 
ATOM     32  C   UNL     1      -1.548  -0.661  23.361  0.00  0.00    +0.030 A 
ATOM     33  C   UNL     1      -0.492  -2.159  24.935  0.00  0.00    +0.030 A 
ATOM     35  C   UNL     1      -0.324  -0.030  23.139  0.00  0.00    +0.025 A 
ATOM     36  C   UNL     1       0.732  -1.528  24.713  0.00  0.00    +0.025 A 
ATOM     37  C   UNL     1       0.816  -0.464  23.815  0.00  0.00    +0.033 A 
BRANCH  37  12
ATOM      8  O   UNL     1       2.440  -0.180  21.296  0.00  0.00    -0.276 OA
ATOM     12  N   UNL     1       2.041   0.167  23.593  0.00  0.00    -0.286 N 
ATOM     38  C   UNL     1       2.757   0.267  22.393  0.00  0.00    +0.214 C 
ATOM     39  C   UNL     1       4.044   1.033  22.573  0.00  0.00    +0.109 C 
ATOM     42  H   UNL     1       2.459   0.605  24.412  0.00  0.00    +0.155 HD
ENDBRANCH  37  12
ENDBRANCH   1  30
ENDBRANCH  11   1
ENDBRANCH  23  11
TORSDOF 7
ENDMDL
MODEL 3
REMARK VINA RESULT:       9.9      1.643      2.101
REMARK  Name = 11879850
REMARK  8 active torsions:
REMARK  status: ('A' for Active; 'I' for Inactive)
REMARK    1  A    between atoms: S_1  and  N_11
REMARK    2  A    between atoms: S_1  and  C_30
REMARK    3  A    between atoms: O_6  and  C_34
REMARK    4  A    between atoms: N_11  and  C_23
REMARK    5  A    between atoms: N_12  and  C_37
REMARK    6  A    between atoms: C_22  and  C_25
REMARK    7  A    between atoms: C_28  and  C_34
REMARK    8  A    between atoms: C_38  and  C_39
REMARK                            x       y       z     vdW  Elec       q    Type
REMARK                         _______ _______ _______ _____ _____    ______ ____
ROOT
ATOM      2  O   UNL     1      -5.999  -7.120  11.044  0.00  0.00    -0.266 OA
ATOM      3  O   UNL     1      -9.489  -6.530  14.827  0.00  0.00    -0.270 OA
ATOM      9  N   UNL     1     -10.067  -8.451  13.624  0.00  0.00    -0.297 N 
ATOM     10  N   UNL     1      -7.702  -8.657  11.519  0.00  0.00    -0.310 N 
ATOM     13  C   UNL     1     -10.185  -8.145  11.157  0.00  0.00    +0.027 C 
ATOM     14  C   UNL     1      -9.508 -10.321  12.089  0.00  0.00    +0.054 C 
ATOM     15  C   UNL     1     -10.326  -9.654  10.984  0.00  0.00    +0.018 C 
ATOM     16  C   UNL     1     -10.710  -7.712  12.538  0.00  0.00    +0.113 C 
ATOM     17  C   UNL     1      -8.716  -7.758  10.950  0.00  0.00    +0.130 C 
ATOM     18  C   UNL     1     -10.070  -9.915  13.465  0.00  0.00    +0.117 C 
ATOM     19  C   UNL     1      -8.044  -9.929  11.999  0.00  0.00    +0.027 A 
ATOM     20  C   UNL     1      -7.089 -10.781  12.411  0.00  0.00    +0.024 A 
ATOM     21  C   UNL     1      -6.363  -8.216  11.467  0.00  0.00    +0.274 A 
ATOM     22  C   UNL     1      -9.496  -7.751  14.689  0.00  0.00    +0.247 C 
ATOM     23  C   UNL     1      -5.358  -9.191  11.959  0.00  0.00    +0.112 A 
ATOM     24  C   UNL     1      -5.702 -10.403  12.393  0.00  0.00    +0.031 A 
ENDROOT
BRANCH  22  25
ATOM     25  C   UNL     1      -8.820  -8.525  15.736  0.00  0.00    +0.038 A 
ATOM     26  C   UNL     1      -7.468  -8.834  15.606  0.00  0.00    +0.028 A 
ATOM     27  C   UNL     1      -9.533  -8.949  16.854  0.00  0.00    +0.013 A 
ATOM     28  C   UNL     1      -6.826  -9.571  16.600  0.00  0.00    +0.060 A 
ATOM     29  C   UNL     1      -8.891  -9.687  17.848  0.00  0.00    +0.002 A 
ATOM     31  C   UNL     1      -7.537  -9.998  17.721  0.00  0.00    +0.015 A 
BRANCH  28  34
ATOM      7  O   UNL     1      -4.658 -10.192  17.399  0.00  0.00    -0.245 OA
ATOM     34  C   UNL     1      -5.414  -9.894  16.469  0.00  0.00    +0.337 C 
BRANCH  34   6
ATOM      6  O   UNL     1      -4.984  -9.834  15.177  0.00  0.00    -0.477 OA
ATOM     41  H   UNL     1      -5.666 -10.160  14.551  0.00  0.00    +0.295 HD
ENDBRANCH  34   6
ENDBRANCH  28  34
ENDBRANCH  22  25
BRANCH  23  11
ATOM     11  N   UNL     1      -3.992  -8.855  11.968  0.00  0.00    -0.211 N 
ATOM     40  H   UNL     1      -3.819  -7.894  12.296  0.00  0.00    +0.174 HD
BRANCH  11   1
ATOM      1  S   UNL     1      -3.077  -9.316  10.621  0.00  0.00    +0.072 S 
ATOM      4  O   UNL     1      -3.014 -10.763  10.545  0.00  0.00    -0.150 OA
ATOM      5  O   UNL     1      -3.487  -8.542   9.465  0.00  0.00    -0.150 OA
BRANCH   1  30
ATOM     30  C   UNL     1      -1.474  -8.742  11.100  0.00  0.00    +0.109 A 
ATOM     32  C   UNL     1      -1.314  -8.142  12.336  0.00  0.00    +0.030 A 
ATOM     33  C   UNL     1      -0.412  -8.904  10.229  0.00  0.00    +0.030 A 
ATOM     35  C   UNL     1      -0.051  -7.689  12.715  0.00  0.00    +0.025 A 
ATOM     36  C   UNL     1       0.853  -8.451  10.607  0.00  0.00    +0.025 A 
ATOM     37  C   UNL     1       1.033  -7.844  11.850  0.00  0.00    +0.033 A 
BRANCH  37  12
ATOM      8  O   UNL     1       2.114  -5.044  12.095  0.00  0.00    -0.276 OA
ATOM     12  N   UNL     1       2.298  -7.391  12.228  0.00  0.00    -0.286 N 
ATOM     38  C   UNL     1       2.749  -6.067  12.323  0.00  0.00    +0.214 C 
ATOM     39  C   UNL     1       4.189  -5.999  12.768  0.00  0.00    +0.109 C 
ATOM     42  H   UNL     1       2.969  -8.120  12.461  0.00  0.00    +0.155 HD
ENDBRANCH  37  12
ENDBRANCH   1  30
ENDBRANCH  11   1
ENDBRANCH  23  11
TORSDOF 7
ENDMDL
MODEL 4
REMARK VINA RESULT:      10.7     15.276     18.010
REMARK  Name = 11879850
REMARK  8 active torsions:
REMARK  status: ('A' for Active; 'I' for Inactive)
REMARK    1  A    between atoms: S_1  and  N_11
REMARK    2  A    between atoms: S_1  and  C_30
REMARK    3  A    between atoms: O_6  and  C_34
REMARK    4  A    between atoms: N_11  and  C_23
REMARK    5  A    between atoms: N_12  and  C_37
REMARK    6  A    between atoms: C_22  and  C_25
REMARK    7  A    between atoms: C_28  and  C_34
REMARK    8  A    between atoms: C_38  and  C_39
REMARK                            x       y       z     vdW  Elec       q    Type
REMARK                         _______ _______ _______ _____ _____    ______ ____
ROOT
ATOM      2  O   UNL     1      -4.085   2.030  26.011  0.00  0.00    -0.266 OA
ATOM      3  O   UNL     1      -0.124  -1.279  26.455  0.00  0.00    -0.270 OA
ATOM      9  N   UNL     1      -1.581  -2.132  24.835  0.00  0.00    -0.297 N 
ATOM     10  N   UNL     1      -3.782   0.145  24.654  0.00  0.00    -0.310 N 
ATOM     13  C   UNL     1      -3.967  -2.253  25.533  0.00  0.00    +0.027 C 
ATOM     14  C   UNL     1      -3.401  -1.857  23.170  0.00  0.00    +0.054 C 
ATOM     15  C   UNL     1      -4.360  -2.598  24.101  0.00  0.00    +0.018 C 
ATOM     16  C   UNL     1      -2.517  -2.690  25.811  0.00  0.00    +0.113 C 
ATOM     17  C   UNL     1      -4.170  -0.749  25.754  0.00  0.00    +0.130 C 
ATOM     18  C   UNL     1      -1.959  -2.334  23.427  0.00  0.00    +0.117 C 
ATOM     19  C   UNL     1      -3.488  -0.356  23.378  0.00  0.00    +0.027 A 
ATOM     20  C   UNL     1      -3.246   0.484  22.355  0.00  0.00    +0.024 A 
ATOM     21  C   UNL     1      -3.819   1.530  24.919  0.00  0.00    +0.274 A 
ATOM     22  C   UNL     1      -0.445  -1.453  25.282  0.00  0.00    +0.247 C 
ATOM     23  C   UNL     1      -3.519   2.404  23.758  0.00  0.00    +0.112 A 
ATOM     24  C   UNL     1      -3.261   1.909  22.548  0.00  0.00    +0.031 A 
ENDROOT
BRANCH  22  25
ATOM     25  C   UNL     1       0.446  -0.868  24.274  0.00  0.00    +0.038 A 
ATOM     26  C   UNL     1       1.820  -1.084  24.354  0.00  0.00    +0.028 A 
ATOM     27  C   UNL     1      -0.085  -0.097  23.243  0.00  0.00    +0.013 A 
ATOM     28  C   UNL     1       2.667  -0.526  23.397  0.00  0.00    +0.060 A 
ATOM     29  C   UNL     1       0.762   0.461  22.287  0.00  0.00    +0.002 A 
ATOM     31  C   UNL     1       2.139   0.246  22.363  0.00  0.00    +0.015 A 
BRANCH  28  34
ATOM      7  O   UNL     1       4.970  -0.003  23.018  0.00  0.00    -0.245 OA
ATOM     34  C   UNL     1       4.102  -0.752  23.476  0.00  0.00    +0.337 C 
BRANCH  34   6
ATOM      6  O   UNL     1       4.411  -1.909  24.124  0.00  0.00    -0.477 OA
ATOM     41  H   UNL     1       3.871  -2.029  24.935  0.00  0.00    +0.295 HD
ENDBRANCH  34   6
ENDBRANCH  28  34
ENDBRANCH  22  25
BRANCH  23  11
ATOM     11  N   UNL     1      -3.513   3.802  23.908  0.00  0.00    -0.211 N 
ATOM     40  H   UNL     1      -4.255   4.266  23.364  0.00  0.00    +0.174 HD
BRANCH  11   1
ATOM      1  S   UNL     1      -2.008   4.576  23.849  0.00  0.00    +0.072 S 
ATOM      4  O   UNL     1      -1.288   4.154  22.663  0.00  0.00    -0.150 OA
ATOM      5  O   UNL     1      -2.174   5.987  24.139  0.00  0.00    -0.150 OA
BRANCH   1  30
ATOM     30  C   UNL     1      -1.206   3.841  25.244  0.00  0.00    +0.109 A 
ATOM     32  C   UNL     1      -1.772   3.980  26.499  0.00  0.00    +0.030 A 
ATOM     33  C   UNL     1      -0.027   3.142  25.053  0.00  0.00    +0.030 A 
ATOM     35  C   UNL     1      -1.140   3.401  27.598  0.00  0.00    +0.025 A 
ATOM     36  C   UNL     1       0.606   2.563  26.153  0.00  0.00    +0.025 A 
ATOM     37  C   UNL     1       0.050   2.692  27.426  0.00  0.00    +0.033 A 
BRANCH  37  12
ATOM      8  O   UNL     1       2.679   3.348  28.737  0.00  0.00    -0.276 OA
ATOM     12  N   UNL     1       0.683   2.112  28.526  0.00  0.00    -0.286 N 
ATOM     38  C   UNL     1       1.915   2.459  29.096  0.00  0.00    +0.214 C 
ATOM     39  C   UNL     1       2.248   1.585  30.279  0.00  0.00    +0.109 C 
ATOM     42  H   UNL     1       0.179   1.342  28.961  0.00  0.00    +0.155 HD
ENDBRANCH  37  12
ENDBRANCH   1  30
ENDBRANCH  11   1
ENDBRANCH  23  11
TORSDOF 7
ENDMDL
MODEL 5
REMARK VINA RESULT:      10.9     14.316     16.569
REMARK  Name = 11879850
REMARK  8 active torsions:
REMARK  status: ('A' for Active; 'I' for Inactive)
REMARK    1  A    between atoms: S_1  and  N_11
REMARK    2  A    between atoms: S_1  and  C_30
REMARK    3  A    between atoms: O_6  and  C_34
REMARK    4  A    between atoms: N_11  and  C_23
REMARK    5  A    between atoms: N_12  and  C_37
REMARK    6  A    between atoms: C_22  and  C_25
REMARK    7  A    between atoms: C_28  and  C_34
REMARK    8  A    between atoms: C_38  and  C_39
REMARK                            x       y       z     vdW  Elec       q    Type
REMARK                         _______ _______ _______ _____ _____    ______ ____
ROOT
ATOM      2  O   UNL     1      -0.208   2.883  25.991  0.00  0.00    -0.266 OA
ATOM      3  O   UNL     1      -4.581   0.326  27.074  0.00  0.00    -0.270 OA
ATOM      9  N   UNL     1      -5.012   1.723  25.248  0.00  0.00    -0.297 N 
ATOM     10  N   UNL     1      -2.164   3.012  24.708  0.00  0.00    -0.310 N 
ATOM     13  C   UNL     1      -4.323   4.094  25.560  0.00  0.00    +0.027 C 
ATOM     14  C   UNL     1      -4.263   3.087  23.314  0.00  0.00    +0.054 C 
ATOM     15  C   UNL     1      -4.604   4.362  24.085  0.00  0.00    +0.018 C 
ATOM     16  C   UNL     1      -5.185   2.923  26.066  0.00  0.00    +0.113 C 
ATOM     17  C   UNL     1      -2.824   3.828  25.738  0.00  0.00    +0.130 C 
ATOM     18  C   UNL     1      -5.161   1.933  23.799  0.00  0.00    +0.117 C 
ATOM     19  C   UNL     1      -2.804   2.711  23.498  0.00  0.00    +0.027 A 
ATOM     20  C   UNL     1      -2.144   2.060  22.522  0.00  0.00    +0.024 A 
ATOM     21  C   UNL     1      -0.828   2.635  24.958  0.00  0.00    +0.274 A 
ATOM     22  C   UNL     1      -4.708   0.507  25.865  0.00  0.00    +0.247 C 
ATOM     23  C   UNL     1      -0.162   1.900  23.854  0.00  0.00    +0.112 A 
ATOM     24  C   UNL     1      -0.782   1.640  22.703  0.00  0.00    +0.031 A 
ENDROOT
BRANCH  22  25
ATOM     25  C   UNL     1      -4.497  -0.664  25.008  0.00  0.00    +0.038 A 
ATOM     26  C   UNL     1      -3.244  -1.271  24.961  0.00  0.00    +0.028 A 
ATOM     27  C   UNL     1      -5.549  -1.162  24.244  0.00  0.00    +0.013 A 
ATOM     28  C   UNL     1      -3.043  -2.384  24.145  0.00  0.00    +0.060 A 
ATOM     29  C   UNL     1      -5.347  -2.274  23.428  0.00  0.00    +0.002 A 
ATOM     31  C   UNL     1      -4.094  -2.886  23.378  0.00  0.00    +0.015 A 
BRANCH  28  34
ATOM      7  O   UNL     1      -1.334  -3.757  23.188  0.00  0.00    -0.245 OA
ATOM     34  C   UNL     1      -1.737  -3.022  24.094  0.00  0.00    +0.337 C 
BRANCH  34   6
ATOM      6  O   UNL     1      -0.970  -2.723  25.179  0.00  0.00    -0.477 OA
ATOM     41  H   UNL     1      -0.255  -2.089  24.957  0.00  0.00    +0.295 HD
ENDBRANCH  34   6
ENDBRANCH  28  34
ENDBRANCH  22  25
BRANCH  23  11
ATOM     11  N   UNL     1       1.166   1.461  23.996  0.00  0.00    -0.211 N 
ATOM     40  H   UNL     1       1.855   2.203  23.804  0.00  0.00    +0.174 HD
BRANCH  11   1
ATOM      1  S   UNL     1       1.554  -0.049  23.335  0.00  0.00    +0.072 S 
ATOM      4  O   UNL     1       1.109  -1.102  24.228  0.00  0.00    -0.150 OA
ATOM      5  O   UNL     1       1.183  -0.076  21.933  0.00  0.00    -0.150 OA
BRANCH   1  30
ATOM     30  C   UNL     1       3.320   0.001  23.415  0.00  0.00    +0.109 A 
ATOM     32  C   UNL     1       4.008  -1.121  23.841  0.00  0.00    +0.030 A 
ATOM     33  C   UNL     1       3.979   1.161  23.050  0.00  0.00    +0.030 A 
ATOM     35  C   UNL     1       5.400  -1.082  23.904  0.00  0.00    +0.025 A 
ATOM     36  C   UNL     1       5.372   1.200  23.113  0.00  0.00    +0.025 A 
ATOM     37  C   UNL     1       6.083   0.078  23.540  0.00  0.00    +0.033 A 
BRANCH  37  12
ATOM      8  O   UNL     1       8.154  -1.409  21.939  0.00  0.00    -0.276 OA
ATOM     12  N   UNL     1       7.476   0.118  23.602  0.00  0.00    -0.286 N 
ATOM     38  C   UNL     1       8.397  -0.602  22.829  0.00  0.00    +0.214 C 
ATOM     39  C   UNL     1       9.820  -0.275  23.208  0.00  0.00    +0.109 C 
ATOM     42  H   UNL     1       7.862   0.750  24.301  0.00  0.00    +0.155 HD
ENDBRANCH  37  12
ENDBRANCH   1  30
ENDBRANCH  11   1
ENDBRANCH  23  11
TORSDOF 7
ENDMDL
