MODEL 1
REMARK VINA RESULT:      19.6      0.000      0.000
REMARK  Name = 26763244
REMARK  4 active torsions:
REMARK  status: ('A' for Active; 'I' for Inactive)
REMARK    1  A    between atoms: C_10  and  C_18
REMARK    2  A    between atoms: C_15  and  C_22
REMARK    3  A    between atoms: C_17  and  C_23
REMARK    4  A    between atoms: C_25  and  C_26
REMARK                            x       y       z     vdW  Elec       q    Type
REMARK                         _______ _______ _______ _____ _____    ______ ____
ROOT
ATOM      1  S   UNL     1       1.613  -0.326  22.210  0.00  0.00    -0.057 S 
ATOM      4  O   UNL     1      -2.544   3.589  26.094  0.00  0.00    -0.461 OA
ATOM      5  O   UNL     1      -3.976   5.073  27.114  0.00  0.00    -0.251 OA
ATOM      6  O   UNL     1       5.044   1.304  24.944  0.00  0.00    -0.270 OA
ATOM      7  N   UNL     1       2.106   1.105  24.307  0.00  0.00    -0.229 NA
ATOM      8  N   UNL     1       4.005   0.151  23.170  0.00  0.00    -0.261 N 
ATOM      9  C   UNL     1      -1.644   1.864  24.493  0.00  0.00    +0.045 C 
ATOM     10  C   UNL     1      -2.079   0.481  23.838  0.00  0.00    -0.021 C 
ATOM     11  C   UNL     1      -2.712   2.296  25.512  0.00  0.00    +0.184 C 
ATOM     12  C   UNL     1      -4.061   2.435  24.832  0.00  0.00    +0.044 C 
ATOM     13  C   UNL     1      -3.537   0.566  23.289  0.00  0.00    +0.008 C 
ATOM     14  C   UNL     1      -4.557   1.104  24.303  0.00  0.00    +0.008 C 
ATOM     15  C   UNL     1      -0.185   1.826  25.073  0.00  0.00    +0.043 C 
ATOM     16  C   UNL     1      -1.128   0.162  22.642  0.00  0.00    +0.051 C 
ATOM     17  C   UNL     1      -4.856   3.123  25.927  0.00  0.00    +0.101 C 
ATOM     18  C   UNL     1      -2.017  -0.693  24.850  0.00  0.00    +0.012 C 
ATOM     19  C   UNL     1       0.736   1.104  24.119  0.00  0.00    +0.057 A 
ATOM     20  C   UNL     1       0.294   0.358  23.045  0.00  0.00    +0.015 A 
ATOM     21  C   UNL     1      -3.787   4.060  26.458  0.00  0.00    +0.311 C 
ATOM     22  C   UNL     1       0.360   3.227  25.382  0.00  0.00    +0.014 C 
ATOM     23  C   UNL     1      -6.076   3.860  25.409  0.00  0.00    +0.019 C 
ATOM     24  C   UNL     1       2.670   0.392  23.356  0.00  0.00    +0.165 A 
ATOM     25  C   UNL     1       5.105   0.598  23.943  0.00  0.00    +0.255 C 
ATOM     32  H   UNL     1       4.200  -0.447  22.371  0.00  0.00    +0.157 HD
ENDROOT
BRANCH  25  26
ATOM      2  F   UNL     1       5.551  -1.944  22.805  0.00  0.00    -0.205 F 
ATOM      3  F   UNL     1       7.413   2.205  24.172  0.00  0.00    -0.205 F 
ATOM     26  C   UNL     1       6.447   0.142  23.500  0.00  0.00    +0.107 A 
ATOM     27  C   UNL     1       6.605  -1.128  22.944  0.00  0.00    +0.138 A 
ATOM     28  C   UNL     1       7.553   0.983  23.640  0.00  0.00    +0.138 A 
ATOM     29  C   UNL     1       7.865  -1.557  22.529  0.00  0.00    +0.039 A 
ATOM     30  C   UNL     1       8.813   0.554  23.223  0.00  0.00    +0.039 A 
ATOM     31  C   UNL     1       8.969  -0.716  22.668  0.00  0.00    +0.006 A 
ENDBRANCH  25  26
TORSDOF 1
ENDMDL
MODEL 2
REMARK VINA RESULT:      19.6      0.044      1.487
REMARK  Name = 26763244
REMARK  4 active torsions:
REMARK  status: ('A' for Active; 'I' for Inactive)
REMARK    1  A    between atoms: C_10  and  C_18
REMARK    2  A    between atoms: C_15  and  C_22
REMARK    3  A    between atoms: C_17  and  C_23
REMARK    4  A    between atoms: C_25  and  C_26
REMARK                            x       y       z     vdW  Elec       q    Type
REMARK                         _______ _______ _______ _____ _____    ______ ____
ROOT
ATOM      1  S   UNL     1       1.640  -0.346  22.206  0.00  0.00    -0.057 S 
ATOM      4  O   UNL     1      -2.543   3.541  26.091  0.00  0.00    -0.461 OA
ATOM      5  O   UNL     1      -3.985   5.015  27.111  0.00  0.00    -0.251 OA
ATOM      6  O   UNL     1       5.059   1.306  24.942  0.00  0.00    -0.270 OA
ATOM      7  N   UNL     1       2.124   1.088  24.303  0.00  0.00    -0.229 NA
ATOM      8  N   UNL     1       4.029   0.147  23.167  0.00  0.00    -0.261 N 
ATOM      9  C   UNL     1      -1.632   1.822  24.489  0.00  0.00    +0.045 C 
ATOM     10  C   UNL     1      -2.058   0.437  23.833  0.00  0.00    -0.021 C 
ATOM     11  C   UNL     1      -2.703   2.247  25.509  0.00  0.00    +0.184 C 
ATOM     12  C   UNL     1      -4.053   2.377  24.828  0.00  0.00    +0.044 C 
ATOM     13  C   UNL     1      -3.516   0.512  23.284  0.00  0.00    +0.008 C 
ATOM     14  C   UNL     1      -4.539   1.044  24.298  0.00  0.00    +0.008 C 
ATOM     15  C   UNL     1      -0.173   1.794  25.069  0.00  0.00    +0.043 C 
ATOM     16  C   UNL     1      -1.104   0.125  22.638  0.00  0.00    +0.051 C 
ATOM     17  C   UNL     1      -4.852   3.060  25.923  0.00  0.00    +0.101 C 
ATOM     18  C   UNL     1      -1.988  -0.738  24.845  0.00  0.00    +0.012 C 
ATOM     19  C   UNL     1       0.753   1.078  24.115  0.00  0.00    +0.057 A 
ATOM     20  C   UNL     1       0.317   0.329  23.041  0.00  0.00    +0.015 A 
ATOM     21  C   UNL     1      -3.790   4.003  26.455  0.00  0.00    +0.311 C 
ATOM     22  C   UNL     1       0.364   3.198  25.379  0.00  0.00    +0.014 C 
ATOM     23  C   UNL     1      -6.076   3.789  25.405  0.00  0.00    +0.019 C 
ATOM     24  C   UNL     1       2.692   0.379  23.353  0.00  0.00    +0.165 A 
ATOM     25  C   UNL     1       5.126   0.601  23.940  0.00  0.00    +0.255 C 
ATOM     32  H   UNL     1       4.228  -0.450  22.367  0.00  0.00    +0.157 HD
ENDROOT
BRANCH  25  26
ATOM      2  F   UNL     1       7.429   2.208  24.202  0.00  0.00    -0.205 F 
ATOM      3  F   UNL     1       5.581  -1.926  22.768  0.00  0.00    -0.205 F 
ATOM     26  C   UNL     1       6.471   0.153  23.497  0.00  0.00    +0.107 A 
ATOM     27  C   UNL     1       7.573   0.994  23.653  0.00  0.00    +0.138 A 
ATOM     28  C   UNL     1       6.633  -1.109  22.923  0.00  0.00    +0.138 A 
ATOM     29  C   UNL     1       8.836   0.573  23.237  0.00  0.00    +0.039 A 
ATOM     30  C   UNL     1       7.896  -1.529  22.508  0.00  0.00    +0.039 A 
ATOM     31  C   UNL     1       8.998  -0.688  22.665  0.00  0.00    +0.006 A 
ENDBRANCH  25  26
TORSDOF 1
ENDMDL
