MODEL 1
REMARK VINA RESULT:      -3.0      0.000      0.000
REMARK  Name = 45361411
REMARK  14 active torsions:
REMARK  status: ('A' for Active; 'I' for Inactive)
REMARK    1  A    between atoms: O_1  and  C_9
REMARK    2  A    between atoms: N_4  and  C_13
REMARK    3  A    between atoms: N_5  and  C_24
REMARK    4  A    between atoms: C_6  and  C_16
REMARK    5  A    between atoms: C_8  and  C_18
REMARK    6  A    between atoms: C_12  and  C_17
REMARK    7  A    between atoms: C_17  and  C_19
REMARK    8  A    between atoms: C_17  and  C_20
REMARK    9  A    between atoms: C_21  and  C_22
REMARK   10  A    between atoms: C_22  and  C_23
REMARK   11  A    between atoms: C_23  and  C_25
REMARK   12  A    between atoms: C_23  and  C_26
REMARK   13  A    between atoms: C_23  and  C_27
REMARK   14  A    between atoms: C_24  and  C_28
REMARK                            x       y       z     vdW  Elec       q    Type
REMARK                         _______ _______ _______ _____ _____    ______ ____
ROOT
ATOM      6  C   UNL     1      -2.140  -0.986  25.047  0.00  0.00    -0.027 C 
ATOM      7  C   UNL     1      -2.174   0.252  24.089  0.00  0.00    +0.028 C 
ATOM      8  C   UNL     1      -0.743   0.883  23.942  0.00  0.00    +0.012 C 
ATOM      9  C   UNL     1      -3.304   1.244  24.490  0.00  0.00    +0.122 C 
ATOM     10  C   UNL     1      -3.537  -1.650  25.081  0.00  0.00    +0.007 C 
ATOM     11  C   UNL     1      -1.139  -2.025  24.491  0.00  0.00    +0.009 C 
ATOM     12  C   UNL     1      -4.681   0.552  24.624  0.00  0.00    +0.029 C 
ATOM     13  C   UNL     1       0.271  -0.189  23.456  0.00  0.00    +0.076 C 
ATOM     14  C   UNL     1      -4.640  -0.693  25.511  0.00  0.00    +0.007 C 
ATOM     15  C   UNL     1       0.262  -1.462  24.301  0.00  0.00    +0.023 C 
ATOM     16  C   UNL     1      -1.734  -0.607  26.493  0.00  0.00    +0.011 C 
ATOM     18  C   UNL     1      -0.698   2.091  22.990  0.00  0.00    +0.010 C 
ENDROOT
BRANCH  13   4
ATOM      3  O   UNL     1       2.175  -0.400  21.283  0.00  0.00    -0.276 OA
ATOM      4  N   UNL     1       1.623   0.329  23.419  0.00  0.00    -0.312 N 
ATOM     21  C   UNL     1       2.462   0.177  22.330  0.00  0.00    +0.214 C 
ATOM     34  H   UNL     1       1.972   0.792  24.253  0.00  0.00    +0.149 HD
BRANCH  21  22
ATOM     22  C   UNL     1       3.830   0.802  22.545  0.00  0.00    +0.102 C 
BRANCH  22  23
ATOM     23  C   UNL     1       4.827  -0.079  23.336  0.00  0.00    -0.029 C 
ATOM     25  C   UNL     1       5.348   0.646  24.587  0.00  0.00    +0.011 C 
ATOM     26  C   UNL     1       6.024  -0.388  22.417  0.00  0.00    +0.011 C 
ATOM     27  C   UNL     1       4.178  -1.409  23.753  0.00  0.00    +0.011 C 
ENDBRANCH  22  23
ENDBRANCH  21  22
ENDBRANCH  13   4
BRANCH   9   1
ATOM      1  O   UNL     1      -3.445   2.241  23.477  0.00  0.00    -0.391 OA
ATOM     35  H   UNL     1      -2.675   2.832  23.526  0.00  0.00    +0.210 HD
ENDBRANCH   9   1
BRANCH  12  17
ATOM     17  C   UNL     1      -5.754   1.517  25.145  0.00  0.00    +0.077 C 
ATOM     19  C   UNL     1      -6.935   1.558  24.181  0.00  0.00    +0.017 C 
BRANCH  17  20
ATOM      2  O   UNL     1      -5.409   3.854  24.610  0.00  0.00    -0.276 OA
ATOM      5  N   UNL     1      -4.299   2.959  26.439  0.00  0.00    -0.311 N 
ATOM     20  C   UNL     1      -5.153   2.904  25.346  0.00  0.00    +0.216 C 
ATOM     36  H   UNL     1      -4.178   2.143  27.030  0.00  0.00    +0.149 HD
BRANCH   5  24
ATOM     24  C   UNL     1      -3.607   4.166  26.830  0.00  0.00    +0.139 C 
BRANCH  24  28
ATOM     28  C   UNL     1      -2.289   4.312  26.126  0.00  0.00    -0.030 A 
ATOM     29  C   UNL     1      -1.275   3.379  26.342  0.00  0.00    +0.005 A 
ATOM     30  C   UNL     1      -2.079   5.381  25.255  0.00  0.00    +0.005 A 
ATOM     31  C   UNL     1      -0.051   3.515  25.688  0.00  0.00    +0.000 A 
ATOM     32  C   UNL     1      -0.855   5.517  24.600  0.00  0.00    +0.000 A 
ATOM     33  C   UNL     1       0.159   4.585  24.817  0.00  0.00    +0.000 A 
ENDBRANCH  24  28
ENDBRANCH   5  24
ENDBRANCH  17  20
ENDBRANCH  12  17
TORSDOF 8
ENDMDL
