MODEL 1
REMARK VINA RESULT:      -3.1      0.000      0.000
REMARK  Name = 25317550
REMARK  11 active torsions:
REMARK  status: ('A' for Active; 'I' for Inactive)
REMARK    1  A    between atoms: O_3  and  C_10
REMARK    2  A    between atoms: O_4  and  C_25
REMARK    3  A    between atoms: O_4  and  C_29
REMARK    4  A    between atoms: N_5  and  C_8
REMARK    5  A    between atoms: N_5  and  C_14
REMARK    6  A    between atoms: N_5  and  C_15
REMARK    7  A    between atoms: N_6  and  C_9
REMARK    8  A    between atoms: N_6  and  C_16
REMARK    9  A    between atoms: C_14  and  C_17
REMARK   10  A    between atoms: C_16  and  C_18
REMARK   11  A    between atoms: C_17  and  C_19
REMARK                            x       y       z     vdW  Elec       q    Type
REMARK                         _______ _______ _______ _____ _____    ______ ____
ROOT
ATOM      1  O   UNL     1      -2.048   3.437  26.372  0.00  0.00    -0.343 OA
ATOM      2  O   UNL     1      -2.826   5.375  25.364  0.00  0.00    -0.347 OA
ATOM      8  C   UNL     1      -4.042   3.314  25.016  0.00  0.00    +0.143 C 
ATOM      9  C   UNL     1      -1.680   2.817  24.065  0.00  0.00    +0.116 C 
ATOM     10  C   UNL     1      -3.189   2.999  23.765  0.00  0.00    +0.156 C 
ATOM     11  C   UNL     1      -1.201   3.692  25.246  0.00  0.00    +0.166 C 
ATOM     12  C   UNL     1      -3.234   4.161  26.017  0.00  0.00    +0.270 C 
ATOM     13  C   UNL     1      -1.438   5.179  25.056  0.00  0.00    +0.196 C 
ENDROOT
BRANCH  10   3
ATOM      3  O   UNL     1      -3.344   4.091  22.848  0.00  0.00    -0.388 OA
ATOM     31  H   UNL     1      -3.378   3.717  21.950  0.00  0.00    +0.210 HD
ENDBRANCH  10   3
BRANCH   8   5
ATOM      5  N   UNL     1      -4.497   2.081  25.658  0.00  0.00    -0.295 NA
ATOM     15  C   UNL     1      -5.810   2.279  26.270  0.00  0.00    +0.105 C 
BRANCH   5  14
ATOM     14  C   UNL     1      -4.544   0.988  24.689  0.00  0.00    +0.091 C 
BRANCH  14  17
ATOM     17  C   UNL     1      -4.602  -0.368  25.394  0.00  0.00    +0.071 C 
BRANCH  17  19
ATOM      7  N   UNL     1      -2.296  -0.765  26.065  0.00  0.00    -0.260 NA
ATOM     19  C   UNL     1      -3.308  -1.126  25.244  0.00  0.00    +0.042 A 
ATOM     22  C   UNL     1      -3.216  -2.133  24.297  0.00  0.00    +0.023 A 
ATOM     26  C   UNL     1      -2.009  -2.814  24.185  0.00  0.00    +0.003 A 
ATOM     27  C   UNL     1      -1.138  -1.449  25.927  0.00  0.00    +0.111 A 
ATOM     28  C   UNL     1      -0.945  -2.472  25.011  0.00  0.00    +0.020 A 
ENDBRANCH  17  19
ENDBRANCH  14  17
ENDBRANCH   5  14
ENDBRANCH   8   5
BRANCH   9   6
ATOM      6  N   UNL     1      -1.383   1.417  24.382  0.00  0.00    -0.305 NA
ATOM     30  H   UNL     1      -2.194   0.987  24.827  0.00  0.00    +0.123 HD
BRANCH   6  16
ATOM     16  C   UNL     1      -1.022   0.686  23.179  0.00  0.00    +0.116 C 
BRANCH  16  18
ATOM     18  C   UNL     1       0.471   0.607  22.998  0.00  0.00    -0.033 A 
ATOM     20  C   UNL     1       1.015  -0.278  22.068  0.00  0.00    +0.008 A 
ATOM     21  C   UNL     1       1.309   1.421  23.760  0.00  0.00    +0.008 A 
ATOM     23  C   UNL     1       2.398  -0.350  21.900  0.00  0.00    +0.046 A 
ATOM     24  C   UNL     1       2.692   1.348  23.593  0.00  0.00    +0.046 A 
ATOM     25  C   UNL     1       3.236   0.462  22.662  0.00  0.00    +0.120 A 
BRANCH  25   4
ATOM      4  O   UNL     1       4.585   0.392  22.499  0.00  0.00    -0.495 OA
ATOM     29  C   UNL     1       5.359   0.009  23.635  0.00  0.00    +0.277 C 
ENDBRANCH  25   4
ENDBRANCH  16  18
ENDBRANCH   6  16
ENDBRANCH   9   6
TORSDOF 9
ENDMDL
MODEL 2
REMARK VINA RESULT:      -1.7      2.194      5.974
REMARK  Name = 25317550
REMARK  11 active torsions:
REMARK  status: ('A' for Active; 'I' for Inactive)
REMARK    1  A    between atoms: O_3  and  C_10
REMARK    2  A    between atoms: O_4  and  C_25
REMARK    3  A    between atoms: O_4  and  C_29
REMARK    4  A    between atoms: N_5  and  C_8
REMARK    5  A    between atoms: N_5  and  C_14
REMARK    6  A    between atoms: N_5  and  C_15
REMARK    7  A    between atoms: N_6  and  C_9
REMARK    8  A    between atoms: N_6  and  C_16
REMARK    9  A    between atoms: C_14  and  C_17
REMARK   10  A    between atoms: C_16  and  C_18
REMARK   11  A    between atoms: C_17  and  C_19
REMARK                            x       y       z     vdW  Elec       q    Type
REMARK                         _______ _______ _______ _____ _____    ______ ____
ROOT
ATOM      1  O   UNL     1      -2.648  -1.365  26.179  0.00  0.00    -0.343 OA
ATOM      2  O   UNL     1      -2.180  -2.572  24.255  0.00  0.00    -0.347 OA
ATOM      8  C   UNL     1      -2.044  -0.160  24.177  0.00  0.00    +0.143 C 
ATOM      9  C   UNL     1      -4.511  -0.628  24.828  0.00  0.00    +0.116 C 
ATOM     10  C   UNL     1      -3.532  -0.069  23.766  0.00  0.00    +0.156 C 
ATOM     11  C   UNL     1      -3.902  -1.794  25.639  0.00  0.00    +0.166 C 
ATOM     12  C   UNL     1      -1.798  -1.421  25.026  0.00  0.00    +0.270 C 
ATOM     13  C   UNL     1      -3.450  -2.970  24.795  0.00  0.00    +0.196 C 
ENDROOT
BRANCH  10   3
ATOM      3  O   UNL     1      -3.694  -0.822  22.555  0.00  0.00    -0.388 OA
ATOM     31  H   UNL     1      -4.119  -0.239  21.902  0.00  0.00    +0.210 HD
ENDBRANCH  10   3
BRANCH   8   5
ATOM      5  N   UNL     1      -1.638   1.032  24.922  0.00  0.00    -0.295 NA
ATOM     15  C   UNL     1      -0.865   0.656  26.104  0.00  0.00    +0.105 C 
BRANCH   5  14
ATOM     14  C   UNL     1      -0.862   1.929  24.067  0.00  0.00    +0.091 C 
BRANCH  14  17
ATOM     17  C   UNL     1       0.608   1.951  24.486  0.00  0.00    +0.071 C 
BRANCH  17  19
ATOM      7  N   UNL     1       2.778   1.551  23.455  0.00  0.00    -0.260 NA
ATOM     19  C   UNL     1       1.474   1.197  23.507  0.00  0.00    +0.042 A 
ATOM     22  C   UNL     1       0.908   0.202  22.727  0.00  0.00    +0.023 A 
ATOM     26  C   UNL     1       1.733  -0.475  21.836  0.00  0.00    +0.003 A 
ATOM     27  C   UNL     1       3.549   0.872  22.577  0.00  0.00    +0.111 A 
ATOM     28  C   UNL     1       3.080  -0.140  21.753  0.00  0.00    +0.020 A 
ENDBRANCH  17  19
ENDBRANCH  14  17
ENDBRANCH   5  14
ENDBRANCH   8   5
BRANCH   9   6
ATOM      6  N   UNL     1      -4.907   0.427  25.768  0.00  0.00    -0.305 NA
ATOM     30  H   UNL     1      -4.105   0.696  26.337  0.00  0.00    +0.123 HD
BRANCH   6  16
ATOM     16  C   UNL     1      -5.427   1.579  25.052  0.00  0.00    +0.116 C 
BRANCH  16  18
ATOM     18  C   UNL     1      -4.450   2.725  25.051  0.00  0.00    -0.033 A 
ATOM     20  C   UNL     1      -4.159   3.393  23.861  0.00  0.00    +0.008 A 
ATOM     21  C   UNL     1      -3.836   3.119  26.240  0.00  0.00    +0.008 A 
ATOM     23  C   UNL     1      -3.254   4.455  23.860  0.00  0.00    +0.046 A 
ATOM     24  C   UNL     1      -2.930   4.180  26.239  0.00  0.00    +0.046 A 
ATOM     25  C   UNL     1      -2.640   4.848  25.049  0.00  0.00    +0.120 A 
BRANCH  25   4
ATOM      4  O   UNL     1      -1.757   5.883  25.049  0.00  0.00    -0.495 OA
ATOM     29  C   UNL     1      -0.422   5.599  24.635  0.00  0.00    +0.277 C 
ENDBRANCH  25   4
ENDBRANCH  16  18
ENDBRANCH   6  16
ENDBRANCH   9   6
TORSDOF 9
ENDMDL
MODEL 3
REMARK VINA RESULT:      -1.4      2.067      4.519
REMARK  Name = 25317550
REMARK  11 active torsions:
REMARK  status: ('A' for Active; 'I' for Inactive)
REMARK    1  A    between atoms: O_3  and  C_10
REMARK    2  A    between atoms: O_4  and  C_25
REMARK    3  A    between atoms: O_4  and  C_29
REMARK    4  A    between atoms: N_5  and  C_8
REMARK    5  A    between atoms: N_5  and  C_14
REMARK    6  A    between atoms: N_5  and  C_15
REMARK    7  A    between atoms: N_6  and  C_9
REMARK    8  A    between atoms: N_6  and  C_16
REMARK    9  A    between atoms: C_14  and  C_17
REMARK   10  A    between atoms: C_16  and  C_18
REMARK   11  A    between atoms: C_17  and  C_19
REMARK                            x       y       z     vdW  Elec       q    Type
REMARK                         _______ _______ _______ _____ _____    ______ ____
ROOT
ATOM      1  O   UNL     1      -3.323  -0.820  23.236  0.00  0.00    -0.343 OA
ATOM      2  O   UNL     1      -4.294  -2.551  24.435  0.00  0.00    -0.347 OA
ATOM      8  C   UNL     1      -4.468  -0.299  25.296  0.00  0.00    +0.143 C 
ATOM      9  C   UNL     1      -1.913  -0.737  25.198  0.00  0.00    +0.116 C 
ATOM     10  C   UNL     1      -3.153  -0.479  26.090  0.00  0.00    +0.156 C 
ATOM     11  C   UNL     1      -2.263  -1.511  23.907  0.00  0.00    +0.166 C 
ATOM     12  C   UNL     1      -4.458  -1.181  24.034  0.00  0.00    +0.270 C 
ATOM     13  C   UNL     1      -2.922  -2.857  24.147  0.00  0.00    +0.196 C 
ENDROOT
BRANCH  10   3
ATOM      3  O   UNL     1      -3.326  -1.602  26.967  0.00  0.00    -0.388 OA
ATOM     31  H   UNL     1      -3.889  -2.248  26.506  0.00  0.00    +0.210 HD
ENDBRANCH  10   3
BRANCH   8   5
ATOM      5  N   UNL     1      -4.663   1.103  24.925  0.00  0.00    -0.295 NA
ATOM     15  C   UNL     1      -6.047   1.337  24.519  0.00  0.00    +0.105 C 
BRANCH   5  14
ATOM     14  C   UNL     1      -4.300   1.980  26.037  0.00  0.00    +0.091 C 
BRANCH  14  17
ATOM     17  C   UNL     1      -4.283   3.445  25.597  0.00  0.00    +0.071 C 
BRANCH  17  19
ATOM      7  N   UNL     1      -1.877   3.115  25.770  0.00  0.00    -0.260 NA
ATOM     19  C   UNL     1      -2.875   3.946  25.396  0.00  0.00    +0.042 A 
ATOM     22  C   UNL     1      -2.674   5.203  24.850  0.00  0.00    +0.023 A 
ATOM     26  C   UNL     1      -1.364   5.636  24.676  0.00  0.00    +0.003 A 
ATOM     27  C   UNL     1      -0.617   3.569  25.586  0.00  0.00    +0.111 A 
ATOM     28  C   UNL     1      -0.310   4.809  25.049  0.00  0.00    +0.020 A 
ENDBRANCH  17  19
ENDBRANCH  14  17
ENDBRANCH   5  14
ENDBRANCH   8   5
BRANCH   9   6
ATOM      6  N   UNL     1      -1.281   0.530  24.816  0.00  0.00    -0.305 NA
ATOM     30  H   UNL     1      -0.425   0.662  25.355  0.00  0.00    +0.123 HD
BRANCH   6  16
ATOM     16  C   UNL     1      -0.987   0.545  23.393  0.00  0.00    +0.116 C 
BRANCH  16  18
ATOM     18  C   UNL     1       0.494   0.529  23.127  0.00  0.00    -0.033 A 
ATOM     20  C   UNL     1       1.033  -0.393  22.230  0.00  0.00    +0.008 A 
ATOM     21  C   UNL     1       1.329   1.439  23.778  0.00  0.00    +0.008 A 
ATOM     23  C   UNL     1       2.406  -0.407  21.983  0.00  0.00    +0.046 A 
ATOM     24  C   UNL     1       2.702   1.424  23.532  0.00  0.00    +0.046 A 
ATOM     25  C   UNL     1       3.240   0.501  22.634  0.00  0.00    +0.120 A 
BRANCH  25   4
ATOM      4  O   UNL     1       4.579   0.487  22.394  0.00  0.00    -0.495 OA
ATOM     29  C   UNL     1       5.428   0.078  23.465  0.00  0.00    +0.277 C 
ENDBRANCH  25   4
ENDBRANCH  16  18
ENDBRANCH   6  16
ENDBRANCH   9   6
TORSDOF 9
ENDMDL
MODEL 4
REMARK VINA RESULT:      -1.2      2.280      6.367
REMARK  Name = 25317550
REMARK  11 active torsions:
REMARK  status: ('A' for Active; 'I' for Inactive)
REMARK    1  A    between atoms: O_3  and  C_10
REMARK    2  A    between atoms: O_4  and  C_25
REMARK    3  A    between atoms: O_4  and  C_29
REMARK    4  A    between atoms: N_5  and  C_8
REMARK    5  A    between atoms: N_5  and  C_14
REMARK    6  A    between atoms: N_5  and  C_15
REMARK    7  A    between atoms: N_6  and  C_9
REMARK    8  A    between atoms: N_6  and  C_16
REMARK    9  A    between atoms: C_14  and  C_17
REMARK   10  A    between atoms: C_16  and  C_18
REMARK   11  A    between atoms: C_17  and  C_19
REMARK                            x       y       z     vdW  Elec       q    Type
REMARK                         _______ _______ _______ _____ _____    ______ ____
ROOT
ATOM      1  O   UNL     1      -2.180   0.348  25.769  0.00  0.00    -0.343 OA
ATOM      2  O   UNL     1      -1.381  -1.530  26.870  0.00  0.00    -0.347 OA
ATOM      8  C   UNL     1      -0.639  -1.104  24.609  0.00  0.00    +0.143 C 
ATOM      9  C   UNL     1      -3.213  -1.347  24.390  0.00  0.00    +0.116 C 
ATOM     10  C   UNL     1      -1.820  -1.929  24.045  0.00  0.00    +0.156 C 
ATOM     11  C   UNL     1      -3.231  -0.623  25.756  0.00  0.00    +0.166 C 
ATOM     12  C   UNL     1      -1.022  -0.475  25.962  0.00  0.00    +0.270 C 
ATOM     13  C   UNL     1      -2.815  -1.494  26.927  0.00  0.00    +0.196 C 
ENDROOT
BRANCH  10   3
ATOM      3  O   UNL     1      -1.728  -3.250  24.598  0.00  0.00    -0.388 OA
ATOM     31  H   UNL     1      -1.716  -3.162  25.566  0.00  0.00    +0.210 HD
ENDBRANCH  10   3
BRANCH   8   5
ATOM      5  N   UNL     1      -0.240  -0.058  23.666  0.00  0.00    -0.295 NA
ATOM     15  C   UNL     1       0.298   1.096  24.383  0.00  0.00    +0.105 C 
BRANCH   5  14
ATOM     14  C   UNL     1       0.743  -0.576  22.716  0.00  0.00    +0.091 C 
BRANCH  14  17
ATOM     17  C   UNL     1       1.815   0.471  22.412  0.00  0.00    +0.071 C 
BRANCH  17  19
ATOM      7  N   UNL     1       3.267  -1.202  23.423  0.00  0.00    -0.260 NA
ATOM     19  C   UNL     1       3.157   0.066  22.967  0.00  0.00    +0.042 A 
ATOM     22  C   UNL     1       4.191   0.988  22.983  0.00  0.00    +0.023 A 
ATOM     26  C   UNL     1       5.417   0.583  23.500  0.00  0.00    +0.003 A 
ATOM     27  C   UNL     1       4.473  -1.560  23.918  0.00  0.00    +0.111 A 
ATOM     28  C   UNL     1       5.569  -0.713  23.979  0.00  0.00    +0.020 A 
ENDBRANCH  17  19
ENDBRANCH  14  17
ENDBRANCH   5  14
ENDBRANCH   8   5
BRANCH   9   6
ATOM      6  N   UNL     1      -3.641  -0.393  23.360  0.00  0.00    -0.305 NA
ATOM     30  H   UNL     1      -4.046  -0.900  22.573  0.00  0.00    +0.123 HD
BRANCH   6  16
ATOM     16  C   UNL     1      -4.606   0.546  23.905  0.00  0.00    +0.116 C 
BRANCH  16  18
ATOM     18  C   UNL     1      -3.963   1.852  24.287  0.00  0.00    -0.033 A 
ATOM     20  C   UNL     1      -4.464   2.590  25.359  0.00  0.00    +0.008 A 
ATOM     21  C   UNL     1      -2.863   2.324  23.569  0.00  0.00    +0.008 A 
ATOM     23  C   UNL     1      -3.867   3.800  25.714  0.00  0.00    +0.046 A 
ATOM     24  C   UNL     1      -2.267   3.534  23.923  0.00  0.00    +0.046 A 
ATOM     25  C   UNL     1      -2.769   4.272  24.996  0.00  0.00    +0.120 A 
BRANCH  25   4
ATOM      4  O   UNL     1      -2.186   5.452  25.341  0.00  0.00    -0.495 OA
ATOM     29  C   UNL     1      -0.861   5.686  24.867  0.00  0.00    +0.277 C 
ENDBRANCH  25   4
ENDBRANCH  16  18
ENDBRANCH   6  16
ENDBRANCH   9   6
TORSDOF 9
ENDMDL
MODEL 5
REMARK VINA RESULT:      -1.2      2.092      5.566
REMARK  Name = 25317550
REMARK  11 active torsions:
REMARK  status: ('A' for Active; 'I' for Inactive)
REMARK    1  A    between atoms: O_3  and  C_10
REMARK    2  A    between atoms: O_4  and  C_25
REMARK    3  A    between atoms: O_4  and  C_29
REMARK    4  A    between atoms: N_5  and  C_8
REMARK    5  A    between atoms: N_5  and  C_14
REMARK    6  A    between atoms: N_5  and  C_15
REMARK    7  A    between atoms: N_6  and  C_9
REMARK    8  A    between atoms: N_6  and  C_16
REMARK    9  A    between atoms: C_14  and  C_17
REMARK   10  A    between atoms: C_16  and  C_18
REMARK   11  A    between atoms: C_17  and  C_19
REMARK                            x       y       z     vdW  Elec       q    Type
REMARK                         _______ _______ _______ _____ _____    ______ ____
ROOT
ATOM      1  O   UNL     1      -1.629   3.690  23.391  0.00  0.00    -0.343 OA
ATOM      2  O   UNL     1      -0.066   4.426  24.938  0.00  0.00    -0.347 OA
ATOM      8  C   UNL     1      -0.644   2.079  24.896  0.00  0.00    +0.143 C 
ATOM      9  C   UNL     1      -2.891   3.269  25.409  0.00  0.00    +0.116 C 
ATOM     10  C   UNL     1      -1.779   2.319  25.919  0.00  0.00    +0.156 C 
ATOM     11  C   UNL     1      -2.353   4.345  24.438  0.00  0.00    +0.166 C 
ATOM     12  C   UNL     1      -0.404   3.345  24.053  0.00  0.00    +0.270 C 
ATOM     13  C   UNL     1      -1.260   5.220  25.023  0.00  0.00    +0.196 C 
ENDROOT
BRANCH  10   3
ATOM      3  O   UNL     1      -1.189   2.896  27.093  0.00  0.00    -0.388 OA
ATOM     31  H   UNL     1      -1.644   2.517  27.865  0.00  0.00    +0.210 HD
ENDBRANCH  10   3
BRANCH   8   5
ATOM      5  N   UNL     1      -0.963   0.950  24.022  0.00  0.00    -0.295 NA
ATOM     15  C   UNL     1      -1.227   1.416  22.662  0.00  0.00    +0.105 C 
BRANCH   5  14
ATOM     14  C   UNL     1       0.127  -0.024  24.028  0.00  0.00    +0.091 C 
BRANCH  14  17
ATOM     17  C   UNL     1       0.935   0.049  22.731  0.00  0.00    +0.071 C 
BRANCH  17  19
ATOM      7  N   UNL     1       2.881  -1.214  23.468  0.00  0.00    -0.260 NA
ATOM     19  C   UNL     1       2.416  -0.035  22.997  0.00  0.00    +0.042 A 
ATOM     22  C   UNL     1       3.214   1.071  22.752  0.00  0.00    +0.023 A 
ATOM     26  C   UNL     1       4.577   0.960  23.005  0.00  0.00    +0.003 A 
ATOM     27  C   UNL     1       4.211  -1.284  23.703  0.00  0.00    +0.111 A 
ATOM     28  C   UNL     1       5.093  -0.236  23.490  0.00  0.00    +0.020 A 
ENDBRANCH  17  19
ENDBRANCH  14  17
ENDBRANCH   5  14
ENDBRANCH   8   5
BRANCH   9   6
ATOM      6  N   UNL     1      -3.939   2.510  24.718  0.00  0.00    -0.305 NA
ATOM     30  H   UNL     1      -3.541   2.042  23.903  0.00  0.00    +0.123 HD
BRANCH   6  16
ATOM     16  C   UNL     1      -4.541   1.538  25.614  0.00  0.00    +0.116 C 
BRANCH  16  18
ATOM     18  C   UNL     1      -4.180   0.126  25.233  0.00  0.00    -0.033 A 
ATOM     20  C   UNL     1      -3.536  -0.702  26.151  0.00  0.00    +0.008 A 
ATOM     21  C   UNL     1      -4.491  -0.353  23.960  0.00  0.00    +0.008 A 
ATOM     23  C   UNL     1      -3.202  -2.010  25.798  0.00  0.00    +0.046 A 
ATOM     24  C   UNL     1      -4.157  -1.660  23.606  0.00  0.00    +0.046 A 
ATOM     25  C   UNL     1      -3.513  -2.489  24.526  0.00  0.00    +0.120 A 
BRANCH  25   4
ATOM      4  O   UNL     1      -3.188  -3.764  24.181  0.00  0.00    -0.495 OA
ATOM     29  C   UNL     1      -2.062  -3.939  23.322  0.00  0.00    +0.277 C 
ENDBRANCH  25   4
ENDBRANCH  16  18
ENDBRANCH   6  16
ENDBRANCH   9   6
TORSDOF 9
ENDMDL
MODEL 6
REMARK VINA RESULT:      -0.5      2.246      4.712
REMARK  Name = 25317550
REMARK  11 active torsions:
REMARK  status: ('A' for Active; 'I' for Inactive)
REMARK    1  A    between atoms: O_3  and  C_10
REMARK    2  A    between atoms: O_4  and  C_25
REMARK    3  A    between atoms: O_4  and  C_29
REMARK    4  A    between atoms: N_5  and  C_8
REMARK    5  A    between atoms: N_5  and  C_14
REMARK    6  A    between atoms: N_5  and  C_15
REMARK    7  A    between atoms: N_6  and  C_9
REMARK    8  A    between atoms: N_6  and  C_16
REMARK    9  A    between atoms: C_14  and  C_17
REMARK   10  A    between atoms: C_16  and  C_18
REMARK   11  A    between atoms: C_17  and  C_19
REMARK                            x       y       z     vdW  Elec       q    Type
REMARK                         _______ _______ _______ _____ _____    ______ ____
ROOT
ATOM      1  O   UNL     1      -1.879  -2.054  23.620  0.00  0.00    -0.343 OA
ATOM      2  O   UNL     1      -1.972  -2.851  25.796  0.00  0.00    -0.347 OA
ATOM      8  C   UNL     1      -2.804  -0.628  25.335  0.00  0.00    +0.143 C 
ATOM      9  C   UNL     1      -0.308  -0.523  24.634  0.00  0.00    +0.116 C 
ATOM     10  C   UNL     1      -1.405  -0.027  25.609  0.00  0.00    +0.156 C 
ATOM     11  C   UNL     1      -0.553  -1.971  24.153  0.00  0.00    +0.166 C 
ATOM     12  C   UNL     1      -2.674  -2.072  24.814  0.00  0.00    +0.270 C 
ATOM     13  C   UNL     1      -0.643  -2.992  25.273  0.00  0.00    +0.196 C 
ENDROOT
BRANCH  10   3
ATOM      3  O   UNL     1      -1.029  -0.394  26.944  0.00  0.00    -0.388 OA
ATOM     31  H   UNL     1      -1.590   0.113  27.556  0.00  0.00    +0.210 HD
ENDBRANCH  10   3
BRANCH   8   5
ATOM      5  N   UNL     1      -3.540   0.188  24.370  0.00  0.00    -0.295 NA
ATOM     15  C   UNL     1      -4.559  -0.614  23.695  0.00  0.00    +0.105 C 
BRANCH   5  14
ATOM     14  C   UNL     1      -4.150   1.338  25.035  0.00  0.00    +0.091 C 
BRANCH  14  17
ATOM     17  C   UNL     1      -4.073   2.586  24.154  0.00  0.00    +0.071 C 
BRANCH  17  19
ATOM      7  N   UNL     1      -1.660   2.836  23.946  0.00  0.00    -0.260 NA
ATOM     19  C   UNL     1      -2.811   3.369  24.414  0.00  0.00    +0.042 A 
ATOM     22  C   UNL     1      -2.886   4.569  25.102  0.00  0.00    +0.023 A 
ATOM     26  C   UNL     1      -1.704   5.268  25.324  0.00  0.00    +0.003 A 
ATOM     27  C   UNL     1      -0.532   3.543  24.180  0.00  0.00    +0.111 A 
ATOM     28  C   UNL     1      -0.500   4.752  24.858  0.00  0.00    +0.020 A 
ENDBRANCH  17  19
ENDBRANCH  14  17
ENDBRANCH   5  14
ENDBRANCH   8   5
BRANCH   9   6
ATOM      6  N   UNL     1      -0.237   0.346  23.454  0.00  0.00    -0.305 NA
ATOM     30  H   UNL     1       0.118   1.263  23.726  0.00  0.00    +0.123 HD
BRANCH   6  16
ATOM     16  C   UNL     1       0.616  -0.244  22.437  0.00  0.00    +0.116 C 
BRANCH  16  18
ATOM     18  C   UNL     1       2.069  -0.195  22.827  0.00  0.00    -0.033 A 
ATOM     20  C   UNL     1       2.660  -1.289  23.458  0.00  0.00    +0.008 A 
ATOM     21  C   UNL     1       2.825   0.947  22.555  0.00  0.00    +0.008 A 
ATOM     23  C   UNL     1       4.007  -1.243  23.818  0.00  0.00    +0.046 A 
ATOM     24  C   UNL     1       4.172   0.993  22.916  0.00  0.00    +0.046 A 
ATOM     25  C   UNL     1       4.763  -0.102  23.548  0.00  0.00    +0.120 A 
BRANCH  25   4
ATOM      4  O   UNL     1       6.076  -0.057  23.899  0.00  0.00    -0.495 OA
ATOM     29  C   UNL     1       7.031  -0.386  22.891  0.00  0.00    +0.277 C 
ENDBRANCH  25   4
ENDBRANCH  16  18
ENDBRANCH   6  16
ENDBRANCH   9   6
TORSDOF 9
ENDMDL
MODEL 7
REMARK VINA RESULT:      -0.3      1.359      1.978
REMARK  Name = 25317550
REMARK  11 active torsions:
REMARK  status: ('A' for Active; 'I' for Inactive)
REMARK    1  A    between atoms: O_3  and  C_10
REMARK    2  A    between atoms: O_4  and  C_25
REMARK    3  A    between atoms: O_4  and  C_29
REMARK    4  A    between atoms: N_5  and  C_8
REMARK    5  A    between atoms: N_5  and  C_14
REMARK    6  A    between atoms: N_5  and  C_15
REMARK    7  A    between atoms: N_6  and  C_9
REMARK    8  A    between atoms: N_6  and  C_16
REMARK    9  A    between atoms: C_14  and  C_17
REMARK   10  A    between atoms: C_16  and  C_18
REMARK   11  A    between atoms: C_17  and  C_19
REMARK                            x       y       z     vdW  Elec       q    Type
REMARK                         _______ _______ _______ _____ _____    ______ ____
ROOT
ATOM      1  O   UNL     1      -2.139   1.801  26.014  0.00  0.00    -0.343 OA
ATOM      2  O   UNL     1      -1.173   3.719  26.888  0.00  0.00    -0.347 OA
ATOM      8  C   UNL     1      -2.749   3.937  25.068  0.00  0.00    +0.143 C 
ATOM      9  C   UNL     1      -0.851   2.470  24.082  0.00  0.00    +0.116 C 
ATOM     10  C   UNL     1      -1.603   3.823  24.036  0.00  0.00    +0.156 C 
ATOM     11  C   UNL     1      -0.803   1.866  25.504  0.00  0.00    +0.166 C 
ATOM     12  C   UNL     1      -2.390   3.171  26.355  0.00  0.00    +0.270 C 
ATOM     13  C   UNL     1      -0.157   2.766  26.541  0.00  0.00    +0.196 C 
ENDROOT
BRANCH  10   3
ATOM      3  O   UNL     1      -0.667   4.875  24.309  0.00  0.00    -0.388 OA
ATOM     31  H   UNL     1      -0.947   5.310  25.133  0.00  0.00    +0.210 HD
ENDBRANCH  10   3
BRANCH   8   5
ATOM      5  N   UNL     1      -4.001   3.422  24.513  0.00  0.00    -0.295 NA
ATOM     15  C   UNL     1      -3.842   3.116  23.093  0.00  0.00    +0.105 C 
BRANCH   5  14
ATOM     14  C   UNL     1      -4.435   2.236  25.248  0.00  0.00    +0.091 C 
BRANCH  14  17
ATOM     17  C   UNL     1      -4.973   1.167  24.295  0.00  0.00    +0.071 C 
BRANCH  17  19
ATOM      7  N   UNL     1      -3.876  -0.365  25.837  0.00  0.00    -0.260 NA
ATOM     19  C   UNL     1      -4.387  -0.189  24.598  0.00  0.00    +0.042 A 
ATOM     22  C   UNL     1      -4.399  -1.168  23.618  0.00  0.00    +0.023 A 
ATOM     26  C   UNL     1      -3.853  -2.408  23.929  0.00  0.00    +0.003 A 
ATOM     27  C   UNL     1      -3.353  -1.584  26.103  0.00  0.00    +0.111 A 
ATOM     28  C   UNL     1      -3.317  -2.628  25.193  0.00  0.00    +0.020 A 
ENDBRANCH  17  19
ENDBRANCH  14  17
ENDBRANCH   5  14
ENDBRANCH   8   5
BRANCH   9   6
ATOM      6  N   UNL     1      -1.489   1.495  23.191  0.00  0.00    -0.305 NA
ATOM     30  H   UNL     1      -1.434   1.825  22.227  0.00  0.00    +0.123 HD
BRANCH   6  16
ATOM     16  C   UNL     1      -0.851   0.196  23.315  0.00  0.00    +0.116 C 
BRANCH  16  18
ATOM     18  C   UNL     1       0.622   0.263  23.011  0.00  0.00    -0.033 A 
ATOM     20  C   UNL     1       1.459   1.062  23.788  0.00  0.00    +0.008 A 
ATOM     21  C   UNL     1       1.149  -0.476  21.951  0.00  0.00    +0.008 A 
ATOM     23  C   UNL     1       2.824   1.123  23.506  0.00  0.00    +0.046 A 
ATOM     24  C   UNL     1       2.513  -0.414  21.668  0.00  0.00    +0.046 A 
ATOM     25  C   UNL     1       3.351   0.386  22.446  0.00  0.00    +0.120 A 
BRANCH  25   4
ATOM      4  O   UNL     1       4.682   0.446  22.171  0.00  0.00    -0.495 OA
ATOM     29  C   UNL     1       5.581   0.133  23.233  0.00  0.00    +0.277 C 
ENDBRANCH  25   4
ENDBRANCH  16  18
ENDBRANCH   6  16
ENDBRANCH   9   6
TORSDOF 9
ENDMDL
MODEL 8
REMARK VINA RESULT:       0.5      2.152      5.775
REMARK  Name = 25317550
REMARK  11 active torsions:
REMARK  status: ('A' for Active; 'I' for Inactive)
REMARK    1  A    between atoms: O_3  and  C_10
REMARK    2  A    between atoms: O_4  and  C_25
REMARK    3  A    between atoms: O_4  and  C_29
REMARK    4  A    between atoms: N_5  and  C_8
REMARK    5  A    between atoms: N_5  and  C_14
REMARK    6  A    between atoms: N_5  and  C_15
REMARK    7  A    between atoms: N_6  and  C_9
REMARK    8  A    between atoms: N_6  and  C_16
REMARK    9  A    between atoms: C_14  and  C_17
REMARK   10  A    between atoms: C_16  and  C_18
REMARK   11  A    between atoms: C_17  and  C_19
REMARK                            x       y       z     vdW  Elec       q    Type
REMARK                         _______ _______ _______ _____ _____    ______ ____
ROOT
ATOM      1  O   UNL     1       0.702   2.846  23.814  0.00  0.00    -0.343 OA
ATOM      2  O   UNL     1       0.588   2.676  26.124  0.00  0.00    -0.347 OA
ATOM      8  C   UNL     1      -0.053   0.768  24.785  0.00  0.00    +0.143 C 
ATOM      9  C   UNL     1      -1.695   2.634  24.045  0.00  0.00    +0.116 C 
ATOM     10  C   UNL     1      -1.517   1.264  24.744  0.00  0.00    +0.156 C 
ATOM     11  C   UNL     1      -0.469   3.558  24.229  0.00  0.00    +0.166 C 
ATOM     12  C   UNL     1       0.914   1.960  24.921  0.00  0.00    +0.270 C 
ATOM     13  C   UNL     1      -0.118   3.844  25.677  0.00  0.00    +0.196 C 
ENDROOT
BRANCH  10   3
ATOM      3  O   UNL     1      -1.974   1.380  26.099  0.00  0.00    -0.388 OA
ATOM     31  H   UNL     1      -2.123   0.480  26.436  0.00  0.00    +0.210 HD
ENDBRANCH  10   3
BRANCH   8   5
ATOM      5  N   UNL     1       0.269  -0.001  23.583  0.00  0.00    -0.295 NA
ATOM     15  C   UNL     1       1.459   0.542  22.932  0.00  0.00    +0.105 C 
BRANCH   5  14
ATOM     14  C   UNL     1       0.466  -1.411  23.917  0.00  0.00    +0.091 C 
BRANCH  14  17
ATOM     17  C   UNL     1      -0.267  -1.776  25.209  0.00  0.00    +0.071 C 
BRANCH  17  19
ATOM      7  N   UNL     1      -2.585  -1.368  25.832  0.00  0.00    -0.260 NA
ATOM     19  C   UNL     1      -1.742  -1.979  24.970  0.00  0.00    +0.042 A 
ATOM     22  C   UNL     1      -2.155  -2.764  23.906  0.00  0.00    +0.023 A 
ATOM     26  C   UNL     1      -3.522  -2.930  23.712  0.00  0.00    +0.003 A 
ATOM     27  C   UNL     1      -3.906  -1.553  25.613  0.00  0.00    +0.111 A 
ATOM     28  C   UNL     1      -4.421  -2.317  24.577  0.00  0.00    +0.020 A 
ENDBRANCH  17  19
ENDBRANCH  14  17
ENDBRANCH   5  14
ENDBRANCH   8   5
BRANCH   9   6
ATOM      6  N   UNL     1      -1.920   2.454  22.607  0.00  0.00    -0.305 NA
ATOM     30  H   UNL     1      -1.594   1.530  22.323  0.00  0.00    +0.123 HD
BRANCH   6  16
ATOM     16  C   UNL     1      -3.329   2.610  22.287  0.00  0.00    +0.116 C 
BRANCH  16  18
ATOM     18  C   UNL     1      -4.188   2.600  23.523  0.00  0.00    -0.033 A 
ATOM     20  C   UNL     1      -4.823   1.423  23.922  0.00  0.00    +0.008 A 
ATOM     21  C   UNL     1      -4.350   3.768  24.269  0.00  0.00    +0.008 A 
ATOM     23  C   UNL     1      -5.619   1.415  25.068  0.00  0.00    +0.046 A 
ATOM     24  C   UNL     1      -5.146   3.759  25.414  0.00  0.00    +0.046 A 
ATOM     25  C   UNL     1      -5.781   2.582  25.814  0.00  0.00    +0.120 A 
BRANCH  25   4
ATOM      4  O   UNL     1      -6.557   2.574  26.931  0.00  0.00    -0.495 OA
ATOM     29  C   UNL     1      -6.865   1.303  27.500  0.00  0.00    +0.277 C 
ENDBRANCH  25   4
ENDBRANCH  16  18
ENDBRANCH   6  16
ENDBRANCH   9   6
TORSDOF 9
ENDMDL
MODEL 9
REMARK VINA RESULT:       0.8      2.202      4.348
REMARK  Name = 25317550
REMARK  11 active torsions:
REMARK  status: ('A' for Active; 'I' for Inactive)
REMARK    1  A    between atoms: O_3  and  C_10
REMARK    2  A    between atoms: O_4  and  C_25
REMARK    3  A    between atoms: O_4  and  C_29
REMARK    4  A    between atoms: N_5  and  C_8
REMARK    5  A    between atoms: N_5  and  C_14
REMARK    6  A    between atoms: N_5  and  C_15
REMARK    7  A    between atoms: N_6  and  C_9
REMARK    8  A    between atoms: N_6  and  C_16
REMARK    9  A    between atoms: C_14  and  C_17
REMARK   10  A    between atoms: C_16  and  C_18
REMARK   11  A    between atoms: C_17  and  C_19
REMARK                            x       y       z     vdW  Elec       q    Type
REMARK                         _______ _______ _______ _____ _____    ______ ____
ROOT
ATOM      1  O   UNL     1      -1.958   0.189  23.996  0.00  0.00    -0.343 OA
ATOM      2  O   UNL     1      -1.999   0.003  26.307  0.00  0.00    -0.347 OA
ATOM      8  C   UNL     1      -1.522   2.158  25.323  0.00  0.00    +0.143 C 
ATOM      9  C   UNL     1       0.378   0.629  24.437  0.00  0.00    +0.116 C 
ATOM     10  C   UNL     1      -0.008   1.843  25.319  0.00  0.00    +0.156 C 
ATOM     11  C   UNL     1      -0.734  -0.444  24.387  0.00  0.00    +0.166 C 
ATOM     12  C   UNL     1      -2.341   0.859  25.205  0.00  0.00    +0.270 C 
ATOM     13  C   UNL     1      -1.131  -0.993  25.745  0.00  0.00    +0.196 C 
ENDROOT
BRANCH  10   3
ATOM      3  O   UNL     1       0.381   1.566  26.672  0.00  0.00    -0.388 OA
ATOM     31  H   UNL     1       0.745   0.664  26.693  0.00  0.00    +0.210 HD
ENDBRANCH  10   3
BRANCH   8   5
ATOM      5  N   UNL     1      -1.866   3.067  24.229  0.00  0.00    -0.295 NA
ATOM     15  C   UNL     1      -0.676   3.775  23.760  0.00  0.00    +0.105 C 
BRANCH   5  14
ATOM     14  C   UNL     1      -2.490   2.331  23.131  0.00  0.00    +0.091 C 
BRANCH  14  17
ATOM     17  C   UNL     1      -3.929   2.796  22.907  0.00  0.00    +0.071 C 
BRANCH  17  19
ATOM      7  N   UNL     1      -5.356   1.455  24.354  0.00  0.00    -0.260 NA
ATOM     19  C   UNL     1      -4.759   2.652  24.159  0.00  0.00    +0.042 A 
ATOM     22  C   UNL     1      -4.868   3.724  25.028  0.00  0.00    +0.023 A 
ATOM     26  C   UNL     1      -5.638   3.558  26.174  0.00  0.00    +0.003 A 
ATOM     27  C   UNL     1      -6.097   1.330  25.478  0.00  0.00    +0.111 A 
ATOM     28  C   UNL     1      -6.269   2.342  26.410  0.00  0.00    +0.020 A 
ENDBRANCH  17  19
ENDBRANCH  14  17
ENDBRANCH   5  14
ENDBRANCH   8   5
BRANCH   9   6
ATOM      6  N   UNL     1       0.661   1.059  23.064  0.00  0.00    -0.305 NA
ATOM     30  H   UNL     1       1.203   1.923  23.081  0.00  0.00    +0.123 HD
BRANCH   6  16
ATOM     16  C   UNL     1       1.385   0.026  22.344  0.00  0.00    +0.116 C 
BRANCH  16  18
ATOM     18  C   UNL     1       2.813  -0.085  22.808  0.00  0.00    -0.033 A 
ATOM     20  C   UNL     1       3.677   1.001  22.674  0.00  0.00    +0.008 A 
ATOM     21  C   UNL     1       3.271  -1.276  23.373  0.00  0.00    +0.008 A 
ATOM     23  C   UNL     1       5.000   0.898  23.104  0.00  0.00    +0.046 A 
ATOM     24  C   UNL     1       4.594  -1.379  23.803  0.00  0.00    +0.046 A 
ATOM     25  C   UNL     1       5.459  -0.292  23.668  0.00  0.00    +0.120 A 
BRANCH  25   4
ATOM      4  O   UNL     1       6.749  -0.393  24.088  0.00  0.00    -0.495 OA
ATOM     29  C   UNL     1       7.761  -0.403  23.083  0.00  0.00    +0.277 C 
ENDBRANCH  25   4
ENDBRANCH  16  18
ENDBRANCH   6  16
ENDBRANCH   9   6
TORSDOF 9
ENDMDL
