MODEL 1
REMARK VINA RESULT:      13.0      0.000      0.000
REMARK  Name = 11885216
REMARK  4 active torsions:
REMARK  status: ('A' for Active; 'I' for Inactive)
REMARK    1  A    between atoms: S_1  and  C_30
REMARK    2  A    between atoms: S_1  and  C_31
REMARK    3  A    between atoms: N_6  and  C_15
REMARK    4  A    between atoms: C_22  and  C_25
REMARK                            x       y       z     vdW  Elec       q    Type
REMARK                         _______ _______ _______ _____ _____    ______ ____
ROOT
ATOM      2  O   UNL     1      -4.513  -0.262  23.551  0.00  0.00    -0.253 OA
ATOM      3  O   UNL     1       0.613   1.988  25.796  0.00  0.00    -0.267 OA
ATOM      4  N   UNL     1      -4.343   1.641  24.872  0.00  0.00    -0.285 N 
ATOM      5  N   UNL     1      -1.342   2.808  24.826  0.00  0.00    -0.311 N 
ATOM      6  N   UNL     1      -4.278  -0.525  25.818  0.00  0.00    -0.296 N 
ATOM      7  C   UNL     1      -3.369   3.533  26.208  0.00  0.00    +0.027 C 
ATOM      8  C   UNL     1      -3.447   3.690  23.761  0.00  0.00    +0.054 C 
ATOM      9  C   UNL     1      -3.655   4.478  25.050  0.00  0.00    +0.018 C 
ATOM     10  C   UNL     1      -4.314   2.315  26.179  0.00  0.00    +0.114 C 
ATOM     11  C   UNL     1      -4.455   2.529  23.708  0.00  0.00    +0.119 C 
ATOM     12  C   UNL     1      -1.895   3.115  26.151  0.00  0.00    +0.130 C 
ATOM     13  C   UNL     1      -2.033   3.150  23.661  0.00  0.00    +0.027 A 
ATOM     14  C   UNL     1      -4.385   0.249  24.669  0.00  0.00    +0.302 C 
ATOM     16  C   UNL     1      -1.458   2.974  22.461  0.00  0.00    +0.022 A 
ATOM     17  C   UNL     1      -0.042   2.266  24.791  0.00  0.00    +0.259 A 
ATOM     22  C   UNL     1       0.561   2.045  23.430  0.00  0.00    +0.047 A 
ATOM     24  C   UNL     1      -0.143   2.408  22.347  0.00  0.00    +0.015 A 
ATOM     32  H   UNL     1      -4.325  -0.104  26.734  0.00  0.00    +0.151 HD
ENDROOT
BRANCH   6  15
ATOM     15  C   UNL     1      -4.310  -1.970  25.777  0.00  0.00    +0.074 C 
ATOM     18  C   UNL     1      -4.444  -2.478  24.338  0.00  0.00    +0.022 C 
ATOM     19  C   UNL     1      -3.076  -2.568  26.464  0.00  0.00    +0.022 C 
ATOM     20  C   UNL     1      -3.165  -2.280  23.526  0.00  0.00    +0.002 C 
ATOM     21  C   UNL     1      -1.799  -2.369  25.647  0.00  0.00    +0.002 C 
ATOM     23  C   UNL     1      -1.955  -2.892  24.223  0.00  0.00    +0.000 C 
ENDBRANCH   6  15
BRANCH  22  25
ATOM     25  C   UNL     1       1.895   1.438  23.276  0.00  0.00    -0.013 A 
ATOM     26  C   UNL     1       2.051   0.056  23.389  0.00  0.00    +0.010 A 
ATOM     27  C   UNL     1       3.004   2.244  23.018  0.00  0.00    +0.010 A 
ATOM     28  C   UNL     1       3.313  -0.519  23.244  0.00  0.00    +0.015 A 
ATOM     29  C   UNL     1       4.266   1.670  22.872  0.00  0.00    +0.015 A 
ATOM     30  C   UNL     1       4.421   0.287  22.985  0.00  0.00    +0.008 A 
BRANCH  30   1
ATOM      1  S   UNL     1       6.034  -0.446  22.802  0.00  0.00    -0.129 S 
ATOM     31  C   UNL     1       6.262  -1.248  24.414  0.00  0.00    +0.090 C 
ENDBRANCH  30   1
ENDBRANCH  22  25
TORSDOF 3
ENDMDL
MODEL 2
REMARK VINA RESULT:      14.0      1.768      4.626
REMARK  Name = 11885216
REMARK  4 active torsions:
REMARK  status: ('A' for Active; 'I' for Inactive)
REMARK    1  A    between atoms: S_1  and  C_30
REMARK    2  A    between atoms: S_1  and  C_31
REMARK    3  A    between atoms: N_6  and  C_15
REMARK    4  A    between atoms: C_22  and  C_25
REMARK                            x       y       z     vdW  Elec       q    Type
REMARK                         _______ _______ _______ _____ _____    ______ ____
ROOT
ATOM      2  O   UNL     1      -3.416   2.004  26.624  0.00  0.00    -0.253 OA
ATOM      3  O   UNL     1      -0.252  -0.402  22.087  0.00  0.00    -0.267 OA
ATOM      4  N   UNL     1      -4.219   0.445  25.101  0.00  0.00    -0.285 N 
ATOM      5  N   UNL     1      -1.796  -1.127  23.678  0.00  0.00    -0.311 N 
ATOM      6  N   UNL     1      -4.043   2.736  24.542  0.00  0.00    -0.296 N 
ATOM      7  C   UNL     1      -4.311  -1.216  23.218  0.00  0.00    +0.027 C 
ATOM      8  C   UNL     1      -3.450  -1.910  25.409  0.00  0.00    +0.054 C 
ATOM      9  C   UNL     1      -4.323  -2.347  24.237  0.00  0.00    +0.018 C 
ATOM     10  C   UNL     1      -4.864   0.087  23.828  0.00  0.00    +0.114 C 
ATOM     11  C   UNL     1      -4.061  -0.657  26.058  0.00  0.00    +0.119 C 
ATOM     12  C   UNL     1      -2.881  -1.041  22.693  0.00  0.00    +0.130 C 
ATOM     13  C   UNL     1      -2.028  -1.618  24.965  0.00  0.00    +0.027 A 
ATOM     14  C   UNL     1      -3.860   1.746  25.500  0.00  0.00    +0.302 C 
ATOM     16  C   UNL     1      -1.003  -1.804  25.809  0.00  0.00    +0.022 A 
ATOM     17  C   UNL     1      -0.502  -0.802  23.226  0.00  0.00    +0.259 A 
ATOM     22  C   UNL     1       0.623  -0.985  24.209  0.00  0.00    +0.047 A 
ATOM     24  C   UNL     1       0.341  -1.477  25.425  0.00  0.00    +0.015 A 
ATOM     32  H   UNL     1      -4.542   2.544  23.687  0.00  0.00    +0.151 HD
ENDROOT
BRANCH   6  15
ATOM     15  C   UNL     1      -3.726   4.123  24.800  0.00  0.00    +0.074 C 
ATOM     18  C   UNL     1      -3.039   4.289  26.160  0.00  0.00    +0.022 C 
ATOM     19  C   UNL     1      -2.871   4.713  23.672  0.00  0.00    +0.022 C 
ATOM     20  C   UNL     1      -1.609   3.749  26.162  0.00  0.00    +0.002 C 
ATOM     21  C   UNL     1      -1.441   4.172  23.678  0.00  0.00    +0.002 C 
ATOM     23  C   UNL     1      -0.776   4.358  25.038  0.00  0.00    +0.000 C 
ENDBRANCH   6  15
BRANCH  22  25
ATOM     25  C   UNL     1       2.009  -0.630  23.857  0.00  0.00    -0.013 A 
ATOM     26  C   UNL     1       3.044  -1.534  24.095  0.00  0.00    +0.010 A 
ATOM     27  C   UNL     1       2.289   0.613  23.288  0.00  0.00    +0.010 A 
ATOM     28  C   UNL     1       4.357  -1.198  23.763  0.00  0.00    +0.015 A 
ATOM     29  C   UNL     1       3.600   0.950  22.955  0.00  0.00    +0.015 A 
ATOM     30  C   UNL     1       4.635   0.044  23.193  0.00  0.00    +0.008 A 
BRANCH  30   1
ATOM      1  S   UNL     1       6.311   0.475  22.771  0.00  0.00    -0.129 S 
ATOM     31  C   UNL     1       7.092  -1.159  22.640  0.00  0.00    +0.090 C 
ENDBRANCH  30   1
ENDBRANCH  22  25
TORSDOF 3
ENDMDL
