MODEL 1
REMARK VINA RESULT:       8.0      0.000      0.000
REMARK  Name = 11867058
REMARK  11 active torsions:
REMARK  status: ('A' for Active; 'I' for Inactive)
REMARK    1  A    between atoms: O_3  and  C_15
REMARK    2  A    between atoms: O_4  and  C_20
REMARK    3  A    between atoms: N_8  and  C_26
REMARK    4  A    between atoms: N_8  and  C_27
REMARK    5  A    between atoms: C_10  and  C_18
REMARK    6  A    between atoms: C_12  and  C_20
REMARK    7  A    between atoms: C_12  and  C_21
REMARK    8  A    between atoms: C_13  and  C_23
REMARK    9  A    between atoms: C_23  and  C_24
REMARK   10  A    between atoms: C_26  and  C_29
REMARK   11  A    between atoms: C_28  and  C_30
REMARK                            x       y       z     vdW  Elec       q    Type
REMARK                         _______ _______ _______ _____ _____    ______ ____
ROOT
ATOM      1  S   UNL     1       0.257   2.175  25.723  0.00  0.00    -0.057 S 
ATOM      6  O   UNL     1       1.719  -0.415  22.141  0.00  0.00    -0.270 OA
ATOM      7  N   UNL     1      -0.489   0.923  23.585  0.00  0.00    -0.229 NA
ATOM      9  N   UNL     1       1.858   0.846  24.127  0.00  0.00    -0.261 N 
ATOM     10  C   UNL     1      -4.136   1.727  24.544  0.00  0.00    -0.019 C 
ATOM     11  C   UNL     1      -3.730   3.091  25.258  0.00  0.00    +0.011 C 
ATOM     12  C   UNL     1      -4.877   3.877  26.004  0.00  0.00    +0.021 C 
ATOM     13  C   UNL     1      -2.975   1.345  23.515  0.00  0.00    +0.054 C 
ATOM     14  C   UNL     1      -5.449   1.934  23.745  0.00  0.00    +0.010 C 
ATOM     15  C   UNL     1      -6.128   3.952  25.084  0.00  0.00    +0.123 C 
ATOM     16  C   UNL     1      -2.431   2.927  26.102  0.00  0.00    +0.049 C 
ATOM     17  C   UNL     1      -6.562   2.593  24.547  0.00  0.00    +0.032 C 
ATOM     18  C   UNL     1      -4.341   0.562  25.544  0.00  0.00    +0.012 C 
ATOM     19  C   UNL     1      -1.617   1.486  24.154  0.00  0.00    +0.058 A 
ATOM     21  C   UNL     1      -4.405   5.336  26.264  0.00  0.00    +0.016 C 
ATOM     22  C   UNL     1      -1.392   2.215  25.304  0.00  0.00    +0.015 A 
ATOM     25  C   UNL     1       0.555   1.216  24.330  0.00  0.00    +0.165 A 
ATOM     28  C   UNL     1       2.357   0.070  23.069  0.00  0.00    +0.250 C 
ATOM     39  H   UNL     1       2.498   1.232  24.815  0.00  0.00    +0.157 HD
ENDROOT
BRANCH  28  30
ATOM      2  F   UNL     1       7.878  -0.766  23.117  0.00  0.00    -0.205 F 
ATOM     30  C   UNL     1       3.828  -0.154  23.081  0.00  0.00    +0.037 A 
ATOM     31  C   UNL     1       4.644   0.764  22.454  0.00  0.00    +0.016 A 
ATOM     32  C   UNL     1       4.325  -1.270  23.720  0.00  0.00    +0.016 A 
ATOM     34  C   UNL     1       6.023   0.555  22.467  0.00  0.00    +0.039 A 
ATOM     35  C   UNL     1       5.704  -1.478  23.732  0.00  0.00    +0.039 A 
ATOM     36  C   UNL     1       6.553  -0.566  23.106  0.00  0.00    +0.123 A 
ENDBRANCH  28  30
BRANCH  15   3
ATOM      3  O   UNL     1      -7.227   4.544  25.777  0.00  0.00    -0.391 OA
ATOM     37  H   UNL     1      -7.935   3.881  25.841  0.00  0.00    +0.210 HD
ENDBRANCH  15   3
BRANCH  12  20
ATOM     20  C   UNL     1      -5.247   3.308  27.392  0.00  0.00    +0.165 C 
BRANCH  20   4
ATOM      4  O   UNL     1      -6.299   2.387  27.214  0.00  0.00    -0.394 OA
ATOM     38  H   UNL     1      -6.243   2.035  26.310  0.00  0.00    +0.209 HD
ENDBRANCH  20   4
ENDBRANCH  12  20
BRANCH  13  23
ATOM     23  C   UNL     1      -3.141  -0.024  22.844  0.00  0.00    +0.106 C 
BRANCH  23  24
ATOM      5  O   UNL     1      -4.975  -0.968  24.064  0.00  0.00    -0.276 OA
ATOM      8  N   UNL     1      -2.931  -2.046  24.245  0.00  0.00    -0.293 N 
ATOM     24  C   UNL     1      -3.780  -1.042  23.769  0.00  0.00    +0.217 C 
ATOM     27  C   UNL     1      -3.390  -3.099  25.141  0.00  0.00    +0.133 C 
BRANCH   8  26
ATOM     26  C   UNL     1      -1.517  -2.114  23.880  0.00  0.00    +0.196 C 
BRANCH  26  29
ATOM     29  C   UNL     1      -0.663  -2.047  25.065  0.00  0.00    -0.086 C 
ATOM     33  C   UNL     1       0.042  -1.993  26.036  0.00  0.00    +0.005 C 
ENDBRANCH  26  29
ENDBRANCH   8  26
ENDBRANCH  23  24
ENDBRANCH  13  23
TORSDOF 8
ENDMDL
MODEL 2
REMARK VINA RESULT:      10.5      1.109      1.709
REMARK  Name = 11867058
REMARK  11 active torsions:
REMARK  status: ('A' for Active; 'I' for Inactive)
REMARK    1  A    between atoms: O_3  and  C_15
REMARK    2  A    between atoms: O_4  and  C_20
REMARK    3  A    between atoms: N_8  and  C_26
REMARK    4  A    between atoms: N_8  and  C_27
REMARK    5  A    between atoms: C_10  and  C_18
REMARK    6  A    between atoms: C_12  and  C_20
REMARK    7  A    between atoms: C_12  and  C_21
REMARK    8  A    between atoms: C_13  and  C_23
REMARK    9  A    between atoms: C_23  and  C_24
REMARK   10  A    between atoms: C_26  and  C_29
REMARK   11  A    between atoms: C_28  and  C_30
REMARK                            x       y       z     vdW  Elec       q    Type
REMARK                         _______ _______ _______ _____ _____    ______ ____
ROOT
ATOM      1  S   UNL     1       0.606   2.504  25.641  0.00  0.00    -0.057 S 
ATOM      6  O   UNL     1       2.153  -0.289  22.254  0.00  0.00    -0.270 OA
ATOM      7  N   UNL     1      -0.104   1.027  23.639  0.00  0.00    -0.229 NA
ATOM      9  N   UNL     1       2.254   1.145  24.121  0.00  0.00    -0.261 N 
ATOM     10  C   UNL     1      -3.774   1.681  24.626  0.00  0.00    -0.019 C 
ATOM     11  C   UNL     1      -3.442   3.124  25.210  0.00  0.00    +0.011 C 
ATOM     12  C   UNL     1      -4.621   3.898  25.918  0.00  0.00    +0.021 C 
ATOM     13  C   UNL     1      -2.613   1.285  23.602  0.00  0.00    +0.054 C 
ATOM     14  C   UNL     1      -5.115   1.735  23.849  0.00  0.00    +0.010 C 
ATOM     15  C   UNL     1      -5.894   3.814  25.029  0.00  0.00    +0.123 C 
ATOM     16  C   UNL     1      -2.117   3.116  26.029  0.00  0.00    +0.049 C 
ATOM     17  C   UNL     1      -6.250   2.390  24.622  0.00  0.00    +0.032 C 
ATOM     18  C   UNL     1      -3.881   0.596  25.726  0.00  0.00    +0.012 C 
ATOM     19  C   UNL     1      -1.254   1.565  24.188  0.00  0.00    +0.058 A 
ATOM     21  C   UNL     1      -4.239   5.401  26.039  0.00  0.00    +0.016 C 
ATOM     22  C   UNL     1      -1.052   2.403  25.266  0.00  0.00    +0.015 A 
ATOM     25  C   UNL     1       0.934   1.448  24.328  0.00  0.00    +0.165 A 
ATOM     28  C   UNL     1       2.779   0.313  23.120  0.00  0.00    +0.250 C 
ATOM     39  H   UNL     1       2.882   1.628  24.756  0.00  0.00    +0.157 HD
ENDROOT
BRANCH  28  30
ATOM      2  F   UNL     1       8.341  -0.177  23.086  0.00  0.00    -0.205 F 
ATOM     30  C   UNL     1       4.261   0.184  23.110  0.00  0.00    +0.037 A 
ATOM     31  C   UNL     1       4.969   0.578  24.225  0.00  0.00    +0.016 A 
ATOM     32  C   UNL     1       4.876  -0.328  21.987  0.00  0.00    +0.016 A 
ATOM     34  C   UNL     1       6.358   0.456  24.217  0.00  0.00    +0.039 A 
ATOM     35  C   UNL     1       6.265  -0.451  21.979  0.00  0.00    +0.039 A 
ATOM     36  C   UNL     1       7.007  -0.059  23.093  0.00  0.00    +0.123 A 
ENDBRANCH  28  30
BRANCH  15   3
ATOM      3  O   UNL     1      -7.013   4.394  25.699  0.00  0.00    -0.391 OA
ATOM     37  H   UNL     1      -7.258   3.811  26.438  0.00  0.00    +0.210 HD
ENDBRANCH  15   3
BRANCH  12  20
ATOM     20  C   UNL     1      -4.922   3.429  27.358  0.00  0.00    +0.165 C 
BRANCH  20   4
ATOM      4  O   UNL     1      -5.971   2.490  27.296  0.00  0.00    -0.394 OA
ATOM     38  H   UNL     1      -6.794   2.969  27.098  0.00  0.00    +0.209 HD
ENDBRANCH  20   4
ENDBRANCH  12  20
BRANCH  13  23
ATOM     23  C   UNL     1      -2.706  -0.146  23.054  0.00  0.00    +0.106 C 
BRANCH  23  24
ATOM      5  O   UNL     1      -0.450  -0.954  23.097  0.00  0.00    -0.276 OA
ATOM      8  N   UNL     1      -1.935  -1.914  24.596  0.00  0.00    -0.293 N 
ATOM     24  C   UNL     1      -1.587  -1.030  23.569  0.00  0.00    +0.217 C 
ATOM     27  C   UNL     1      -0.976  -2.829  25.200  0.00  0.00    +0.133 C 
BRANCH   8  26
ATOM     26  C   UNL     1      -3.290  -1.986  25.139  0.00  0.00    +0.196 C 
BRANCH  26  29
ATOM     29  C   UNL     1      -4.220  -2.554  24.164  0.00  0.00    -0.086 C 
ATOM     33  C   UNL     1      -4.985  -3.017  23.362  0.00  0.00    +0.005 C 
ENDBRANCH  26  29
ENDBRANCH   8  26
ENDBRANCH  23  24
ENDBRANCH  13  23
TORSDOF 8
ENDMDL
