MODEL 1
REMARK VINA RESULT:      -5.8      0.000      0.000
REMARK  Name = 75536530
REMARK  12 active torsions:
REMARK  status: ('A' for Active; 'I' for Inactive)
REMARK    1  A    between atoms: O_2  and  C_8
REMARK    2  A    between atoms: N_4  and  C_7
REMARK    3  A    between atoms: N_4  and  C_13
REMARK    4  A    between atoms: N_5  and  C_11
REMARK    5  A    between atoms: C_9  and  C_11
REMARK    6  A    between atoms: C_12  and  C_14
REMARK    7  A    between atoms: C_12  and  C_16
REMARK    8  A    between atoms: C_12  and  C_17
REMARK    9  A    between atoms: C_12  and  C_18
REMARK   10  A    between atoms: C_13  and  C_19
REMARK   11  A    between atoms: C_14  and  C_15
REMARK   12  A    between atoms: C_22  and  C_25
REMARK                            x       y       z     vdW  Elec       q    Type
REMARK                         _______ _______ _______ _____ _____    ______ ____
ROOT
ATOM      1  O   UNL     1      -0.239   0.302  25.351  0.00  0.00    -0.371 OA
ATOM      7  C   UNL     1      -2.159  -1.064  25.653  0.00  0.00    +0.111 C 
ATOM      8  C   UNL     1      -1.636  -1.251  24.241  0.00  0.00    +0.164 C 
ATOM      9  C   UNL     1      -0.200  -0.770  24.394  0.00  0.00    +0.165 C 
ATOM     10  C   UNL     1      -1.497   0.245  26.049  0.00  0.00    +0.181 C 
ENDROOT
BRANCH   8   2
ATOM      2  O   UNL     1      -1.699  -2.596  23.809  0.00  0.00    -0.388 OA
ATOM     28  H   UNL     1      -2.329  -2.651  23.070  0.00  0.00    +0.210 HD
ENDBRANCH   8   2
BRANCH   7   4
ATOM      4  N   UNL     1      -3.610  -1.011  25.736  0.00  0.00    -0.305 NA
ATOM     26  H   UNL     1      -3.876  -0.529  26.596  0.00  0.00    +0.123 HD
BRANCH   4  13
ATOM     13  C   UNL     1      -4.176  -0.294  24.599  0.00  0.00    +0.116 C 
BRANCH  13  19
ATOM     19  C   UNL     1      -4.398   1.163  24.910  0.00  0.00    -0.032 A 
ATOM     20  C   UNL     1      -3.328   2.056  24.871  0.00  0.00    +0.023 A 
ATOM     21  C   UNL     1      -5.676   1.618  25.234  0.00  0.00    +0.005 A 
ATOM     22  C   UNL     1      -3.536   3.406  25.157  0.00  0.00    +0.052 A 
ATOM     23  C   UNL     1      -5.883   2.968  25.520  0.00  0.00    +0.002 A 
ATOM     24  C   UNL     1      -4.814   3.861  25.482  0.00  0.00    +0.019 A 
BRANCH  22  25
ATOM      6  N   UNL     1      -1.549   5.066  25.084  0.00  0.00    -0.191 NA
ATOM     25  C   UNL     1      -2.440   4.322  25.117  0.00  0.00    +0.099 C 
ENDBRANCH  22  25
ENDBRANCH  13  19
ENDBRANCH   4  13
ENDBRANCH   7   4
BRANCH   9  11
ATOM     11  C   UNL     1       0.410  -0.276  23.095  0.00  0.00    +0.138 C 
BRANCH  11   5
ATOM      3  O   UNL     1       2.586  -0.177  21.186  0.00  0.00    -0.276 OA
ATOM      5  N   UNL     1       1.735   0.263  23.303  0.00  0.00    -0.313 N 
ATOM     15  C   UNL     1       2.715   0.267  22.325  0.00  0.00    +0.214 C 
ATOM     27  H   UNL     1       1.939   0.664  24.212  0.00  0.00    +0.149 HD
BRANCH  15  14
ATOM     14  C   UNL     1       4.023   0.882  22.796  0.00  0.00    +0.102 C 
BRANCH  14  12
ATOM     12  C   UNL     1       5.003  -0.113  23.461  0.00  0.00    -0.029 C 
ATOM     16  C   UNL     1       5.492   0.510  24.783  0.00  0.00    +0.011 C 
ATOM     17  C   UNL     1       6.226  -0.368  22.563  0.00  0.00    +0.011 C 
ATOM     18  C   UNL     1       4.318  -1.452  23.778  0.00  0.00    +0.011 C 
ENDBRANCH  14  12
ENDBRANCH  15  14
ENDBRANCH  11   5
ENDBRANCH   9  11
TORSDOF 9
ENDMDL
MODEL 2
REMARK VINA RESULT:      -5.5      2.828      6.716
REMARK  Name = 75536530
REMARK  12 active torsions:
REMARK  status: ('A' for Active; 'I' for Inactive)
REMARK    1  A    between atoms: O_2  and  C_8
REMARK    2  A    between atoms: N_4  and  C_7
REMARK    3  A    between atoms: N_4  and  C_13
REMARK    4  A    between atoms: N_5  and  C_11
REMARK    5  A    between atoms: C_9  and  C_11
REMARK    6  A    between atoms: C_12  and  C_14
REMARK    7  A    between atoms: C_12  and  C_16
REMARK    8  A    between atoms: C_12  and  C_17
REMARK    9  A    between atoms: C_12  and  C_18
REMARK   10  A    between atoms: C_13  and  C_19
REMARK   11  A    between atoms: C_14  and  C_15
REMARK   12  A    between atoms: C_22  and  C_25
REMARK                            x       y       z     vdW  Elec       q    Type
REMARK                         _______ _______ _______ _____ _____    ______ ____
ROOT
ATOM      1  O   UNL     1      -4.318   3.709  26.409  0.00  0.00    -0.371 OA
ATOM      7  C   UNL     1      -2.658   4.345  24.834  0.00  0.00    +0.111 C 
ATOM      8  C   UNL     1      -3.514   3.246  24.233  0.00  0.00    +0.164 C 
ATOM      9  C   UNL     1      -4.768   3.349  25.092  0.00  0.00    +0.165 C 
ATOM     10  C   UNL     1      -2.966   4.191  26.314  0.00  0.00    +0.181 C 
ENDROOT
BRANCH   8   2
ATOM      2  O   UNL     1      -3.795   3.461  22.863  0.00  0.00    -0.388 OA
ATOM     28  H   UNL     1      -4.468   4.160  22.794  0.00  0.00    +0.210 HD
ENDBRANCH   8   2
BRANCH   7   4
ATOM      4  N   UNL     1      -1.241   4.210  24.534  0.00  0.00    -0.305 NA
ATOM     26  H   UNL     1      -0.825   5.141  24.472  0.00  0.00    +0.123 HD
BRANCH   4  13
ATOM     13  C   UNL     1      -0.553   3.455  25.575  0.00  0.00    +0.116 C 
BRANCH  13  19
ATOM     19  C   UNL     1      -0.368   2.011  25.189  0.00  0.00    -0.032 A 
ATOM     20  C   UNL     1       0.370   1.680  24.053  0.00  0.00    +0.023 A 
ATOM     21  C   UNL     1      -0.933   1.004  25.971  0.00  0.00    +0.005 A 
ATOM     22  C   UNL     1       0.541   0.342  23.698  0.00  0.00    +0.052 A 
ATOM     23  C   UNL     1      -0.762  -0.334  25.616  0.00  0.00    +0.002 A 
ATOM     24  C   UNL     1      -0.025  -0.665  24.480  0.00  0.00    +0.019 A 
BRANCH  22  25
ATOM      6  N   UNL     1       1.913  -0.275  21.589  0.00  0.00    -0.191 NA
ATOM     25  C   UNL     1       1.297   0.002  22.534  0.00  0.00    +0.099 C 
ENDBRANCH  22  25
ENDBRANCH  13  19
ENDBRANCH   4  13
ENDBRANCH   7   4
BRANCH   9  11
ATOM     11  C   UNL     1      -5.559   2.055  25.155  0.00  0.00    +0.138 C 
BRANCH  11   5
ATOM      3  O   UNL     1      -4.143  -0.310  26.044  0.00  0.00    -0.276 OA
ATOM      5  N   UNL     1      -4.963   1.028  24.331  0.00  0.00    -0.313 N 
ATOM     15  C   UNL     1      -4.302  -0.072  24.849  0.00  0.00    +0.214 C 
ATOM     27  H   UNL     1      -5.050   1.128  23.325  0.00  0.00    +0.149 HD
BRANCH  15  14
ATOM     14  C   UNL     1      -3.760  -1.000  23.774  0.00  0.00    +0.102 C 
BRANCH  14  12
ATOM     12  C   UNL     1      -3.440  -2.434  24.259  0.00  0.00    -0.029 C 
ATOM     16  C   UNL     1      -4.557  -3.369  23.755  0.00  0.00    +0.011 C 
ATOM     17  C   UNL     1      -3.406  -2.503  25.796  0.00  0.00    +0.011 C 
ATOM     18  C   UNL     1      -2.098  -2.932  23.699  0.00  0.00    +0.011 C 
ENDBRANCH  14  12
ENDBRANCH  15  14
ENDBRANCH  11   5
ENDBRANCH   9  11
TORSDOF 9
ENDMDL
MODEL 3
REMARK VINA RESULT:      -4.6      3.373      5.810
REMARK  Name = 75536530
REMARK  12 active torsions:
REMARK  status: ('A' for Active; 'I' for Inactive)
REMARK    1  A    between atoms: O_2  and  C_8
REMARK    2  A    between atoms: N_4  and  C_7
REMARK    3  A    between atoms: N_4  and  C_13
REMARK    4  A    between atoms: N_5  and  C_11
REMARK    5  A    between atoms: C_9  and  C_11
REMARK    6  A    between atoms: C_12  and  C_14
REMARK    7  A    between atoms: C_12  and  C_16
REMARK    8  A    between atoms: C_12  and  C_17
REMARK    9  A    between atoms: C_12  and  C_18
REMARK   10  A    between atoms: C_13  and  C_19
REMARK   11  A    between atoms: C_14  and  C_15
REMARK   12  A    between atoms: C_22  and  C_25
REMARK                            x       y       z     vdW  Elec       q    Type
REMARK                         _______ _______ _______ _____ _____    ______ ____
ROOT
ATOM      1  O   UNL     1      -3.923   3.957  23.975  0.00  0.00    -0.371 OA
ATOM      7  C   UNL     1      -5.459   2.222  24.501  0.00  0.00    +0.111 C 
ATOM      8  C   UNL     1      -4.918   2.812  25.790  0.00  0.00    +0.164 C 
ATOM      9  C   UNL     1      -4.421   4.168  25.307  0.00  0.00    +0.165 C 
ATOM     10  C   UNL     1      -4.422   2.695  23.495  0.00  0.00    +0.181 C 
ENDROOT
BRANCH   8   2
ATOM      2  O   UNL     1      -5.910   2.939  26.791  0.00  0.00    -0.388 OA
ATOM     28  H   UNL     1      -5.562   2.560  27.616  0.00  0.00    +0.210 HD
ENDBRANCH   8   2
BRANCH   7   4
ATOM      4  N   UNL     1      -5.596   0.775  24.533  0.00  0.00    -0.305 NA
ATOM     26  H   UNL     1      -5.350   0.397  23.617  0.00  0.00    +0.123 HD
BRANCH   4  13
ATOM     13  C   UNL     1      -4.719   0.186  25.537  0.00  0.00    +0.116 C 
BRANCH  13  19
ATOM     19  C   UNL     1      -3.921  -0.963  24.979  0.00  0.00    -0.032 A 
ATOM     20  C   UNL     1      -2.592  -1.143  25.362  0.00  0.00    +0.023 A 
ATOM     21  C   UNL     1      -4.514  -1.850  24.081  0.00  0.00    +0.005 A 
ATOM     22  C   UNL     1      -1.856  -2.209  24.845  0.00  0.00    +0.052 A 
ATOM     23  C   UNL     1      -3.778  -2.916  23.564  0.00  0.00    +0.002 A 
ATOM     24  C   UNL     1      -2.449  -3.096  23.945  0.00  0.00    +0.019 A 
BRANCH  22  25
ATOM      6  N   UNL     1       0.612  -2.546  25.556  0.00  0.00    -0.191 NA
ATOM     25  C   UNL     1      -0.494  -2.394  25.237  0.00  0.00    +0.099 C 
ENDBRANCH  22  25
ENDBRANCH  13  19
ENDBRANCH   4  13
ENDBRANCH   7   4
BRANCH   9  11
ATOM     11  C   UNL     1      -3.324   4.750  26.179  0.00  0.00    +0.138 C 
BRANCH  11   5
ATOM      3  O   UNL     1      -0.965   5.383  24.622  0.00  0.00    -0.276 OA
ATOM      5  N   UNL     1      -2.104   3.980  26.082  0.00  0.00    -0.313 N 
ATOM     15  C   UNL     1      -1.023   4.364  25.307  0.00  0.00    +0.214 C 
ATOM     27  H   UNL     1      -2.049   3.122  26.622  0.00  0.00    +0.149 HD
BRANCH  15  14
ATOM     14  C   UNL     1       0.132   3.379  25.369  0.00  0.00    +0.102 C 
BRANCH  14  12
ATOM     12  C   UNL     1      -0.164   1.996  24.743  0.00  0.00    -0.029 C 
ATOM     16  C   UNL     1      -0.584   1.040  25.877  0.00  0.00    +0.011 C 
ATOM     17  C   UNL     1       1.087   1.418  24.060  0.00  0.00    +0.011 C 
ATOM     18  C   UNL     1      -1.310   2.072  23.723  0.00  0.00    +0.011 C 
ENDBRANCH  14  12
ENDBRANCH  15  14
ENDBRANCH  11   5
ENDBRANCH   9  11
TORSDOF 9
ENDMDL
MODEL 4
REMARK VINA RESULT:      -4.0      2.423      7.009
REMARK  Name = 75536530
REMARK  12 active torsions:
REMARK  status: ('A' for Active; 'I' for Inactive)
REMARK    1  A    between atoms: O_2  and  C_8
REMARK    2  A    between atoms: N_4  and  C_7
REMARK    3  A    between atoms: N_4  and  C_13
REMARK    4  A    between atoms: N_5  and  C_11
REMARK    5  A    between atoms: C_9  and  C_11
REMARK    6  A    between atoms: C_12  and  C_14
REMARK    7  A    between atoms: C_12  and  C_16
REMARK    8  A    between atoms: C_12  and  C_17
REMARK    9  A    between atoms: C_12  and  C_18
REMARK   10  A    between atoms: C_13  and  C_19
REMARK   11  A    between atoms: C_14  and  C_15
REMARK   12  A    between atoms: C_22  and  C_25
REMARK                            x       y       z     vdW  Elec       q    Type
REMARK                         _______ _______ _______ _____ _____    ______ ____
ROOT
ATOM      1  O   UNL     1      -3.347   4.573  25.944  0.00  0.00    -0.371 OA
ATOM      7  C   UNL     1      -1.681   4.119  24.312  0.00  0.00    +0.111 C 
ATOM      8  C   UNL     1      -2.738   3.032  24.255  0.00  0.00    +0.164 C 
ATOM      9  C   UNL     1      -3.913   3.731  24.926  0.00  0.00    +0.165 C 
ATOM     10  C   UNL     1      -1.939   4.718  25.685  0.00  0.00    +0.181 C 
ENDROOT
BRANCH   8   2
ATOM      2  O   UNL     1      -3.044   2.637  22.932  0.00  0.00    -0.388 OA
ATOM     28  H   UNL     1      -4.008   2.524  22.862  0.00  0.00    +0.210 HD
ENDBRANCH   8   2
BRANCH   7   4
ATOM      4  N   UNL     1      -0.323   3.622  24.159  0.00  0.00    -0.305 NA
ATOM     26  H   UNL     1       0.321   4.267  24.617  0.00  0.00    +0.123 HD
BRANCH   4  13
ATOM     13  C   UNL     1      -0.175   2.302  24.761  0.00  0.00    +0.116 C 
BRANCH  13  19
ATOM     19  C   UNL     1       0.564   1.352  23.856  0.00  0.00    -0.032 A 
ATOM     20  C   UNL     1       1.958   1.342  23.842  0.00  0.00    +0.023 A 
ATOM     21  C   UNL     1      -0.148   0.480  23.033  0.00  0.00    +0.005 A 
ATOM     22  C   UNL     1       2.641   0.460  23.004  0.00  0.00    +0.052 A 
ATOM     23  C   UNL     1       0.535  -0.401  22.194  0.00  0.00    +0.002 A 
ATOM     24  C   UNL     1       1.928  -0.411  22.180  0.00  0.00    +0.019 A 
BRANCH  22  25
ATOM      6  N   UNL     1       5.231   0.438  22.979  0.00  0.00    -0.191 NA
ATOM     25  C   UNL     1       4.070   0.449  22.990  0.00  0.00    +0.099 C 
ENDBRANCH  22  25
ENDBRANCH  13  19
ENDBRANCH   4  13
ENDBRANCH   7   4
BRANCH   9  11
ATOM     11  C   UNL     1      -4.907   2.768  25.551  0.00  0.00    +0.138 C 
BRANCH  11   5
ATOM      3  O   UNL     1      -5.682   0.197  24.467  0.00  0.00    -0.276 OA
ATOM      5  N   UNL     1      -4.302   1.484  25.822  0.00  0.00    -0.313 N 
ATOM     15  C   UNL     1      -4.743   0.301  25.253  0.00  0.00    +0.214 C 
ATOM     27  H   UNL     1      -3.508   1.466  26.454  0.00  0.00    +0.149 HD
BRANCH  15  14
ATOM     14  C   UNL     1      -3.945  -0.910  25.705  0.00  0.00    +0.102 C 
BRANCH  14  12
ATOM     12  C   UNL     1      -3.199  -1.652  24.571  0.00  0.00    -0.029 C 
ATOM     16  C   UNL     1      -1.706  -1.724  24.949  0.00  0.00    +0.011 C 
ATOM     17  C   UNL     1      -3.326  -0.896  23.238  0.00  0.00    +0.011 C 
ATOM     18  C   UNL     1      -3.725  -3.085  24.394  0.00  0.00    +0.011 C 
ENDBRANCH  14  12
ENDBRANCH  15  14
ENDBRANCH  11   5
ENDBRANCH   9  11
TORSDOF 9
ENDMDL
MODEL 5
REMARK VINA RESULT:      -3.9      2.008      3.790
REMARK  Name = 75536530
REMARK  12 active torsions:
REMARK  status: ('A' for Active; 'I' for Inactive)
REMARK    1  A    between atoms: O_2  and  C_8
REMARK    2  A    between atoms: N_4  and  C_7
REMARK    3  A    between atoms: N_4  and  C_13
REMARK    4  A    between atoms: N_5  and  C_11
REMARK    5  A    between atoms: C_9  and  C_11
REMARK    6  A    between atoms: C_12  and  C_14
REMARK    7  A    between atoms: C_12  and  C_16
REMARK    8  A    between atoms: C_12  and  C_17
REMARK    9  A    between atoms: C_12  and  C_18
REMARK   10  A    between atoms: C_13  and  C_19
REMARK   11  A    between atoms: C_14  and  C_15
REMARK   12  A    between atoms: C_22  and  C_25
REMARK                            x       y       z     vdW  Elec       q    Type
REMARK                         _______ _______ _______ _____ _____    ______ ____
ROOT
ATOM      1  O   UNL     1      -1.010   1.701  22.784  0.00  0.00    -0.371 OA
ATOM      7  C   UNL     1      -2.937   2.801  23.632  0.00  0.00    +0.111 C 
ATOM      8  C   UNL     1      -1.920   2.655  24.748  0.00  0.00    +0.164 C 
ATOM      9  C   UNL     1      -0.638   2.452  23.951  0.00  0.00    +0.165 C 
ATOM     10  C   UNL     1      -2.440   1.768  22.633  0.00  0.00    +0.181 C 
ENDROOT
BRANCH   8   2
ATOM      2  O   UNL     1      -1.851   3.799  25.576  0.00  0.00    -0.388 OA
ATOM     28  H   UNL     1      -2.410   4.493  25.187  0.00  0.00    +0.210 HD
ENDBRANCH   8   2
BRANCH   7   4
ATOM      4  N   UNL     1      -4.308   2.563  24.055  0.00  0.00    -0.305 NA
ATOM     26  H   UNL     1      -4.820   2.121  23.291  0.00  0.00    +0.123 HD
BRANCH   4  13
ATOM     13  C   UNL     1      -4.353   1.688  25.220  0.00  0.00    +0.116 C 
BRANCH  13  19
ATOM     19  C   UNL     1      -3.921   0.285  24.884  0.00  0.00    -0.032 A 
ATOM     20  C   UNL     1      -2.654  -0.164  25.253  0.00  0.00    +0.023 A 
ATOM     21  C   UNL     1      -4.792  -0.567  24.204  0.00  0.00    +0.005 A 
ATOM     22  C   UNL     1      -2.256  -1.465  24.942  0.00  0.00    +0.052 A 
ATOM     23  C   UNL     1      -4.394  -1.868  23.893  0.00  0.00    +0.002 A 
ATOM     24  C   UNL     1      -3.127  -2.316  24.261  0.00  0.00    +0.019 A 
BRANCH  22  25
ATOM      6  N   UNL     1       0.097  -2.301  25.628  0.00  0.00    -0.191 NA
ATOM     25  C   UNL     1      -0.957  -1.925  25.320  0.00  0.00    +0.099 C 
ENDBRANCH  22  25
ENDBRANCH  13  19
ENDBRANCH   4  13
ENDBRANCH   7   4
BRANCH   9  11
ATOM     11  C   UNL     1       0.435   1.705  24.722  0.00  0.00    +0.138 C 
BRANCH  11   5
ATOM      3  O   UNL     1       1.438  -0.457  23.077  0.00  0.00    -0.276 OA
ATOM      5  N   UNL     1       1.681   1.665  23.991  0.00  0.00    -0.313 N 
ATOM     15  C   UNL     1       2.078   0.581  23.226  0.00  0.00    +0.214 C 
ATOM     27  H   UNL     1       2.279   2.483  24.042  0.00  0.00    +0.149 HD
BRANCH  15  14
ATOM     14  C   UNL     1       3.431   0.784  22.564  0.00  0.00    +0.102 C 
BRANCH  14  12
ATOM     12  C   UNL     1       4.594  -0.003  23.215  0.00  0.00    -0.029 C 
ATOM     16  C   UNL     1       5.159   0.849  24.369  0.00  0.00    +0.011 C 
ATOM     17  C   UNL     1       5.723  -0.260  22.203  0.00  0.00    +0.011 C 
ATOM     18  C   UNL     1       4.113  -1.344  23.792  0.00  0.00    +0.011 C 
ENDBRANCH  14  12
ENDBRANCH  15  14
ENDBRANCH  11   5
ENDBRANCH   9  11
TORSDOF 9
ENDMDL
MODEL 6
REMARK VINA RESULT:      -3.8      2.364      6.543
REMARK  Name = 75536530
REMARK  12 active torsions:
REMARK  status: ('A' for Active; 'I' for Inactive)
REMARK    1  A    between atoms: O_2  and  C_8
REMARK    2  A    between atoms: N_4  and  C_7
REMARK    3  A    between atoms: N_4  and  C_13
REMARK    4  A    between atoms: N_5  and  C_11
REMARK    5  A    between atoms: C_9  and  C_11
REMARK    6  A    between atoms: C_12  and  C_14
REMARK    7  A    between atoms: C_12  and  C_16
REMARK    8  A    between atoms: C_12  and  C_17
REMARK    9  A    between atoms: C_12  and  C_18
REMARK   10  A    between atoms: C_13  and  C_19
REMARK   11  A    between atoms: C_14  and  C_15
REMARK   12  A    between atoms: C_22  and  C_25
REMARK                            x       y       z     vdW  Elec       q    Type
REMARK                         _______ _______ _______ _____ _____    ______ ____
ROOT
ATOM      1  O   UNL     1      -4.345  -2.018  24.343  0.00  0.00    -0.371 OA
ATOM      7  C   UNL     1      -2.077  -2.277  25.000  0.00  0.00    +0.111 C 
ATOM      8  C   UNL     1      -2.526  -0.864  25.319  0.00  0.00    +0.164 C 
ATOM      9  C   UNL     1      -4.039  -1.035  25.346  0.00  0.00    +0.165 C 
ATOM     10  C   UNL     1      -3.132  -2.708  23.993  0.00  0.00    +0.181 C 
ENDROOT
BRANCH   8   2
ATOM      2  O   UNL     1      -2.026  -0.399  26.558  0.00  0.00    -0.388 OA
ATOM     28  H   UNL     1      -2.614   0.305  26.881  0.00  0.00    +0.210 HD
ENDBRANCH   8   2
BRANCH   7   4
ATOM      4  N   UNL     1      -0.725  -2.355  24.471  0.00  0.00    -0.305 NA
ATOM     26  H   UNL     1      -0.486  -3.335  24.312  0.00  0.00    +0.123 HD
BRANCH   4  13
ATOM     13  C   UNL     1      -0.612  -1.633  23.209  0.00  0.00    +0.116 C 
BRANCH  13  19
ATOM     19  C   UNL     1       0.273  -0.421  23.335  0.00  0.00    -0.032 A 
ATOM     20  C   UNL     1       1.638  -0.522  23.069  0.00  0.00    +0.023 A 
ATOM     21  C   UNL     1      -0.275   0.804  23.715  0.00  0.00    +0.005 A 
ATOM     22  C   UNL     1       2.456   0.602  23.184  0.00  0.00    +0.052 A 
ATOM     23  C   UNL     1       0.544   1.928  23.831  0.00  0.00    +0.002 A 
ATOM     24  C   UNL     1       1.908   1.827  23.566  0.00  0.00    +0.019 A 
BRANCH  22  25
ATOM      6  N   UNL     1       4.992   0.417  22.689  0.00  0.00    -0.191 NA
ATOM     25  C   UNL     1       3.855   0.500  22.912  0.00  0.00    +0.099 C 
ENDBRANCH  22  25
ENDBRANCH  13  19
ENDBRANCH   4  13
ENDBRANCH   7   4
BRANCH   9  11
ATOM     11  C   UNL     1      -4.794   0.249  25.054  0.00  0.00    +0.138 C 
BRANCH  11   5
ATOM      3  O   UNL     1      -5.364   3.089  25.075  0.00  0.00    -0.276 OA
ATOM      5  N   UNL     1      -3.893   1.327  24.713  0.00  0.00    -0.313 N 
ATOM     15  C   UNL     1      -4.258   2.662  24.753  0.00  0.00    +0.214 C 
ATOM     27  H   UNL     1      -2.948   1.077  24.442  0.00  0.00    +0.149 HD
BRANCH  15  14
ATOM     14  C   UNL     1      -3.133   3.598  24.341  0.00  0.00    +0.102 C 
BRANCH  14  12
ATOM     12  C   UNL     1      -2.275   4.132  25.512  0.00  0.00    -0.029 C 
ATOM     16  C   UNL     1      -3.230   4.609  26.624  0.00  0.00    +0.011 C 
ATOM     17  C   UNL     1      -1.414   5.327  25.066  0.00  0.00    +0.011 C 
ATOM     18  C   UNL     1      -1.364   3.037  26.089  0.00  0.00    +0.011 C 
ENDBRANCH  14  12
ENDBRANCH  15  14
ENDBRANCH  11   5
ENDBRANCH   9  11
TORSDOF 9
ENDMDL
MODEL 7
REMARK VINA RESULT:      -3.8      2.453      5.875
REMARK  Name = 75536530
REMARK  12 active torsions:
REMARK  status: ('A' for Active; 'I' for Inactive)
REMARK    1  A    between atoms: O_2  and  C_8
REMARK    2  A    between atoms: N_4  and  C_7
REMARK    3  A    between atoms: N_4  and  C_13
REMARK    4  A    between atoms: N_5  and  C_11
REMARK    5  A    between atoms: C_9  and  C_11
REMARK    6  A    between atoms: C_12  and  C_14
REMARK    7  A    between atoms: C_12  and  C_16
REMARK    8  A    between atoms: C_12  and  C_17
REMARK    9  A    between atoms: C_12  and  C_18
REMARK   10  A    between atoms: C_13  and  C_19
REMARK   11  A    between atoms: C_14  and  C_15
REMARK   12  A    between atoms: C_22  and  C_25
REMARK                            x       y       z     vdW  Elec       q    Type
REMARK                         _______ _______ _______ _____ _____    ______ ____
ROOT
ATOM      1  O   UNL     1       0.820  -1.278  23.102  0.00  0.00    -0.371 OA
ATOM      7  C   UNL     1       0.780   0.802  24.248  0.00  0.00    +0.111 C 
ATOM      8  C   UNL     1      -0.369  -0.056  24.741  0.00  0.00    +0.164 C 
ATOM      9  C   UNL     1       0.108  -1.445  24.339  0.00  0.00    +0.165 C 
ATOM     10  C   UNL     1       1.126   0.119  22.935  0.00  0.00    +0.181 C 
ENDROOT
BRANCH   8   2
ATOM      2  O   UNL     1      -0.570   0.049  26.138  0.00  0.00    -0.388 OA
ATOM     28  H   UNL     1       0.091   0.667  26.496  0.00  0.00    +0.210 HD
ENDBRANCH   8   2
BRANCH   7   4
ATOM      4  N   UNL     1       0.433   2.204  24.081  0.00  0.00    -0.305 NA
ATOM     26  H   UNL     1      -0.428   2.271  23.536  0.00  0.00    +0.123 HD
BRANCH   4  13
ATOM     13  C   UNL     1       0.225   2.852  25.371  0.00  0.00    +0.116 C 
BRANCH  13  19
ATOM     19  C   UNL     1      -0.986   3.747  25.360  0.00  0.00    -0.032 A 
ATOM     20  C   UNL     1      -2.234   3.239  25.717  0.00  0.00    +0.023 A 
ATOM     21  C   UNL     1      -0.857   5.087  24.994  0.00  0.00    +0.005 A 
ATOM     22  C   UNL     1      -3.355   4.070  25.708  0.00  0.00    +0.052 A 
ATOM     23  C   UNL     1      -1.978   5.918  24.985  0.00  0.00    +0.002 A 
ATOM     24  C   UNL     1      -3.226   5.410  25.341  0.00  0.00    +0.019 A 
BRANCH  22  25
ATOM      6  N   UNL     1      -5.673   3.126  26.372  0.00  0.00    -0.191 NA
ATOM     25  C   UNL     1      -4.634   3.550  26.075  0.00  0.00    +0.099 C 
ENDBRANCH  22  25
ENDBRANCH  13  19
ENDBRANCH   4  13
ENDBRANCH   7   4
BRANCH   9  11
ATOM     11  C   UNL     1      -1.024  -2.438  24.150  0.00  0.00    +0.138 C 
BRANCH  11   5
ATOM      3  O   UNL     1      -3.671  -3.365  24.873  0.00  0.00    -0.276 OA
ATOM      5  N   UNL     1      -2.283  -1.767  23.915  0.00  0.00    -0.313 N 
ATOM     15  C   UNL     1      -3.505  -2.291  24.298  0.00  0.00    +0.214 C 
ATOM     27  H   UNL     1      -2.251  -0.864  23.454  0.00  0.00    +0.149 HD
BRANCH  15  14
ATOM     14  C   UNL     1      -4.677  -1.397  23.930  0.00  0.00    +0.102 C 
BRANCH  14  12
ATOM     12  C   UNL     1      -4.587   0.047  24.479  0.00  0.00    -0.029 C 
ATOM     16  C   UNL     1      -4.004  -0.020  25.904  0.00  0.00    +0.011 C 
ATOM     17  C   UNL     1      -5.978   0.699  24.553  0.00  0.00    +0.011 C 
ATOM     18  C   UNL     1      -3.662   0.920  23.616  0.00  0.00    +0.011 C 
ENDBRANCH  14  12
ENDBRANCH  15  14
ENDBRANCH  11   5
ENDBRANCH   9  11
TORSDOF 9
ENDMDL
MODEL 8
REMARK VINA RESULT:      -3.6      2.939      6.301
REMARK  Name = 75536530
REMARK  12 active torsions:
REMARK  status: ('A' for Active; 'I' for Inactive)
REMARK    1  A    between atoms: O_2  and  C_8
REMARK    2  A    between atoms: N_4  and  C_7
REMARK    3  A    between atoms: N_4  and  C_13
REMARK    4  A    between atoms: N_5  and  C_11
REMARK    5  A    between atoms: C_9  and  C_11
REMARK    6  A    between atoms: C_12  and  C_14
REMARK    7  A    between atoms: C_12  and  C_16
REMARK    8  A    between atoms: C_12  and  C_17
REMARK    9  A    between atoms: C_12  and  C_18
REMARK   10  A    between atoms: C_13  and  C_19
REMARK   11  A    between atoms: C_14  and  C_15
REMARK   12  A    between atoms: C_22  and  C_25
REMARK                            x       y       z     vdW  Elec       q    Type
REMARK                         _______ _______ _______ _____ _____    ______ ____
ROOT
ATOM      1  O   UNL     1      -1.426  -2.381  23.668  0.00  0.00    -0.371 OA
ATOM      7  C   UNL     1       0.016  -0.714  24.554  0.00  0.00    +0.111 C 
ATOM      8  C   UNL     1      -1.239  -0.785  25.405  0.00  0.00    +0.164 C 
ATOM      9  C   UNL     1      -1.753  -2.175  25.053  0.00  0.00    +0.165 C 
ATOM     10  C   UNL     1      -0.444  -1.403  23.280  0.00  0.00    +0.181 C 
ENDROOT
BRANCH   8   2
ATOM      2  O   UNL     1      -0.970  -0.656  26.787  0.00  0.00    -0.388 OA
ATOM     28  H   UNL     1      -0.012  -0.533  26.902  0.00  0.00    +0.210 HD
ENDBRANCH   8   2
BRANCH   7   4
ATOM      4  N   UNL     1       0.489   0.642  24.324  0.00  0.00    -0.305 NA
ATOM     26  H   UNL     1       1.388   0.603  23.843  0.00  0.00    +0.123 HD
BRANCH   4  13
ATOM     13  C   UNL     1      -0.452   1.395  23.504  0.00  0.00    +0.116 C 
BRANCH  13  19
ATOM     19  C   UNL     1      -0.778   2.734  24.110  0.00  0.00    -0.032 A 
ATOM     20  C   UNL     1      -1.659   2.819  25.188  0.00  0.00    +0.023 A 
ATOM     21  C   UNL     1      -0.194   3.892  23.594  0.00  0.00    +0.005 A 
ATOM     22  C   UNL     1      -1.958   4.060  25.749  0.00  0.00    +0.052 A 
ATOM     23  C   UNL     1      -0.493   5.133  24.155  0.00  0.00    +0.002 A 
ATOM     24  C   UNL     1      -1.375   5.218  25.232  0.00  0.00    +0.019 A 
BRANCH  22  25
ATOM      6  N   UNL     1      -3.595   4.218  27.750  0.00  0.00    -0.191 NA
ATOM     25  C   UNL     1      -2.860   4.147  26.853  0.00  0.00    +0.099 C 
ENDBRANCH  22  25
ENDBRANCH  13  19
ENDBRANCH   4  13
ENDBRANCH   7   4
BRANCH   9  11
ATOM     11  C   UNL     1      -3.249  -2.331  25.256  0.00  0.00    +0.138 C 
BRANCH  11   5
ATOM      3  O   UNL     1      -3.970   0.029  23.741  0.00  0.00    -0.276 OA
ATOM      5  N   UNL     1      -3.845  -1.115  25.760  0.00  0.00    -0.313 N 
ATOM     15  C   UNL     1      -4.156  -0.032  24.955  0.00  0.00    +0.214 C 
ATOM     27  H   UNL     1      -4.048  -1.070  26.753  0.00  0.00    +0.149 HD
BRANCH  15  14
ATOM     14  C   UNL     1      -4.766   1.127  25.726  0.00  0.00    +0.102 C 
BRANCH  14  12
ATOM     12  C   UNL     1      -5.492   2.175  24.850  0.00  0.00    -0.029 C 
ATOM     16  C   UNL     1      -5.869   3.369  25.749  0.00  0.00    +0.011 C 
ATOM     17  C   UNL     1      -6.783   1.594  24.248  0.00  0.00    +0.011 C 
ATOM     18  C   UNL     1      -4.589   2.685  23.716  0.00  0.00    +0.011 C 
ENDBRANCH  14  12
ENDBRANCH  15  14
ENDBRANCH  11   5
ENDBRANCH   9  11
TORSDOF 9
ENDMDL
MODEL 9
REMARK VINA RESULT:      -3.3      1.482      2.063
REMARK  Name = 75536530
REMARK  12 active torsions:
REMARK  status: ('A' for Active; 'I' for Inactive)
REMARK    1  A    between atoms: O_2  and  C_8
REMARK    2  A    between atoms: N_4  and  C_7
REMARK    3  A    between atoms: N_4  and  C_13
REMARK    4  A    between atoms: N_5  and  C_11
REMARK    5  A    between atoms: C_9  and  C_11
REMARK    6  A    between atoms: C_12  and  C_14
REMARK    7  A    between atoms: C_12  and  C_16
REMARK    8  A    between atoms: C_12  and  C_17
REMARK    9  A    between atoms: C_12  and  C_18
REMARK   10  A    between atoms: C_13  and  C_19
REMARK   11  A    between atoms: C_14  and  C_15
REMARK   12  A    between atoms: C_22  and  C_25
REMARK                            x       y       z     vdW  Elec       q    Type
REMARK                         _______ _______ _______ _____ _____    ______ ____
ROOT
ATOM      1  O   UNL     1      -0.338   0.610  25.766  0.00  0.00    -0.371 OA
ATOM      7  C   UNL     1      -1.452  -1.260  24.814  0.00  0.00    +0.111 C 
ATOM      8  C   UNL     1      -0.731  -0.502  23.715  0.00  0.00    +0.164 C 
ATOM      9  C   UNL     1       0.301   0.274  24.523  0.00  0.00    +0.165 C 
ATOM     10  C   UNL     1      -1.509  -0.213  25.915  0.00  0.00    +0.181 C 
ENDROOT
BRANCH   8   2
ATOM      2  O   UNL     1      -0.124  -1.360  22.769  0.00  0.00    -0.388 OA
ATOM     28  H   UNL     1      -0.510  -1.175  21.896  0.00  0.00    +0.210 HD
ENDBRANCH   8   2
BRANCH   7   4
ATOM      4  N   UNL     1      -2.768  -1.742  24.425  0.00  0.00    -0.305 NA
ATOM     26  H   UNL     1      -2.857  -2.722  24.699  0.00  0.00    +0.123 HD
BRANCH   4  13
ATOM     13  C   UNL     1      -3.823  -0.973  25.073  0.00  0.00    +0.116 C 
BRANCH  13  19
ATOM     19  C   UNL     1      -3.906   0.430  24.532  0.00  0.00    -0.032 A 
ATOM     20  C   UNL     1      -4.656   1.395  25.203  0.00  0.00    +0.023 A 
ATOM     21  C   UNL     1      -3.229   0.765  23.359  0.00  0.00    +0.005 A 
ATOM     22  C   UNL     1      -4.730   2.695  24.701  0.00  0.00    +0.052 A 
ATOM     23  C   UNL     1      -3.303   2.064  22.857  0.00  0.00    +0.002 A 
ATOM     24  C   UNL     1      -4.054   3.029  23.528  0.00  0.00    +0.019 A 
BRANCH  22  25
ATOM      6  N   UNL     1      -6.122   4.488  25.950  0.00  0.00    -0.191 NA
ATOM     25  C   UNL     1      -5.498   3.684  25.389  0.00  0.00    +0.099 C 
ENDBRANCH  22  25
ENDBRANCH  13  19
ENDBRANCH   4  13
ENDBRANCH   7   4
BRANCH   9  11
ATOM     11  C   UNL     1       0.776   1.539  23.832  0.00  0.00    +0.138 C 
BRANCH  11   5
ATOM      3  O   UNL     1       2.149  -0.109  21.886  0.00  0.00    -0.276 OA
ATOM      5  N   UNL     1       2.197   1.496  23.566  0.00  0.00    -0.313 N 
ATOM     15  C   UNL     1       2.765   0.671  22.610  0.00  0.00    +0.214 C 
ATOM     27  H   UNL     1       2.792   2.113  24.107  0.00  0.00    +0.149 HD
BRANCH  15  14
ATOM     14  C   UNL     1       4.276   0.806  22.530  0.00  0.00    +0.102 C 
BRANCH  14  12
ATOM     12  C   UNL     1       5.060  -0.128  23.482  0.00  0.00    -0.029 C 
ATOM     16  C   UNL     1       4.185  -1.366  23.763  0.00  0.00    +0.011 C 
ATOM     17  C   UNL     1       5.358   0.569  24.820  0.00  0.00    +0.011 C 
ATOM     18  C   UNL     1       6.379  -0.598  22.850  0.00  0.00    +0.011 C 
ENDBRANCH  14  12
ENDBRANCH  15  14
ENDBRANCH  11   5
ENDBRANCH   9  11
TORSDOF 9
ENDMDL
MODEL 10
REMARK VINA RESULT:      -2.9      3.161      7.202
REMARK  Name = 75536530
REMARK  12 active torsions:
REMARK  status: ('A' for Active; 'I' for Inactive)
REMARK    1  A    between atoms: O_2  and  C_8
REMARK    2  A    between atoms: N_4  and  C_7
REMARK    3  A    between atoms: N_4  and  C_13
REMARK    4  A    between atoms: N_5  and  C_11
REMARK    5  A    between atoms: C_9  and  C_11
REMARK    6  A    between atoms: C_12  and  C_14
REMARK    7  A    between atoms: C_12  and  C_16
REMARK    8  A    between atoms: C_12  and  C_17
REMARK    9  A    between atoms: C_12  and  C_18
REMARK   10  A    between atoms: C_13  and  C_19
REMARK   11  A    between atoms: C_14  and  C_15
REMARK   12  A    between atoms: C_22  and  C_25
REMARK                            x       y       z     vdW  Elec       q    Type
REMARK                         _______ _______ _______ _____ _____    ______ ____
ROOT
ATOM      1  O   UNL     1      -0.617   3.466  26.570  0.00  0.00    -0.371 OA
ATOM      7  C   UNL     1       0.650   2.389  24.873  0.00  0.00    +0.111 C 
ATOM      8  C   UNL     1      -0.516   3.118  24.233  0.00  0.00    +0.164 C 
ATOM      9  C   UNL     1      -0.863   4.128  25.319  0.00  0.00    +0.165 C 
ATOM     10  C   UNL     1       0.193   2.302  26.320  0.00  0.00    +0.181 C 
ENDROOT
BRANCH   8   2
ATOM      2  O   UNL     1      -0.164   3.750  23.017  0.00  0.00    -0.388 OA
ATOM     28  H   UNL     1       0.674   3.368  22.705  0.00  0.00    +0.210 HD
ENDBRANCH   8   2
BRANCH   7   4
ATOM      4  N   UNL     1       0.918   1.086  24.286  0.00  0.00    -0.305 NA
ATOM     26  H   UNL     1       1.105   0.417  25.034  0.00  0.00    +0.123 HD
BRANCH   4  13
ATOM     13  C   UNL     1      -0.221   0.616  23.507  0.00  0.00    +0.116 C 
BRANCH  13  19
ATOM     19  C   UNL     1      -1.173  -0.199  24.343  0.00  0.00    -0.032 A 
ATOM     20  C   UNL     1      -2.233  -0.873  23.738  0.00  0.00    +0.023 A 
ATOM     21  C   UNL     1      -0.991  -0.282  25.723  0.00  0.00    +0.005 A 
ATOM     22  C   UNL     1      -3.113  -1.629  24.514  0.00  0.00    +0.052 A 
ATOM     23  C   UNL     1      -1.870  -1.038  26.499  0.00  0.00    +0.002 A 
ATOM     24  C   UNL     1      -2.931  -1.711  25.895  0.00  0.00    +0.019 A 
BRANCH  22  25
ATOM      6  N   UNL     1      -5.083  -2.881  23.393  0.00  0.00    -0.191 NA
ATOM     25  C   UNL     1      -4.199  -2.320  23.895  0.00  0.00    +0.099 C 
ENDBRANCH  22  25
ENDBRANCH  13  19
ENDBRANCH   4  13
ENDBRANCH   7   4
BRANCH   9  11
ATOM     11  C   UNL     1      -2.305   4.598  25.262  0.00  0.00    +0.138 C 
BRANCH  11   5
ATOM      3  O   UNL     1      -3.309   2.643  23.376  0.00  0.00    -0.276 OA
ATOM      5  N   UNL     1      -3.226   3.517  25.528  0.00  0.00    -0.313 N 
ATOM     15  C   UNL     1      -3.652   2.626  24.557  0.00  0.00    +0.214 C 
ATOM     27  H   UNL     1      -3.561   3.411  26.480  0.00  0.00    +0.149 HD
BRANCH  15  14
ATOM     14  C   UNL     1      -4.624   1.586  25.088  0.00  0.00    +0.102 C 
BRANCH  14  12
ATOM     12  C   UNL     1      -6.008   2.145  25.496  0.00  0.00    -0.029 C 
ATOM     16  C   UNL     1      -7.025   1.742  24.409  0.00  0.00    +0.011 C 
ATOM     17  C   UNL     1      -5.980   3.680  25.589  0.00  0.00    +0.011 C 
ATOM     18  C   UNL     1      -6.477   1.564  26.839  0.00  0.00    +0.011 C 
ENDBRANCH  14  12
ENDBRANCH  15  14
ENDBRANCH  11   5
ENDBRANCH   9  11
TORSDOF 9
ENDMDL
