MODEL 1
REMARK VINA RESULT:      -4.9      0.000      0.000
REMARK  Name = 75537076
REMARK  4 active torsions:
REMARK  status: ('A' for Active; 'I' for Inactive)
REMARK    1  A    between atoms: N_2  and  C_9
REMARK    2  A    between atoms: N_4  and  C_16
REMARK    3  A    between atoms: C_6  and  C_9
REMARK    4  A    between atoms: C_16  and  C_17
REMARK                            x       y       z     vdW  Elec       q    Type
REMARK                         _______ _______ _______ _____ _____    ______ ____
ROOT
ATOM      1  O   UNL     1      -0.506  -1.565  23.550  0.00  0.00    -0.252 OA
ATOM      2  N   UNL     1      -2.362   2.669  25.647  0.00  0.00    -0.299 NA
ATOM      3  N   UNL     1      -0.919   0.469  24.650  0.00  0.00    -0.278 N 
ATOM      4  N   UNL     1       0.873   0.333  23.304  0.00  0.00    -0.278 N 
ATOM     10  C   UNL     1      -0.239   1.736  24.822  0.00  0.00    +0.109 C 
ATOM     11  C   UNL     1      -1.234   2.892  24.721  0.00  0.00    +0.108 C 
ATOM     12  C   UNL     1      -3.067   1.411  25.325  0.00  0.00    +0.103 C 
ATOM     13  C   UNL     1      -2.127   0.206  25.404  0.00  0.00    +0.125 C 
ATOM     14  C   UNL     1       0.837   1.719  23.739  0.00  0.00    +0.133 C 
ATOM     15  C   UNL     1      -0.219  -0.403  23.807  0.00  0.00    +0.306 C 
ENDROOT
BRANCH   2   9
ATOM      9  C   UNL     1      -3.289   3.799  25.603  0.00  0.00    +0.088 C 
BRANCH   9   6
ATOM      6  C   UNL     1      -4.625   3.385  25.078  0.00  0.00    +0.003 C 
ATOM      7  C   UNL     1      -5.855   4.172  25.435  0.00  0.00    +0.005 C 
ATOM      8  C   UNL     1      -5.653   2.796  26.006  0.00  0.00    +0.005 C 
ENDBRANCH   9   6
ENDBRANCH   2   9
BRANCH   4  16
ATOM     16  C   UNL     1       1.847  -0.146  22.347  0.00  0.00    +0.164 C 
BRANCH  16  17
ATOM      5  N   UNL     1       3.571  -1.407  23.502  0.00  0.00    -0.258 NA
ATOM     17  C   UNL     1       3.224  -0.228  22.939  0.00  0.00    +0.059 A 
ATOM     18  C   UNL     1       4.054   0.880  22.883  0.00  0.00    +0.025 A 
ATOM     19  C   UNL     1       5.323   0.771  23.440  0.00  0.00    +0.003 A 
ATOM     20  C   UNL     1       4.813  -1.476  24.033  0.00  0.00    +0.111 A 
ATOM     21  C   UNL     1       5.718  -0.426  24.027  0.00  0.00    +0.020 A 
ENDBRANCH  16  17
ENDBRANCH   4  16
TORSDOF 4
ENDMDL
MODEL 2
REMARK VINA RESULT:      -3.9     16.511     17.822
REMARK  Name = 75537076
REMARK  4 active torsions:
REMARK  status: ('A' for Active; 'I' for Inactive)
REMARK    1  A    between atoms: N_2  and  C_9
REMARK    2  A    between atoms: N_4  and  C_16
REMARK    3  A    between atoms: C_6  and  C_9
REMARK    4  A    between atoms: C_16  and  C_17
REMARK                            x       y       z     vdW  Elec       q    Type
REMARK                         _______ _______ _______ _____ _____    ______ ____
ROOT
ATOM      1  O   UNL     1      15.597  -8.063  25.783  0.00  0.00    -0.252 OA
ATOM      2  N   UNL     1      15.366  -6.371  30.563  0.00  0.00    -0.299 NA
ATOM      3  N   UNL     1      15.955  -7.227  27.949  0.00  0.00    -0.278 N 
ATOM      4  N   UNL     1      16.991  -6.214  26.233  0.00  0.00    -0.278 N 
ATOM     10  C   UNL     1      16.809  -6.238  28.573  0.00  0.00    +0.109 C 
ATOM     11  C   UNL     1      16.027  -5.446  29.620  0.00  0.00    +0.108 C 
ATOM     12  C   UNL     1      14.429  -7.265  29.853  0.00  0.00    +0.103 C 
ATOM     13  C   UNL     1      15.145  -8.092  28.783  0.00  0.00    +0.125 C 
ATOM     14  C   UNL     1      17.325  -5.412  27.397  0.00  0.00    +0.133 C 
ATOM     15  C   UNL     1      16.118  -7.272  26.558  0.00  0.00    +0.306 C 
ENDROOT
BRANCH   2   9
ATOM      9  C   UNL     1      14.665  -5.622  31.606  0.00  0.00    +0.088 C 
BRANCH   9   6
ATOM      6  C   UNL     1      13.200  -5.911  31.590  0.00  0.00    +0.003 C 
ATOM      7  C   UNL     1      12.209  -4.812  31.855  0.00  0.00    +0.005 C 
ATOM      8  C   UNL     1      12.412  -5.901  32.872  0.00  0.00    +0.005 C 
ENDBRANCH   9   6
ENDBRANCH   2   9
BRANCH   4  16
ATOM     16  C   UNL     1      17.405  -5.840  24.899  0.00  0.00    +0.164 C 
BRANCH  16  17
ATOM      5  N   UNL     1      17.389  -3.519  25.612  0.00  0.00    -0.258 NA
ATOM     17  C   UNL     1      17.136  -4.391  24.611  0.00  0.00    +0.059 A 
ATOM     18  C   UNL     1      16.654  -4.025  23.365  0.00  0.00    +0.025 A 
ATOM     19  C   UNL     1      16.415  -2.676  23.131  0.00  0.00    +0.003 A 
ATOM     20  C   UNL     1      17.146  -2.215  25.347  0.00  0.00    +0.111 A 
ATOM     21  C   UNL     1      16.664  -1.746  24.136  0.00  0.00    +0.020 A 
ENDBRANCH  16  17
ENDBRANCH   4  16
TORSDOF 4
ENDMDL
MODEL 3
REMARK VINA RESULT:      -2.7      1.559      2.202
REMARK  Name = 75537076
REMARK  4 active torsions:
REMARK  status: ('A' for Active; 'I' for Inactive)
REMARK    1  A    between atoms: N_2  and  C_9
REMARK    2  A    between atoms: N_4  and  C_16
REMARK    3  A    between atoms: C_6  and  C_9
REMARK    4  A    between atoms: C_16  and  C_17
REMARK                            x       y       z     vdW  Elec       q    Type
REMARK                         _______ _______ _______ _____ _____    ______ ____
ROOT
ATOM      1  O   UNL     1       1.438   1.617  25.012  0.00  0.00    -0.252 OA
ATOM      2  N   UNL     1      -3.257   3.508  24.629  0.00  0.00    -0.299 NA
ATOM      3  N   UNL     1      -0.664   2.448  24.372  0.00  0.00    -0.278 N 
ATOM      4  N   UNL     1       0.114   0.613  23.338  0.00  0.00    -0.278 N 
ATOM     10  C   UNL     1      -1.641   2.171  23.340  0.00  0.00    +0.109 C 
ATOM     11  C   UNL     1      -3.055   2.230  23.917  0.00  0.00    +0.108 C 
ATOM     12  C   UNL     1      -2.290   3.653  25.736  0.00  0.00    +0.103 C 
ATOM     13  C   UNL     1      -0.847   3.601  25.230  0.00  0.00    +0.125 C 
ATOM     14  C   UNL     1      -1.223   0.804  22.803  0.00  0.00    +0.133 C 
ATOM     15  C   UNL     1       0.426   1.570  24.325  0.00  0.00    +0.306 C 
ENDROOT
BRANCH   2   9
ATOM      9  C   UNL     1      -4.627   3.600  25.132  0.00  0.00    +0.088 C 
BRANCH   9   6
ATOM      6  C   UNL     1      -5.180   2.250  25.454  0.00  0.00    +0.003 C 
ATOM      7  C   UNL     1      -6.527   1.840  24.929  0.00  0.00    +0.005 C 
ATOM      8  C   UNL     1      -6.345   2.114  26.396  0.00  0.00    +0.005 C 
ENDBRANCH   9   6
ENDBRANCH   2   9
BRANCH   4  16
ATOM     16  C   UNL     1       0.928  -0.528  22.978  0.00  0.00    +0.164 C 
BRANCH  16  17
ATOM      5  N   UNL     1       2.801   0.946  22.512  0.00  0.00    -0.258 NA
ATOM     17  C   UNL     1       2.395  -0.220  23.061  0.00  0.00    +0.059 A 
ATOM     18  C   UNL     1       3.244  -1.123  23.682  0.00  0.00    +0.025 A 
ATOM     19  C   UNL     1       4.596  -0.808  23.742  0.00  0.00    +0.003 A 
ATOM     20  C   UNL     1       4.123   1.219  22.590  0.00  0.00    +0.111 A 
ATOM     21  C   UNL     1       5.053   0.384  23.189  0.00  0.00    +0.020 A 
ENDBRANCH  16  17
ENDBRANCH   4  16
TORSDOF 4
ENDMDL
MODEL 4
REMARK VINA RESULT:      -2.7      1.016      7.617
REMARK  Name = 75537076
REMARK  4 active torsions:
REMARK  status: ('A' for Active; 'I' for Inactive)
REMARK    1  A    between atoms: N_2  and  C_9
REMARK    2  A    between atoms: N_4  and  C_16
REMARK    3  A    between atoms: C_6  and  C_9
REMARK    4  A    between atoms: C_16  and  C_17
REMARK                            x       y       z     vdW  Elec       q    Type
REMARK                         _______ _______ _______ _____ _____    ______ ____
ROOT
ATOM      1  O   UNL     1      -1.423  -1.706  23.669  0.00  0.00    -0.252 OA
ATOM      2  N   UNL     1       2.784   0.930  22.612  0.00  0.00    -0.299 NA
ATOM      3  N   UNL     1       0.235  -0.116  23.179  0.00  0.00    -0.278 N 
ATOM      4  N   UNL     1      -1.271   0.374  24.771  0.00  0.00    -0.278 N 
ATOM     10  C   UNL     1       0.532   1.252  23.550  0.00  0.00    +0.109 C 
ATOM     11  C   UNL     1       2.032   1.427  23.782  0.00  0.00    +0.108 C 
ATOM     12  C   UNL     1       2.507  -0.502  22.377  0.00  0.00    +0.103 C 
ATOM     13  C   UNL     1       1.017  -0.753  22.139  0.00  0.00    +0.125 C 
ATOM     14  C   UNL     1      -0.340   1.490  24.781  0.00  0.00    +0.133 C 
ATOM     15  C   UNL     1      -0.889  -0.619  23.846  0.00  0.00    +0.306 C 
ENDROOT
BRANCH   2   9
ATOM      9  C   UNL     1       4.218   1.148  22.798  0.00  0.00    +0.088 C 
BRANCH   9   6
ATOM      6  C   UNL     1       4.930  -0.134  23.084  0.00  0.00    +0.003 C 
ATOM      7  C   UNL     1       5.442  -0.422  24.467  0.00  0.00    +0.005 C 
ATOM      8  C   UNL     1       6.411  -0.134  23.354  0.00  0.00    +0.005 C 
ENDBRANCH   9   6
ENDBRANCH   2   9
BRANCH   4  16
ATOM     16  C   UNL     1      -2.355   0.272  25.723  0.00  0.00    +0.164 C 
BRANCH  16  17
ATOM      5  N   UNL     1      -3.094   2.579  25.563  0.00  0.00    -0.258 NA
ATOM     17  C   UNL     1      -3.437   1.277  25.453  0.00  0.00    +0.059 A 
ATOM     18  C   UNL     1      -4.705   0.834  25.111  0.00  0.00    +0.025 A 
ATOM     19  C   UNL     1      -5.684   1.790  24.868  0.00  0.00    +0.003 A 
ATOM     20  C   UNL     1      -4.072   3.481  25.318  0.00  0.00    +0.111 A 
ATOM     21  C   UNL     1      -5.370   3.142  24.970  0.00  0.00    +0.020 A 
ENDBRANCH  16  17
ENDBRANCH   4  16
TORSDOF 4
ENDMDL
MODEL 5
REMARK VINA RESULT:      -2.5     17.496     18.181
REMARK  Name = 75537076
REMARK  4 active torsions:
REMARK  status: ('A' for Active; 'I' for Inactive)
REMARK    1  A    between atoms: N_2  and  C_9
REMARK    2  A    between atoms: N_4  and  C_16
REMARK    3  A    between atoms: C_6  and  C_9
REMARK    4  A    between atoms: C_16  and  C_17
REMARK                            x       y       z     vdW  Elec       q    Type
REMARK                         _______ _______ _______ _____ _____    ______ ____
ROOT
ATOM      1  O   UNL     1      14.868  -7.301  25.874  0.00  0.00    -0.252 OA
ATOM      2  N   UNL     1      16.738  -6.002  30.411  0.00  0.00    -0.299 NA
ATOM      3  N   UNL     1      16.145  -6.690  27.748  0.00  0.00    -0.278 N 
ATOM      4  N   UNL     1      16.545  -5.644  25.801  0.00  0.00    -0.278 N 
ATOM     10  C   UNL     1      17.292  -5.846  28.018  0.00  0.00    +0.109 C 
ATOM     11  C   UNL     1      17.087  -5.072  29.319  0.00  0.00    +0.108 C 
ATOM     12  C   UNL     1      15.494  -6.737  30.099  0.00  0.00    +0.103 C 
ATOM     13  C   UNL     1      15.626  -7.537  28.802  0.00  0.00    +0.125 C 
ATOM     14  C   UNL     1      17.405  -4.980  26.765  0.00  0.00    +0.133 C 
ATOM     15  C   UNL     1      15.745  -6.634  26.407  0.00  0.00    +0.306 C 
ENDROOT
BRANCH   2   9
ATOM      9  C   UNL     1      16.600  -5.278  31.674  0.00  0.00    +0.088 C 
BRANCH   9   6
ATOM      6  C   UNL     1      15.530  -4.238  31.589  0.00  0.00    +0.003 C 
ATOM      7  C   UNL     1      15.895  -2.793  31.396  0.00  0.00    +0.005 C 
ATOM      8  C   UNL     1      15.339  -3.257  32.714  0.00  0.00    +0.005 C 
ENDBRANCH   9   6
ENDBRANCH   2   9
BRANCH   4  16
ATOM     16  C   UNL     1      16.448  -5.202  24.427  0.00  0.00    +0.164 C 
BRANCH  16  17
ATOM      5  N   UNL     1      16.604  -3.210  23.047  0.00  0.00    -0.258 NA
ATOM     17  C   UNL     1      16.664  -3.722  24.296  0.00  0.00    +0.059 A 
ATOM     18  C   UNL     1      16.909  -2.968  25.433  0.00  0.00    +0.025 A 
ATOM     19  C   UNL     1      17.104  -1.601  25.278  0.00  0.00    +0.003 A 
ATOM     20  C   UNL     1      16.798  -1.877  22.934  0.00  0.00    +0.111 A 
ATOM     21  C   UNL     1      17.049  -1.036  24.007  0.00  0.00    +0.020 A 
ENDBRANCH  16  17
ENDBRANCH   4  16
TORSDOF 4
ENDMDL
MODEL 6
REMARK VINA RESULT:      -2.3     18.132     19.229
REMARK  Name = 75537076
REMARK  4 active torsions:
REMARK  status: ('A' for Active; 'I' for Inactive)
REMARK    1  A    between atoms: N_2  and  C_9
REMARK    2  A    between atoms: N_4  and  C_16
REMARK    3  A    between atoms: C_6  and  C_9
REMARK    4  A    between atoms: C_16  and  C_17
REMARK                            x       y       z     vdW  Elec       q    Type
REMARK                         _______ _______ _______ _____ _____    ______ ____
ROOT
ATOM      1  O   UNL     1      16.321  -5.339  26.118  0.00  0.00    -0.252 OA
ATOM      2  N   UNL     1      16.022  -9.644  28.790  0.00  0.00    -0.299 NA
ATOM      3  N   UNL     1      16.611  -7.212  27.505  0.00  0.00    -0.278 N 
ATOM      4  N   UNL     1      17.204  -5.197  28.301  0.00  0.00    -0.278 N 
ATOM     10  C   UNL     1      17.218  -7.493  28.790  0.00  0.00    +0.109 C 
ATOM     11  C   UNL     1      16.339  -8.448  29.596  0.00  0.00    +0.108 C 
ATOM     12  C   UNL     1      15.304  -9.272  27.554  0.00  0.00    +0.103 C 
ATOM     13  C   UNL     1      16.128  -8.311  26.694  0.00  0.00    +0.125 C 
ATOM     14  C   UNL     1      17.404  -6.111  29.412  0.00  0.00    +0.133 C 
ATOM     15  C   UNL     1      16.672  -5.853  27.172  0.00  0.00    +0.306 C 
ENDROOT
BRANCH   2   9
ATOM      9  C   UNL     1      15.232 -10.593  29.573  0.00  0.00    +0.088 C 
BRANCH   9   6
ATOM      6  C   UNL     1      14.474  -9.901  30.659  0.00  0.00    +0.003 C 
ATOM      7  C   UNL     1      13.674 -10.699  31.650  0.00  0.00    +0.005 C 
ATOM      8  C   UNL     1      12.970  -9.856  30.623  0.00  0.00    +0.005 C 
ENDBRANCH   9   6
ENDBRANCH   2   9
BRANCH   4  16
ATOM     16  C   UNL     1      17.400  -3.771  28.436  0.00  0.00    +0.164 C 
BRANCH  16  17
ATOM      5  N   UNL     1      16.020  -4.053  30.414  0.00  0.00    -0.258 NA
ATOM     17  C   UNL     1      16.881  -3.253  29.745  0.00  0.00    +0.059 A 
ATOM     18  C   UNL     1      17.297  -2.011  30.198  0.00  0.00    +0.025 A 
ATOM     19  C   UNL     1      16.799  -1.561  31.415  0.00  0.00    +0.003 A 
ATOM     20  C   UNL     1      15.556  -3.583  31.594  0.00  0.00    +0.111 A 
ATOM     21  C   UNL     1      15.911  -2.356  32.133  0.00  0.00    +0.020 A 
ENDBRANCH  16  17
ENDBRANCH   4  16
TORSDOF 4
ENDMDL
MODEL 7
REMARK VINA RESULT:      -1.5      1.665      7.768
REMARK  Name = 75537076
REMARK  4 active torsions:
REMARK  status: ('A' for Active; 'I' for Inactive)
REMARK    1  A    between atoms: N_2  and  C_9
REMARK    2  A    between atoms: N_4  and  C_16
REMARK    3  A    between atoms: C_6  and  C_9
REMARK    4  A    between atoms: C_16  and  C_17
REMARK                            x       y       z     vdW  Elec       q    Type
REMARK                         _______ _______ _______ _____ _____    ______ ____
ROOT
ATOM      1  O   UNL     1      -2.350   2.281  25.401  0.00  0.00    -0.252 OA
ATOM      2  N   UNL     1       1.900   0.267  23.491  0.00  0.00    -0.299 NA
ATOM      3  N   UNL     1      -0.537   0.953  24.718  0.00  0.00    -0.278 N 
ATOM      4  N   UNL     1      -2.608   0.107  24.523  0.00  0.00    -0.278 N 
ATOM     10  C   UNL     1      -0.332  -0.411  24.276  0.00  0.00    +0.109 C 
ATOM     11  C   UNL     1       0.665  -0.451  23.119  0.00  0.00    +0.108 C 
ATOM     12  C   UNL     1       1.611   1.679  23.815  0.00  0.00    +0.103 C 
ATOM     13  C   UNL     1       0.613   1.796  24.970  0.00  0.00    +0.125 C 
ATOM     14  C   UNL     1      -1.739  -0.894  23.930  0.00  0.00    +0.133 C 
ATOM     15  C   UNL     1      -1.888   1.244  24.943  0.00  0.00    +0.306 C 
ENDROOT
BRANCH   2   9
ATOM      9  C   UNL     1       2.884   0.182  22.413  0.00  0.00    +0.088 C 
BRANCH   9   6
ATOM      6  C   UNL     1       4.208   0.725  22.843  0.00  0.00    +0.003 C 
ATOM      7  C   UNL     1       5.462  -0.071  22.613  0.00  0.00    +0.005 C 
ATOM      8  C   UNL     1       4.935   0.112  24.009  0.00  0.00    +0.005 C 
ENDBRANCH   9   6
ENDBRANCH   2   9
BRANCH   4  16
ATOM     16  C   UNL     1      -4.048  -0.028  24.519  0.00  0.00    +0.164 C 
BRANCH  16  17
ATOM      5  N   UNL     1      -5.523   1.223  25.988  0.00  0.00    -0.258 NA
ATOM     17  C   UNL     1      -4.734   1.254  24.891  0.00  0.00    +0.059 A 
ATOM     18  C   UNL     1      -4.532   2.383  24.112  0.00  0.00    +0.025 A 
ATOM     19  C   UNL     1      -5.182   3.554  24.484  0.00  0.00    +0.003 A 
ATOM     20  C   UNL     1      -6.138   2.381  26.319  0.00  0.00    +0.111 A 
ATOM     21  C   UNL     1      -6.001   3.562  25.608  0.00  0.00    +0.020 A 
ENDBRANCH  16  17
ENDBRANCH   4  16
TORSDOF 4
ENDMDL
MODEL 8
REMARK VINA RESULT:      -1.4     16.644     18.003
REMARK  Name = 75537076
REMARK  4 active torsions:
REMARK  status: ('A' for Active; 'I' for Inactive)
REMARK    1  A    between atoms: N_2  and  C_9
REMARK    2  A    between atoms: N_4  and  C_16
REMARK    3  A    between atoms: C_6  and  C_9
REMARK    4  A    between atoms: C_16  and  C_17
REMARK                            x       y       z     vdW  Elec       q    Type
REMARK                         _______ _______ _______ _____ _____    ______ ____
ROOT
ATOM      1  O   UNL     1      17.381  -4.803  25.659  0.00  0.00    -0.252 OA
ATOM      2  N   UNL     1      16.043  -6.594  30.216  0.00  0.00    -0.299 NA
ATOM      3  N   UNL     1      17.091  -5.337  27.928  0.00  0.00    -0.278 N 
ATOM      4  N   UNL     1      17.292  -3.173  27.361  0.00  0.00    -0.278 N 
ATOM     10  C   UNL     1      17.120  -4.631  29.192  0.00  0.00    +0.109 C 
ATOM     11  C   UNL     1      15.993  -5.122  30.101  0.00  0.00    +0.108 C 
ATOM     12  C   UNL     1      15.892  -7.231  28.892  0.00  0.00    +0.103 C 
ATOM     13  C   UNL     1      16.989  -6.781  27.925  0.00  0.00    +0.125 C 
ATOM     14  C   UNL     1      17.025  -3.162  28.789  0.00  0.00    +0.133 C 
ATOM     15  C   UNL     1      17.273  -4.480  26.835  0.00  0.00    +0.306 C 
ENDROOT
BRANCH   2   9
ATOM      9  C   UNL     1      15.007  -7.069  31.132  0.00  0.00    +0.088 C 
BRANCH   9   6
ATOM      6  C   UNL     1      13.668  -7.094  30.471  0.00  0.00    +0.003 C 
ATOM      7  C   UNL     1      12.528  -6.298  31.042  0.00  0.00    +0.005 C 
ATOM      8  C   UNL     1      12.512  -7.799  31.129  0.00  0.00    +0.005 C 
ENDBRANCH   9   6
ENDBRANCH   2   9
BRANCH   4  16
ATOM     16  C   UNL     1      17.405  -1.953  26.592  0.00  0.00    +0.164 C 
BRANCH  16  17
ATOM      5  N   UNL     1      17.381  -1.265  24.264  0.00  0.00    -0.258 NA
ATOM     17  C   UNL     1      16.899  -2.124  25.190  0.00  0.00    +0.059 A 
ATOM     18  C   UNL     1      15.985  -3.129  24.916  0.00  0.00    +0.025 A 
ATOM     19  C   UNL     1      15.537  -3.261  23.607  0.00  0.00    +0.003 A 
ATOM     20  C   UNL     1      16.922  -1.424  23.001  0.00  0.00    +0.111 A 
ATOM     21  C   UNL     1      16.010  -2.396  22.624  0.00  0.00    +0.020 A 
ENDBRANCH  16  17
ENDBRANCH   4  16
TORSDOF 4
ENDMDL
