MODEL 1
REMARK VINA RESULT:      -1.4      0.000      0.000
REMARK  Name = 75367185
REMARK  6 active torsions:
REMARK  status: ('A' for Active; 'I' for Inactive)
REMARK    1  A    between atoms: O_3  and  C_21
REMARK    2  A    between atoms: O_3  and  C_27
REMARK    3  A    between atoms: N_4  and  C_10
REMARK    4  A    between atoms: C_7  and  C_12
REMARK    5  A    between atoms: C_10  and  C_13
REMARK    6  A    between atoms: C_14  and  C_18
REMARK                            x       y       z     vdW  Elec       q    Type
REMARK                         _______ _______ _______ _____ _____    ______ ____
ROOT
ATOM      2  O   UNL     1      -5.517   4.272  25.714  0.00  0.00    -0.377 OA
ATOM      4  N   UNL     1      -4.632   1.631  25.050  0.00  0.00    -0.285 NA
ATOM      7  C   UNL     1      -3.787   2.822  24.777  0.00  0.00    +0.149 C 
ATOM      8  C   UNL     1      -6.056   2.010  25.067  0.00  0.00    +0.113 C 
ATOM      9  C   UNL     1      -4.128   3.951  25.768  0.00  0.00    +0.186 C 
ATOM     11  C   UNL     1      -6.304   3.136  26.062  0.00  0.00    +0.175 C 
ENDROOT
BRANCH   7  12
ATOM      5  N   UNL     1      -1.662   1.801  23.883  0.00  0.00    -0.341 N 
ATOM      6  N   UNL     1      -1.459   2.932  25.783  0.00  0.00    -0.238 NA
ATOM     12  C   UNL     1      -2.294   2.537  24.847  0.00  0.00    +0.127 A 
ATOM     14  C   UNL     1      -0.342   1.721  24.226  0.00  0.00    +0.066 A 
ATOM     15  C   UNL     1      -0.241   2.426  25.402  0.00  0.00    +0.139 A 
ATOM     28  H   UNL     1      -2.103   1.389  23.070  0.00  0.00    +0.167 HD
BRANCH  14  18
ATOM      1 CL   UNL     1       4.622   0.907  23.097  0.00  0.00    -0.084 Cl
ATOM     18  C   UNL     1       0.639   1.017  23.442  0.00  0.00    +0.001 A 
ATOM     22  C   UNL     1       1.997   1.274  23.629  0.00  0.00    +0.030 A 
ATOM     23  C   UNL     1       0.229   0.078  22.495  0.00  0.00    +0.010 A 
ATOM     24  C   UNL     1       2.946   0.591  22.869  0.00  0.00    +0.042 A 
ATOM     25  C   UNL     1       1.179  -0.605  21.735  0.00  0.00    +0.002 A 
ATOM     26  C   UNL     1       2.537  -0.348  21.922  0.00  0.00    +0.020 A 
ENDBRANCH  14  18
ENDBRANCH   7  12
BRANCH   4  10
ATOM     10  C   UNL     1      -4.430   0.569  24.058  0.00  0.00    +0.120 C 
BRANCH  10  13
ATOM     13  C   UNL     1      -3.388  -0.422  24.502  0.00  0.00    -0.033 A 
ATOM     16  C   UNL     1      -2.969  -1.431  23.634  0.00  0.00    +0.008 A 
ATOM     17  C   UNL     1      -2.839  -0.332  25.781  0.00  0.00    +0.008 A 
ATOM     19  C   UNL     1      -2.003  -2.349  24.045  0.00  0.00    +0.046 A 
ATOM     20  C   UNL     1      -1.873  -1.250  26.192  0.00  0.00    +0.046 A 
ATOM     21  C   UNL     1      -1.455  -2.259  25.324  0.00  0.00    +0.120 A 
BRANCH  21   3
ATOM      3  O   UNL     1      -0.511  -3.154  25.725  0.00  0.00    -0.495 OA
ATOM     27  C   UNL     1       0.851  -2.820  25.465  0.00  0.00    +0.277 C 
ENDBRANCH  21   3
ENDBRANCH  10  13
ENDBRANCH   4  10
TORSDOF 5
ENDMDL
MODEL 2
REMARK VINA RESULT:       0.1      1.702      4.716
REMARK  Name = 75367185
REMARK  6 active torsions:
REMARK  status: ('A' for Active; 'I' for Inactive)
REMARK    1  A    between atoms: O_3  and  C_21
REMARK    2  A    between atoms: O_3  and  C_27
REMARK    3  A    between atoms: N_4  and  C_10
REMARK    4  A    between atoms: C_7  and  C_12
REMARK    5  A    between atoms: C_10  and  C_13
REMARK    6  A    between atoms: C_14  and  C_18
REMARK                            x       y       z     vdW  Elec       q    Type
REMARK                         _______ _______ _______ _____ _____    ______ ____
ROOT
ATOM      2  O   UNL     1      -3.002  -2.470  25.913  0.00  0.00    -0.377 OA
ATOM      4  N   UNL     1      -2.964  -0.844  23.557  0.00  0.00    -0.285 NA
ATOM      7  C   UNL     1      -2.235  -0.440  24.788  0.00  0.00    +0.149 C 
ATOM      8  C   UNL     1      -4.101  -1.716  23.901  0.00  0.00    +0.113 C 
ATOM      9  C   UNL     1      -1.849  -1.687  25.606  0.00  0.00    +0.186 C 
ATOM     11  C   UNL     1      -3.635  -2.915  24.715  0.00  0.00    +0.175 C 
ENDROOT
BRANCH   7  12
ATOM      5  N   UNL     1       0.180  -0.215  24.103  0.00  0.00    -0.341 N 
ATOM      6  N   UNL     1      -0.852   1.681  24.624  0.00  0.00    -0.238 NA
ATOM     12  C   UNL     1      -0.982   0.377  24.512  0.00  0.00    +0.127 A 
ATOM     14  C   UNL     1       1.111   0.773  23.944  0.00  0.00    +0.066 A 
ATOM     15  C   UNL     1       0.451   1.934  24.271  0.00  0.00    +0.139 A 
ATOM     28  H   UNL     1       0.318  -1.207  23.954  0.00  0.00    +0.167 HD
BRANCH  14  18
ATOM      1 CL   UNL     1       5.179  -2.393  23.855  0.00  0.00    -0.084 Cl
ATOM     18  C   UNL     1       2.464   0.525  23.520  0.00  0.00    +0.001 A 
ATOM     22  C   UNL     1       3.091  -0.674  23.854  0.00  0.00    +0.030 A 
ATOM     23  C   UNL     1       3.147   1.486  22.773  0.00  0.00    +0.010 A 
ATOM     24  C   UNL     1       4.402  -0.914  23.442  0.00  0.00    +0.042 A 
ATOM     25  C   UNL     1       4.458   1.247  22.362  0.00  0.00    +0.002 A 
ATOM     26  C   UNL     1       5.086   0.047  22.697  0.00  0.00    +0.020 A 
ENDBRANCH  14  18
ENDBRANCH   7  12
BRANCH   4  10
ATOM     10  C   UNL     1      -3.458   0.314  22.802  0.00  0.00    +0.120 C 
BRANCH  10  13
ATOM     13  C   UNL     1      -4.071   1.352  23.703  0.00  0.00    -0.033 A 
ATOM     16  C   UNL     1      -3.708   2.693  23.571  0.00  0.00    +0.008 A 
ATOM     17  C   UNL     1      -5.002   0.974  24.670  0.00  0.00    +0.008 A 
ATOM     19  C   UNL     1      -4.277   3.655  24.405  0.00  0.00    +0.046 A 
ATOM     20  C   UNL     1      -5.570   1.936  25.505  0.00  0.00    +0.046 A 
ATOM     21  C   UNL     1      -5.208   3.276  25.372  0.00  0.00    +0.120 A 
BRANCH  21   3
ATOM      3  O   UNL     1      -5.764   4.216  26.187  0.00  0.00    -0.495 OA
ATOM     27  C   UNL     1      -6.300   5.380  25.561  0.00  0.00    +0.277 C 
ENDBRANCH  21   3
ENDBRANCH  10  13
ENDBRANCH   4  10
TORSDOF 5
ENDMDL
MODEL 3
REMARK VINA RESULT:       0.4      3.136      6.191
REMARK  Name = 75367185
REMARK  6 active torsions:
REMARK  status: ('A' for Active; 'I' for Inactive)
REMARK    1  A    between atoms: O_3  and  C_21
REMARK    2  A    between atoms: O_3  and  C_27
REMARK    3  A    between atoms: N_4  and  C_10
REMARK    4  A    between atoms: C_7  and  C_12
REMARK    5  A    between atoms: C_10  and  C_13
REMARK    6  A    between atoms: C_14  and  C_18
REMARK                            x       y       z     vdW  Elec       q    Type
REMARK                         _______ _______ _______ _____ _____    ______ ____
ROOT
ATOM      2  O   UNL     1       2.664   0.996  22.880  0.00  0.00    -0.377 OA
ATOM      4  N   UNL     1       0.170   0.229  24.058  0.00  0.00    -0.285 NA
ATOM      7  C   UNL     1       0.806   1.534  24.374  0.00  0.00    +0.149 C 
ATOM      8  C   UNL     1       1.192  -0.753  23.656  0.00  0.00    +0.113 C 
ATOM      9  C   UNL     1       1.690   1.990  23.198  0.00  0.00    +0.186 C 
ATOM     11  C   UNL     1       2.027  -0.221  22.498  0.00  0.00    +0.175 C 
ENDROOT
BRANCH   7  12
ATOM      5  N   UNL     1      -1.529   2.373  24.820  0.00  0.00    -0.341 N 
ATOM      6  N   UNL     1       0.073   3.908  24.889  0.00  0.00    -0.238 NA
ATOM     12  C   UNL     1      -0.193   2.636  24.697  0.00  0.00    +0.127 A 
ATOM     14  C   UNL     1      -2.155   3.553  25.108  0.00  0.00    +0.066 A 
ATOM     15  C   UNL     1      -1.145   4.486  25.145  0.00  0.00    +0.139 A 
ATOM     28  H   UNL     1      -1.966   1.467  24.710  0.00  0.00    +0.167 HD
BRANCH  14  18
ATOM      1 CL   UNL     1      -6.590   1.331  26.511  0.00  0.00    -0.084 Cl
ATOM     18  C   UNL     1      -3.575   3.668  25.307  0.00  0.00    +0.001 A 
ATOM     22  C   UNL     1      -4.308   2.571  25.760  0.00  0.00    +0.030 A 
ATOM     23  C   UNL     1      -4.220   4.878  25.047  0.00  0.00    +0.010 A 
ATOM     24  C   UNL     1      -5.685   2.683  25.954  0.00  0.00    +0.042 A 
ATOM     25  C   UNL     1      -5.597   4.990  25.240  0.00  0.00    +0.002 A 
ATOM     26  C   UNL     1      -6.329   3.893  25.693  0.00  0.00    +0.020 A 
ENDBRANCH  14  18
ENDBRANCH   7  12
BRANCH   4  10
ATOM     10  C   UNL     1      -0.590  -0.306  25.194  0.00  0.00    +0.120 C 
BRANCH  10  13
ATOM     13  C   UNL     1      -1.870  -0.963  24.753  0.00  0.00    -0.033 A 
ATOM     16  C   UNL     1      -2.967  -0.181  24.389  0.00  0.00    +0.008 A 
ATOM     17  C   UNL     1      -1.961  -2.354  24.706  0.00  0.00    +0.008 A 
ATOM     19  C   UNL     1      -4.153  -0.789  23.980  0.00  0.00    +0.046 A 
ATOM     20  C   UNL     1      -3.147  -2.962  24.298  0.00  0.00    +0.046 A 
ATOM     21  C   UNL     1      -4.244  -2.180  23.934  0.00  0.00    +0.120 A 
BRANCH  21   3
ATOM      3  O   UNL     1      -5.402  -2.774  23.534  0.00  0.00    -0.495 OA
ATOM     27  C   UNL     1      -5.288  -3.879  22.639  0.00  0.00    +0.277 C 
ENDBRANCH  21   3
ENDBRANCH  10  13
ENDBRANCH   4  10
TORSDOF 5
ENDMDL
MODEL 4
REMARK VINA RESULT:       0.9      3.082      6.944
REMARK  Name = 75367185
REMARK  6 active torsions:
REMARK  status: ('A' for Active; 'I' for Inactive)
REMARK    1  A    between atoms: O_3  and  C_21
REMARK    2  A    between atoms: O_3  and  C_27
REMARK    3  A    between atoms: N_4  and  C_10
REMARK    4  A    between atoms: C_7  and  C_12
REMARK    5  A    between atoms: C_10  and  C_13
REMARK    6  A    between atoms: C_14  and  C_18
REMARK                            x       y       z     vdW  Elec       q    Type
REMARK                         _______ _______ _______ _____ _____    ______ ____
ROOT
ATOM      2  O   UNL     1       4.772  -0.913  23.262  0.00  0.00    -0.377 OA
ATOM      4  N   UNL     1       2.514   0.830  23.502  0.00  0.00    -0.285 NA
ATOM      7  C   UNL     1       2.346  -0.640  23.372  0.00  0.00    +0.149 C 
ATOM      8  C   UNL     1       3.782   1.255  22.883  0.00  0.00    +0.113 C 
ATOM      9  C   UNL     1       3.589  -1.365  23.921  0.00  0.00    +0.186 C 
ATOM     11  C   UNL     1       4.956   0.485  23.472  0.00  0.00    +0.175 C 
ENDROOT
BRANCH   7  12
ATOM      5  N   UNL     1      -0.148  -0.784  23.713  0.00  0.00    -0.341 N 
ATOM      6  N   UNL     1       1.082  -2.032  25.077  0.00  0.00    -0.238 NA
ATOM     12  C   UNL     1       1.109  -1.176  24.080  0.00  0.00    +0.127 A 
ATOM     14  C   UNL     1      -1.034  -1.431  24.528  0.00  0.00    +0.066 A 
ATOM     15  C   UNL     1      -0.251  -2.195  25.361  0.00  0.00    +0.139 A 
ATOM     28  H   UNL     1      -0.371  -0.128  22.975  0.00  0.00    +0.167 HD
BRANCH  14  18
ATOM      1 CL   UNL     1      -5.134   1.663  24.968  0.00  0.00    -0.084 Cl
ATOM     18  C   UNL     1      -2.460  -1.264  24.437  0.00  0.00    +0.001 A 
ATOM     22  C   UNL     1      -3.037  -0.025  24.714  0.00  0.00    +0.030 A 
ATOM     23  C   UNL     1      -3.266  -2.343  24.070  0.00  0.00    +0.010 A 
ATOM     24  C   UNL     1      -4.420   0.136  24.625  0.00  0.00    +0.042 A 
ATOM     25  C   UNL     1      -4.649  -2.182  23.981  0.00  0.00    +0.002 A 
ATOM     26  C   UNL     1      -5.226  -0.943  24.259  0.00  0.00    +0.020 A 
ENDBRANCH  14  18
ENDBRANCH   7  12
BRANCH   4  10
ATOM     10  C   UNL     1       1.407   1.570  22.885  0.00  0.00    +0.120 C 
BRANCH  10  13
ATOM     13  C   UNL     1       0.460   2.124  23.915  0.00  0.00    -0.033 A 
ATOM     16  C   UNL     1      -0.705   2.778  23.512  0.00  0.00    +0.008 A 
ATOM     17  C   UNL     1       0.744   1.982  25.273  0.00  0.00    +0.008 A 
ATOM     19  C   UNL     1      -1.584   3.290  24.467  0.00  0.00    +0.046 A 
ATOM     20  C   UNL     1      -0.134   2.494  26.227  0.00  0.00    +0.046 A 
ATOM     21  C   UNL     1      -1.298   3.148  25.824  0.00  0.00    +0.120 A 
BRANCH  21   3
ATOM      3  O   UNL     1      -2.156   3.648  26.756  0.00  0.00    -0.495 OA
ATOM     27  C   UNL     1      -3.368   4.229  26.276  0.00  0.00    +0.277 C 
ENDBRANCH  21   3
ENDBRANCH  10  13
ENDBRANCH   4  10
TORSDOF 5
ENDMDL
MODEL 5
REMARK VINA RESULT:       1.4      2.364      4.885
REMARK  Name = 75367185
REMARK  6 active torsions:
REMARK  status: ('A' for Active; 'I' for Inactive)
REMARK    1  A    between atoms: O_3  and  C_21
REMARK    2  A    between atoms: O_3  and  C_27
REMARK    3  A    between atoms: N_4  and  C_10
REMARK    4  A    between atoms: C_7  and  C_12
REMARK    5  A    between atoms: C_10  and  C_13
REMARK    6  A    between atoms: C_14  and  C_18
REMARK                            x       y       z     vdW  Elec       q    Type
REMARK                         _______ _______ _______ _____ _____    ______ ____
ROOT
ATOM      2  O   UNL     1      -2.751   6.327  25.136  0.00  0.00    -0.377 OA
ATOM      4  N   UNL     1      -1.436   3.784  25.103  0.00  0.00    -0.285 NA
ATOM      7  C   UNL     1      -2.840   3.922  25.567  0.00  0.00    +0.149 C 
ATOM      8  C   UNL     1      -0.708   5.051  25.295  0.00  0.00    +0.113 C 
ATOM      9  C   UNL     1      -3.502   5.139  24.892  0.00  0.00    +0.186 C 
ATOM     11  C   UNL     1      -1.433   6.200  24.607  0.00  0.00    +0.175 C 
ENDROOT
BRANCH   7  12
ATOM      5  N   UNL     1      -3.124   1.472  25.049  0.00  0.00    -0.341 N 
ATOM      6  N   UNL     1      -5.004   2.626  25.291  0.00  0.00    -0.238 NA
ATOM     12  C   UNL     1      -3.692   2.688  25.306  0.00  0.00    +0.127 A 
ATOM     14  C   UNL     1      -4.138   0.577  24.859  0.00  0.00    +0.066 A 
ATOM     15  C   UNL     1      -5.289   1.313  25.012  0.00  0.00    +0.139 A 
ATOM     28  H   UNL     1      -2.130   1.280  25.005  0.00  0.00    +0.167 HD
BRANCH  14  18
ATOM      1 CL   UNL     1      -1.056  -3.547  25.136  0.00  0.00    -0.084 Cl
ATOM     18  C   UNL     1      -3.921  -0.815  24.563  0.00  0.00    +0.001 A 
ATOM     22  C   UNL     1      -2.732  -1.433  24.949  0.00  0.00    +0.030 A 
ATOM     23  C   UNL     1      -4.902  -1.545  23.890  0.00  0.00    +0.010 A 
ATOM     24  C   UNL     1      -2.523  -2.782  24.662  0.00  0.00    +0.042 A 
ATOM     25  C   UNL     1      -4.692  -2.894  23.603  0.00  0.00    +0.002 A 
ATOM     26  C   UNL     1      -3.503  -3.513  23.989  0.00  0.00    +0.020 A 
ENDBRANCH  14  18
ENDBRANCH   7  12
BRANCH   4  10
ATOM     10  C   UNL     1      -0.724   2.710  25.806  0.00  0.00    +0.120 C 
BRANCH  10  13
ATOM     13  C   UNL     1       0.046   1.832  24.857  0.00  0.00    -0.033 A 
ATOM     16  C   UNL     1       1.144   2.346  24.165  0.00  0.00    +0.008 A 
ATOM     17  C   UNL     1      -0.335   0.504  24.670  0.00  0.00    +0.008 A 
ATOM     19  C   UNL     1       1.858   1.532  23.287  0.00  0.00    +0.046 A 
ATOM     20  C   UNL     1       0.378  -0.309  23.790  0.00  0.00    +0.046 A 
ATOM     21  C   UNL     1       1.475   0.205  23.099  0.00  0.00    +0.120 A 
BRANCH  21   3
ATOM      3  O   UNL     1       2.173  -0.590  22.241  0.00  0.00    -0.495 OA
ATOM     27  C   UNL     1       3.318  -0.017  21.612  0.00  0.00    +0.277 C 
ENDBRANCH  21   3
ENDBRANCH  10  13
ENDBRANCH   4  10
TORSDOF 5
ENDMDL
MODEL 6
REMARK VINA RESULT:       1.6      2.395      4.966
REMARK  Name = 75367185
REMARK  6 active torsions:
REMARK  status: ('A' for Active; 'I' for Inactive)
REMARK    1  A    between atoms: O_3  and  C_21
REMARK    2  A    between atoms: O_3  and  C_27
REMARK    3  A    between atoms: N_4  and  C_10
REMARK    4  A    between atoms: C_7  and  C_12
REMARK    5  A    between atoms: C_10  and  C_13
REMARK    6  A    between atoms: C_14  and  C_18
REMARK                            x       y       z     vdW  Elec       q    Type
REMARK                         _______ _______ _______ _____ _____    ______ ____
ROOT
ATOM      2  O   UNL     1      -3.317  -3.431  24.131  0.00  0.00    -0.377 OA
ATOM      4  N   UNL     1      -2.549  -0.917  25.266  0.00  0.00    -0.285 NA
ATOM      7  C   UNL     1      -1.585  -1.745  24.495  0.00  0.00    +0.149 C 
ATOM      8  C   UNL     1      -3.592  -1.771  25.861  0.00  0.00    +0.113 C 
ATOM      9  C   UNL     1      -2.338  -2.623  23.478  0.00  0.00    +0.186 C 
ATOM     11  C   UNL     1      -4.278  -2.611  24.793  0.00  0.00    +0.175 C 
ENDROOT
BRANCH   7  12
ATOM      5  N   UNL     1       0.797  -1.052  24.049  0.00  0.00    -0.341 N 
ATOM      6  N   UNL     1      -0.745  -0.047  22.807  0.00  0.00    -0.238 NA
ATOM     12  C   UNL     1      -0.533  -0.928  23.759  0.00  0.00    +0.127 A 
ATOM     14  C   UNL     1       1.477  -0.196  23.229  0.00  0.00    +0.066 A 
ATOM     15  C   UNL     1       0.504   0.414  22.473  0.00  0.00    +0.139 A 
ATOM     28  H   UNL     1       1.195  -1.665  24.749  0.00  0.00    +0.167 HD
BRANCH  14  18
ATOM      1 CL   UNL     1       6.085  -2.218  24.352  0.00  0.00    -0.084 Cl
ATOM     18  C   UNL     1       2.909  -0.050  23.250  0.00  0.00    +0.001 A 
ATOM     22  C   UNL     1       3.709  -1.085  23.735  0.00  0.00    +0.030 A 
ATOM     23  C   UNL     1       3.496   1.127  22.783  0.00  0.00    +0.010 A 
ATOM     24  C   UNL     1       5.096  -0.943  23.753  0.00  0.00    +0.042 A 
ATOM     25  C   UNL     1       4.884   1.268  22.802  0.00  0.00    +0.002 A 
ATOM     26  C   UNL     1       5.684   0.234  23.288  0.00  0.00    +0.020 A 
ENDBRANCH  14  18
ENDBRANCH   7  12
BRANCH   4  10
ATOM     10  C   UNL     1      -1.891  -0.149  26.330  0.00  0.00    +0.120 C 
BRANCH  10  13
ATOM     13  C   UNL     1      -1.573   1.255  25.893  0.00  0.00    -0.033 A 
ATOM     16  C   UNL     1      -0.294   1.777  26.096  0.00  0.00    +0.008 A 
ATOM     17  C   UNL     1      -2.554   2.037  25.284  0.00  0.00    +0.008 A 
ATOM     19  C   UNL     1       0.002   3.078  25.691  0.00  0.00    +0.046 A 
ATOM     20  C   UNL     1      -2.259   3.338  24.880  0.00  0.00    +0.046 A 
ATOM     21  C   UNL     1      -0.981   3.858  25.082  0.00  0.00    +0.120 A 
BRANCH  21   3
ATOM      3  O   UNL     1      -0.692   5.129  24.686  0.00  0.00    -0.495 OA
ATOM     27  C   UNL     1      -1.716   6.108  24.853  0.00  0.00    +0.277 C 
ENDBRANCH  21   3
ENDBRANCH  10  13
ENDBRANCH   4  10
TORSDOF 5
ENDMDL
MODEL 7
REMARK VINA RESULT:       1.6      2.774      3.879
REMARK  Name = 75367185
REMARK  6 active torsions:
REMARK  status: ('A' for Active; 'I' for Inactive)
REMARK    1  A    between atoms: O_3  and  C_21
REMARK    2  A    between atoms: O_3  and  C_27
REMARK    3  A    between atoms: N_4  and  C_10
REMARK    4  A    between atoms: C_7  and  C_12
REMARK    5  A    between atoms: C_10  and  C_13
REMARK    6  A    between atoms: C_14  and  C_18
REMARK                            x       y       z     vdW  Elec       q    Type
REMARK                         _______ _______ _______ _____ _____    ______ ____
ROOT
ATOM      2  O   UNL     1      -5.489   4.359  25.956  0.00  0.00    -0.377 OA
ATOM      4  N   UNL     1      -4.175   2.089  24.808  0.00  0.00    -0.285 NA
ATOM      7  C   UNL     1      -3.462   3.377  25.007  0.00  0.00    +0.149 C 
ATOM      8  C   UNL     1      -5.623   2.325  24.664  0.00  0.00    +0.113 C 
ATOM      9  C   UNL     1      -4.094   4.157  26.176  0.00  0.00    +0.186 C 
ATOM     11  C   UNL     1      -6.164   3.108  25.853  0.00  0.00    +0.175 C 
ENDROOT
BRANCH   7  12
ATOM      5  N   UNL     1      -1.478   3.125  26.541  0.00  0.00    -0.341 N 
ATOM      6  N   UNL     1      -1.017   3.141  24.370  0.00  0.00    -0.238 NA
ATOM     12  C   UNL     1      -1.972   3.214  25.270  0.00  0.00    +0.127 A 
ATOM     14  C   UNL     1      -0.122   2.987  26.446  0.00  0.00    +0.066 A 
ATOM     15  C   UNL     1       0.139   3.000  25.097  0.00  0.00    +0.139 A 
ATOM     28  H   UNL     1      -2.026   3.161  27.392  0.00  0.00    +0.167 HD
BRANCH  14  18
ATOM      1 CL   UNL     1       0.376   2.198  31.517  0.00  0.00    -0.084 Cl
ATOM     18  C   UNL     1       0.743   2.865  27.590  0.00  0.00    +0.001 A 
ATOM     22  C   UNL     1       0.202   2.619  28.852  0.00  0.00    +0.030 A 
ATOM     23  C   UNL     1       2.124   2.992  27.435  0.00  0.00    +0.010 A 
ATOM     24  C   UNL     1       1.041   2.500  29.959  0.00  0.00    +0.042 A 
ATOM     25  C   UNL     1       2.963   2.874  28.543  0.00  0.00    +0.002 A 
ATOM     26  C   UNL     1       2.422   2.628  29.805  0.00  0.00    +0.020 A 
ENDBRANCH  14  18
ENDBRANCH   7  12
BRANCH   4  10
ATOM     10  C   UNL     1      -3.688   1.363  23.630  0.00  0.00    +0.120 C 
BRANCH  10  13
ATOM     13  C   UNL     1      -2.900   0.139  24.012  0.00  0.00    -0.033 A 
ATOM     16  C   UNL     1      -1.542   0.057  23.699  0.00  0.00    +0.008 A 
ATOM     17  C   UNL     1      -3.525  -0.913  24.680  0.00  0.00    +0.008 A 
ATOM     19  C   UNL     1      -0.812  -1.077  24.054  0.00  0.00    +0.046 A 
ATOM     20  C   UNL     1      -2.795  -2.047  25.034  0.00  0.00    +0.046 A 
ATOM     21  C   UNL     1      -1.438  -2.129  24.722  0.00  0.00    +0.120 A 
BRANCH  21   3
ATOM      3  O   UNL     1      -0.725  -3.236  25.069  0.00  0.00    -0.495 OA
ATOM     27  C   UNL     1       0.547  -3.022  25.679  0.00  0.00    +0.277 C 
ENDBRANCH  21   3
ENDBRANCH  10  13
ENDBRANCH   4  10
TORSDOF 5
ENDMDL
MODEL 8
REMARK VINA RESULT:       1.7      2.113      3.395
REMARK  Name = 75367185
REMARK  6 active torsions:
REMARK  status: ('A' for Active; 'I' for Inactive)
REMARK    1  A    between atoms: O_3  and  C_21
REMARK    2  A    between atoms: O_3  and  C_27
REMARK    3  A    between atoms: N_4  and  C_10
REMARK    4  A    between atoms: C_7  and  C_12
REMARK    5  A    between atoms: C_10  and  C_13
REMARK    6  A    between atoms: C_14  and  C_18
REMARK                            x       y       z     vdW  Elec       q    Type
REMARK                         _______ _______ _______ _____ _____    ______ ____
ROOT
ATOM      2  O   UNL     1      -2.756   4.078  24.068  0.00  0.00    -0.377 OA
ATOM      4  N   UNL     1      -1.133   2.333  25.654  0.00  0.00    -0.285 NA
ATOM      7  C   UNL     1      -1.480   2.001  24.248  0.00  0.00    +0.149 C 
ATOM      8  C   UNL     1      -2.162   3.210  26.240  0.00  0.00    +0.113 C 
ATOM      9  C   UNL     1      -1.738   3.293  23.449  0.00  0.00    +0.186 C 
ATOM     11  C   UNL     1      -2.362   4.454  25.386  0.00  0.00    +0.175 C 
ENDROOT
BRANCH   7  12
ATOM      5  N   UNL     1       0.902   1.253  23.902  0.00  0.00    -0.341 N 
ATOM      6  N   UNL     1      -0.596   0.353  22.533  0.00  0.00    -0.238 NA
ATOM     12  C   UNL     1      -0.413   1.184  23.535  0.00  0.00    +0.127 A 
ATOM     14  C   UNL     1       1.602   0.414  23.081  0.00  0.00    +0.066 A 
ATOM     15  C   UNL     1       0.656  -0.129  22.245  0.00  0.00    +0.139 A 
ATOM     28  H   UNL     1       1.280   1.829  24.644  0.00  0.00    +0.167 HD
BRANCH  14  18
ATOM      1 CL   UNL     1       5.564  -2.694  24.193  0.00  0.00    -0.084 Cl
ATOM     18  C   UNL     1       3.026   0.225  23.170  0.00  0.00    +0.001 A 
ATOM     22  C   UNL     1       3.543  -1.001  23.589  0.00  0.00    +0.030 A 
ATOM     23  C   UNL     1       3.889   1.270  22.837  0.00  0.00    +0.010 A 
ATOM     24  C   UNL     1       4.924  -1.182  23.675  0.00  0.00    +0.042 A 
ATOM     25  C   UNL     1       5.270   1.088  22.923  0.00  0.00    +0.002 A 
ATOM     26  C   UNL     1       5.787  -0.138  23.342  0.00  0.00    +0.020 A 
ENDBRANCH  14  18
ENDBRANCH   7  12
BRANCH   4  10
ATOM     10  C   UNL     1      -0.993   1.133  26.488  0.00  0.00    +0.120 C 
BRANCH  10  13
ATOM     13  C   UNL     1      -1.705  -0.051  25.891  0.00  0.00    -0.033 A 
ATOM     16  C   UNL     1      -3.082   0.004  25.665  0.00  0.00    +0.008 A 
ATOM     17  C   UNL     1      -0.991  -1.202  25.562  0.00  0.00    +0.008 A 
ATOM     19  C   UNL     1      -3.742  -1.093  25.111  0.00  0.00    +0.046 A 
ATOM     20  C   UNL     1      -1.651  -2.299  25.009  0.00  0.00    +0.046 A 
ATOM     21  C   UNL     1      -3.026  -2.244  24.783  0.00  0.00    +0.120 A 
BRANCH  21   3
ATOM      3  O   UNL     1      -3.671  -3.315  24.242  0.00  0.00    -0.495 OA
ATOM     27  C   UNL     1      -4.801  -3.041  23.415  0.00  0.00    +0.277 C 
ENDBRANCH  21   3
ENDBRANCH  10  13
ENDBRANCH   4  10
TORSDOF 5
ENDMDL
MODEL 9
REMARK VINA RESULT:       2.3      2.668      5.899
REMARK  Name = 75367185
REMARK  6 active torsions:
REMARK  status: ('A' for Active; 'I' for Inactive)
REMARK    1  A    between atoms: O_3  and  C_21
REMARK    2  A    between atoms: O_3  and  C_27
REMARK    3  A    between atoms: N_4  and  C_10
REMARK    4  A    between atoms: C_7  and  C_12
REMARK    5  A    between atoms: C_10  and  C_13
REMARK    6  A    between atoms: C_14  and  C_18
REMARK                            x       y       z     vdW  Elec       q    Type
REMARK                         _______ _______ _______ _____ _____    ______ ____
ROOT
ATOM      2  O   UNL     1      -2.102  -4.155  23.352  0.00  0.00    -0.377 OA
ATOM      4  N   UNL     1      -3.202  -1.829  24.607  0.00  0.00    -0.285 NA
ATOM      7  C   UNL     1      -1.734  -2.032  24.507  0.00  0.00    +0.149 C 
ATOM      8  C   UNL     1      -3.899  -3.128  24.594  0.00  0.00    +0.113 C 
ATOM      9  C   UNL     1      -1.405  -2.911  23.286  0.00  0.00    +0.186 C 
ATOM     11  C   UNL     1      -3.511  -3.936  23.363  0.00  0.00    +0.175 C 
ENDROOT
BRANCH   7  12
ATOM      5  N   UNL     1      -1.524   0.474  24.683  0.00  0.00    -0.341 N 
ATOM      6  N   UNL     1       0.317  -0.603  24.066  0.00  0.00    -0.238 NA
ATOM     12  C   UNL     1      -0.946  -0.734  24.408  0.00  0.00    +0.127 A 
ATOM     14  C   UNL     1      -0.570   1.436  24.505  0.00  0.00    +0.066 A 
ATOM     15  C   UNL     1       0.557   0.747  24.124  0.00  0.00    +0.139 A 
ATOM     28  H   UNL     1      -2.487   0.619  24.961  0.00  0.00    +0.167 HD
BRANCH  14  18
ATOM      1 CL   UNL     1      -3.352   5.135  26.777  0.00  0.00    -0.084 Cl
ATOM     18  C   UNL     1      -0.815   2.840  24.703  0.00  0.00    +0.001 A 
ATOM     22  C   UNL     1      -1.845   3.257  25.546  0.00  0.00    +0.030 A 
ATOM     23  C   UNL     1      -0.021   3.784  24.050  0.00  0.00    +0.010 A 
ATOM     24  C   UNL     1      -2.081   4.618  25.738  0.00  0.00    +0.042 A 
ATOM     25  C   UNL     1      -0.258   5.146  24.242  0.00  0.00    +0.002 A 
ATOM     26  C   UNL     1      -1.288   5.563  25.085  0.00  0.00    +0.020 A 
ENDBRANCH  14  18
ENDBRANCH   7  12
BRANCH   4  10
ATOM     10  C   UNL     1      -3.578  -1.096  25.822  0.00  0.00    +0.120 C 
BRANCH  10  13
ATOM     13  C   UNL     1      -4.275   0.199  25.503  0.00  0.00    -0.033 A 
ATOM     16  C   UNL     1      -5.143   0.772  26.434  0.00  0.00    +0.008 A 
ATOM     17  C   UNL     1      -4.053   0.828  24.279  0.00  0.00    +0.008 A 
ATOM     19  C   UNL     1      -5.788   1.973  26.138  0.00  0.00    +0.046 A 
ATOM     20  C   UNL     1      -4.698   2.028  23.983  0.00  0.00    +0.046 A 
ATOM     21  C   UNL     1      -5.566   2.601  24.913  0.00  0.00    +0.120 A 
BRANCH  21   3
ATOM      3  O   UNL     1      -6.195   3.773  24.625  0.00  0.00    -0.495 OA
ATOM     27  C   UNL     1      -6.192   4.777  25.639  0.00  0.00    +0.277 C 
ENDBRANCH  21   3
ENDBRANCH  10  13
ENDBRANCH   4  10
TORSDOF 5
ENDMDL
MODEL 10
REMARK VINA RESULT:       2.4      2.706      6.849
REMARK  Name = 75367185
REMARK  6 active torsions:
REMARK  status: ('A' for Active; 'I' for Inactive)
REMARK    1  A    between atoms: O_3  and  C_21
REMARK    2  A    between atoms: O_3  and  C_27
REMARK    3  A    between atoms: N_4  and  C_10
REMARK    4  A    between atoms: C_7  and  C_12
REMARK    5  A    between atoms: C_10  and  C_13
REMARK    6  A    between atoms: C_14  and  C_18
REMARK                            x       y       z     vdW  Elec       q    Type
REMARK                         _______ _______ _______ _____ _____    ______ ____
ROOT
ATOM      2  O   UNL     1      -0.173  -3.859  25.355  0.00  0.00    -0.377 OA
ATOM      4  N   UNL     1      -0.295  -1.101  24.600  0.00  0.00    -0.285 NA
ATOM      7  C   UNL     1      -1.411  -2.035  24.301  0.00  0.00    +0.149 C 
ATOM      8  C   UNL     1       0.976  -1.840  24.701  0.00  0.00    +0.113 C 
ATOM      9  C   UNL     1      -1.429  -3.183  25.328  0.00  0.00    +0.186 C 
ATOM     11  C   UNL     1       0.869  -2.960  25.727  0.00  0.00    +0.175 C 
ENDROOT
BRANCH   7  12
ATOM      5  N   UNL     1      -2.943  -0.072  24.698  0.00  0.00    -0.341 N 
ATOM      6  N   UNL     1      -3.913  -1.902  23.899  0.00  0.00    -0.238 NA
ATOM     12  C   UNL     1      -2.778  -1.365  24.285  0.00  0.00    +0.127 A 
ATOM     14  C   UNL     1      -4.268   0.235  24.567  0.00  0.00    +0.066 A 
ATOM     15  C   UNL     1      -4.846  -0.910  24.073  0.00  0.00    +0.139 A 
ATOM     28  H   UNL     1      -2.211   0.537  25.042  0.00  0.00    +0.167 HD
BRANCH  14  18
ATOM      1 CL   UNL     1      -4.297   5.340  23.849  0.00  0.00    -0.084 Cl
ATOM     18  C   UNL     1      -4.820   1.519  24.909  0.00  0.00    +0.001 A 
ATOM     22  C   UNL     1      -4.345   2.672  24.285  0.00  0.00    +0.030 A 
ATOM     23  C   UNL     1      -5.832   1.609  25.866  0.00  0.00    +0.010 A 
ATOM     24  C   UNL     1      -4.882   3.916  24.617  0.00  0.00    +0.042 A 
ATOM     25  C   UNL     1      -6.369   2.854  26.198  0.00  0.00    +0.002 A 
ATOM     26  C   UNL     1      -5.893   4.007  25.574  0.00  0.00    +0.020 A 
ENDBRANCH  14  18
ENDBRANCH   7  12
BRANCH   4  10
ATOM     10  C   UNL     1      -0.162  -0.053  23.581  0.00  0.00    +0.120 C 
BRANCH  10  13
ATOM     13  C   UNL     1      -0.465   1.312  24.136  0.00  0.00    -0.033 A 
ATOM     16  C   UNL     1      -0.843   2.346  23.279  0.00  0.00    +0.008 A 
ATOM     17  C   UNL     1      -0.368   1.545  25.508  0.00  0.00    +0.008 A 
ATOM     19  C   UNL     1      -1.125   3.612  23.794  0.00  0.00    +0.046 A 
ATOM     20  C   UNL     1      -0.649   2.810  26.023  0.00  0.00    +0.046 A 
ATOM     21  C   UNL     1      -1.027   3.843  25.166  0.00  0.00    +0.120 A 
BRANCH  21   3
ATOM      3  O   UNL     1      -1.302   5.079  25.668  0.00  0.00    -0.495 OA
ATOM     27  C   UNL     1      -1.263   6.174  24.755  0.00  0.00    +0.277 C 
ENDBRANCH  21   3
ENDBRANCH  10  13
ENDBRANCH   4  10
TORSDOF 5
ENDMDL
