MODEL 1
REMARK VINA RESULT:      -3.4      0.000      0.000
REMARK  Name = 71694092
REMARK  8 active torsions:
REMARK  status: ('A' for Active; 'I' for Inactive)
REMARK    1  A    between atoms: O_4  and  C_26
REMARK    2  A    between atoms: O_4  and  C_27
REMARK    3  A    between atoms: N_5  and  C_7
REMARK    4  A    between atoms: N_5  and  C_12
REMARK    5  A    between atoms: C_7  and  C_10
REMARK    6  A    between atoms: C_10  and  C_11
REMARK    7  A    between atoms: C_12  and  C_13
REMARK    8  A    between atoms: C_15  and  C_18
REMARK                            x       y       z     vdW  Elec       q    Type
REMARK                         _______ _______ _______ _____ _____    ______ ____
ROOT
ATOM      2  O   UNL     1      -6.370   3.576  25.746  0.00  0.00    -0.376 OA
ATOM      7  C   UNL     1      -4.684   2.478  25.025  0.00  0.00    +0.072 C 
ATOM      8  C   UNL     1      -6.208   2.306  25.062  0.00  0.00    +0.184 C 
ATOM      9  C   UNL     1      -4.939   3.644  25.989  0.00  0.00    +0.184 C 
ENDROOT
BRANCH   7   5
ATOM      5  N   UNL     1      -4.072   1.381  25.779  0.00  0.00    -0.302 NA
ATOM     28  H   UNL     1      -3.072   1.468  25.950  0.00  0.00    +0.123 HD
BRANCH   5  12
ATOM     12  C   UNL     1      -4.367   0.115  25.119  0.00  0.00    +0.118 C 
BRANCH  12  13
ATOM      1 CL   UNL     1      -4.588  -2.528  23.538  0.00  0.00    -0.083 Cl
ATOM     13  C   UNL     1      -3.171  -0.798  25.095  0.00  0.00    -0.015 A 
ATOM     16  C   UNL     1      -3.188  -2.009  24.404  0.00  0.00    +0.045 A 
ATOM     17  C   UNL     1      -2.023  -0.405  25.785  0.00  0.00    +0.006 A 
ATOM     19  C   UNL     1      -2.059  -2.829  24.404  0.00  0.00    +0.020 A 
ATOM     20  C   UNL     1      -0.895  -1.224  25.786  0.00  0.00    +0.000 A 
ATOM     21  C   UNL     1      -0.913  -2.437  25.095  0.00  0.00    +0.001 A 
ENDBRANCH  12  13
ENDBRANCH   5  12
ENDBRANCH   7   5
BRANCH   7  10
ATOM     10  C   UNL     1      -4.001   2.751  23.710  0.00  0.00    +0.085 C 
BRANCH  10  11
ATOM      3  O   UNL     1      -0.493   2.773  24.567  0.00  0.00    -0.354 OA
ATOM      6  N   UNL     1      -1.800   3.221  24.720  0.00  0.00    -0.083 NA
ATOM     11  C   UNL     1      -2.511   2.523  23.830  0.00  0.00    +0.086 A 
ATOM     14  C   UNL     1      -1.715   1.629  23.095  0.00  0.00    +0.076 A 
ATOM     15  C   UNL     1      -0.456   1.824  23.597  0.00  0.00    +0.167 A 
BRANCH  15  18
ATOM     18  C   UNL     1       0.835   1.261  23.326  0.00  0.00    +0.020 A 
ATOM     22  C   UNL     1       1.974   2.064  23.393  0.00  0.00    +0.015 A 
ATOM     23  C   UNL     1       0.952  -0.088  22.997  0.00  0.00    +0.015 A 
ATOM     24  C   UNL     1       3.230   1.516  23.130  0.00  0.00    +0.046 A 
ATOM     25  C   UNL     1       2.207  -0.636  22.735  0.00  0.00    +0.046 A 
ATOM     26  C   UNL     1       3.346   0.166  22.801  0.00  0.00    +0.120 A 
BRANCH  26   4
ATOM      4  O   UNL     1       4.572  -0.369  22.548  0.00  0.00    -0.495 OA
ATOM     27  C   UNL     1       5.595  -0.133  23.513  0.00  0.00    +0.277 C 
ENDBRANCH  26   4
ENDBRANCH  15  18
ENDBRANCH  10  11
ENDBRANCH   7  10
TORSDOF 7
ENDMDL
MODEL 2
REMARK VINA RESULT:      -2.3      1.166      1.548
REMARK  Name = 71694092
REMARK  8 active torsions:
REMARK  status: ('A' for Active; 'I' for Inactive)
REMARK    1  A    between atoms: O_4  and  C_26
REMARK    2  A    between atoms: O_4  and  C_27
REMARK    3  A    between atoms: N_5  and  C_7
REMARK    4  A    between atoms: N_5  and  C_12
REMARK    5  A    between atoms: C_7  and  C_10
REMARK    6  A    between atoms: C_10  and  C_11
REMARK    7  A    between atoms: C_12  and  C_13
REMARK    8  A    between atoms: C_15  and  C_18
REMARK                            x       y       z     vdW  Elec       q    Type
REMARK                         _______ _______ _______ _____ _____    ______ ____
ROOT
ATOM      2  O   UNL     1      -5.590   4.170  26.133  0.00  0.00    -0.376 OA
ATOM      7  C   UNL     1      -4.882   2.657  24.798  0.00  0.00    +0.072 C 
ATOM      8  C   UNL     1      -6.203   3.389  25.073  0.00  0.00    +0.184 C 
ATOM      9  C   UNL     1      -4.416   3.314  26.105  0.00  0.00    +0.184 C 
ENDROOT
BRANCH   7   5
ATOM      5  N   UNL     1      -5.081   1.227  25.046  0.00  0.00    -0.302 NA
ATOM     28  H   UNL     1      -5.901   0.986  25.599  0.00  0.00    +0.123 HD
BRANCH   5  12
ATOM     12  C   UNL     1      -3.877   0.667  25.648  0.00  0.00    +0.118 C 
BRANCH  12  13
ATOM      1 CL   UNL     1      -1.082  -0.494  26.257  0.00  0.00    -0.083 Cl
ATOM     13  C   UNL     1      -3.517  -0.666  25.047  0.00  0.00    -0.015 A 
ATOM     16  C   UNL     1      -2.276  -1.259  25.274  0.00  0.00    +0.045 A 
ATOM     17  C   UNL     1      -4.463  -1.310  24.248  0.00  0.00    +0.006 A 
ATOM     19  C   UNL     1      -1.979  -2.496  24.701  0.00  0.00    +0.020 A 
ATOM     20  C   UNL     1      -4.166  -2.546  23.676  0.00  0.00    +0.000 A 
ATOM     21  C   UNL     1      -2.924  -3.140  23.902  0.00  0.00    +0.001 A 
ENDBRANCH  12  13
ENDBRANCH   5  12
ENDBRANCH   7   5
BRANCH   7  10
ATOM     10  C   UNL     1      -4.129   2.942  23.526  0.00  0.00    +0.085 C 
BRANCH  10  11
ATOM      3  O   UNL     1      -0.648   2.859  24.483  0.00  0.00    -0.354 OA
ATOM      6  N   UNL     1      -1.934   3.380  24.564  0.00  0.00    -0.083 NA
ATOM     11  C   UNL     1      -2.656   2.653  23.706  0.00  0.00    +0.086 A 
ATOM     14  C   UNL     1      -1.887   1.670  23.062  0.00  0.00    +0.076 A 
ATOM     15  C   UNL     1      -0.633   1.841  23.586  0.00  0.00    +0.167 A 
BRANCH  15  18
ATOM     18  C   UNL     1       0.635   1.198  23.396  0.00  0.00    +0.020 A 
ATOM     22  C   UNL     1       1.808   1.953  23.406  0.00  0.00    +0.015 A 
ATOM     23  C   UNL     1       0.696  -0.181  23.202  0.00  0.00    +0.015 A 
ATOM     24  C   UNL     1       3.042   1.328  23.221  0.00  0.00    +0.046 A 
ATOM     25  C   UNL     1       1.928  -0.806  23.017  0.00  0.00    +0.046 A 
ATOM     26  C   UNL     1       3.101  -0.052  23.026  0.00  0.00    +0.120 A 
BRANCH  26   4
ATOM      4  O   UNL     1       4.305  -0.663  22.850  0.00  0.00    -0.495 OA
ATOM     27  C   UNL     1       5.428  -0.090  23.517  0.00  0.00    +0.277 C 
ENDBRANCH  26   4
ENDBRANCH  15  18
ENDBRANCH  10  11
ENDBRANCH   7  10
TORSDOF 7
ENDMDL
MODEL 3
REMARK VINA RESULT:      -1.0      2.432      3.585
REMARK  Name = 71694092
REMARK  8 active torsions:
REMARK  status: ('A' for Active; 'I' for Inactive)
REMARK    1  A    between atoms: O_4  and  C_26
REMARK    2  A    between atoms: O_4  and  C_27
REMARK    3  A    between atoms: N_5  and  C_7
REMARK    4  A    between atoms: N_5  and  C_12
REMARK    5  A    between atoms: C_7  and  C_10
REMARK    6  A    between atoms: C_10  and  C_11
REMARK    7  A    between atoms: C_12  and  C_13
REMARK    8  A    between atoms: C_15  and  C_18
REMARK                            x       y       z     vdW  Elec       q    Type
REMARK                         _______ _______ _______ _____ _____    ______ ____
ROOT
ATOM      2  O   UNL     1      -6.998   1.732  26.224  0.00  0.00    -0.376 OA
ATOM      7  C   UNL     1      -5.189   1.596  25.095  0.00  0.00    +0.072 C 
ATOM      8  C   UNL     1      -5.598   1.974  26.524  0.00  0.00    +0.184 C 
ATOM      9  C   UNL     1      -6.695   1.647  24.806  0.00  0.00    +0.184 C 
ENDROOT
BRANCH   7   5
ATOM      5  N   UNL     1      -4.558   2.759  24.466  0.00  0.00    -0.302 NA
ATOM     28  H   UNL     1      -3.809   2.552  23.809  0.00  0.00    +0.123 HD
BRANCH   5  12
ATOM     12  C   UNL     1      -4.090   3.673  25.500  0.00  0.00    +0.118 C 
BRANCH  12  13
ATOM      1 CL   UNL     1      -2.766   5.971  23.919  0.00  0.00    -0.083 Cl
ATOM     13  C   UNL     1      -2.588   3.775  25.521  0.00  0.00    -0.015 A 
ATOM     16  C   UNL     1      -1.913   4.783  24.834  0.00  0.00    +0.045 A 
ATOM     17  C   UNL     1      -1.869   2.829  26.254  0.00  0.00    +0.006 A 
ATOM     19  C   UNL     1      -0.519   4.845  24.878  0.00  0.00    +0.020 A 
ATOM     20  C   UNL     1      -0.477   2.891  26.298  0.00  0.00    +0.000 A 
ATOM     21  C   UNL     1       0.198   3.899  25.610  0.00  0.00    +0.001 A 
ENDBRANCH  12  13
ENDBRANCH   5  12
ENDBRANCH   7   5
BRANCH   7  10
ATOM     10  C   UNL     1      -4.441   0.310  24.854  0.00  0.00    +0.085 C 
BRANCH  10  11
ATOM      3  O   UNL     1      -1.805   1.406  22.643  0.00  0.00    -0.354 OA
ATOM      6  N   UNL     1      -3.132   1.375  23.055  0.00  0.00    -0.083 NA
ATOM     11  C   UNL     1      -3.143   0.580  24.128  0.00  0.00    +0.086 A 
ATOM     14  C   UNL     1      -1.865   0.086  24.437  0.00  0.00    +0.076 A 
ATOM     15  C   UNL     1      -1.060   0.634  23.474  0.00  0.00    +0.167 A 
BRANCH  15  18
ATOM     18  C   UNL     1       0.340   0.570  23.175  0.00  0.00    +0.020 A 
ATOM     22  C   UNL     1       1.231   1.431  23.816  0.00  0.00    +0.015 A 
ATOM     23  C   UNL     1       0.813  -0.355  22.244  0.00  0.00    +0.015 A 
ATOM     24  C   UNL     1       2.594   1.368  23.525  0.00  0.00    +0.046 A 
ATOM     25  C   UNL     1       2.175  -0.418  21.953  0.00  0.00    +0.046 A 
ATOM     26  C   UNL     1       3.066   0.443  22.593  0.00  0.00    +0.120 A 
BRANCH  26   4
ATOM      4  O   UNL     1       4.396   0.378  22.312  0.00  0.00    -0.495 OA
ATOM     27  C   UNL     1       5.275   0.082  23.395  0.00  0.00    +0.277 C 
ENDBRANCH  26   4
ENDBRANCH  15  18
ENDBRANCH  10  11
ENDBRANCH   7  10
TORSDOF 7
ENDMDL
MODEL 4
REMARK VINA RESULT:       0.1      2.176      3.983
REMARK  Name = 71694092
REMARK  8 active torsions:
REMARK  status: ('A' for Active; 'I' for Inactive)
REMARK    1  A    between atoms: O_4  and  C_26
REMARK    2  A    between atoms: O_4  and  C_27
REMARK    3  A    between atoms: N_5  and  C_7
REMARK    4  A    between atoms: N_5  and  C_12
REMARK    5  A    between atoms: C_7  and  C_10
REMARK    6  A    between atoms: C_10  and  C_11
REMARK    7  A    between atoms: C_12  and  C_13
REMARK    8  A    between atoms: C_15  and  C_18
REMARK                            x       y       z     vdW  Elec       q    Type
REMARK                         _______ _______ _______ _____ _____    ______ ____
ROOT
ATOM      2  O   UNL     1      -3.268  -2.415  25.061  0.00  0.00    -0.376 OA
ATOM      7  C   UNL     1      -3.663  -0.369  24.586  0.00  0.00    +0.072 C 
ATOM      8  C   UNL     1      -2.725  -1.148  25.517  0.00  0.00    +0.184 C 
ATOM      9  C   UNL     1      -4.356  -1.724  24.391  0.00  0.00    +0.184 C 
ENDROOT
BRANCH   7   5
ATOM      5  N   UNL     1      -4.532   0.481  25.404  0.00  0.00    -0.302 NA
ATOM     28  H   UNL     1      -5.347   0.020  25.805  0.00  0.00    +0.123 HD
BRANCH   5  12
ATOM     12  C   UNL     1      -4.936   1.648  24.630  0.00  0.00    +0.118 C 
BRANCH  12  13
ATOM      1 CL   UNL     1      -3.988   3.383  22.259  0.00  0.00    -0.083 Cl
ATOM     13  C   UNL     1      -4.071   2.845  24.928  0.00  0.00    -0.015 A 
ATOM     16  C   UNL     1      -3.603   3.679  23.914  0.00  0.00    +0.045 A 
ATOM     17  C   UNL     1      -3.744   3.111  26.258  0.00  0.00    +0.006 A 
ATOM     19  C   UNL     1      -2.805   4.780  24.230  0.00  0.00    +0.020 A 
ATOM     20  C   UNL     1      -2.946   4.210  26.573  0.00  0.00    +0.000 A 
ATOM     21  C   UNL     1      -2.476   5.045  25.559  0.00  0.00    +0.001 A 
ENDBRANCH  12  13
ENDBRANCH   5  12
ENDBRANCH   7   5
BRANCH   7  10
ATOM     10  C   UNL     1      -3.093   0.342  23.386  0.00  0.00    +0.085 C 
BRANCH  10  11
ATOM      3  O   UNL     1       0.200   1.506  24.300  0.00  0.00    -0.354 OA
ATOM      6  N   UNL     1      -1.187   1.566  24.363  0.00  0.00    -0.083 NA
ATOM     11  C   UNL     1      -1.611   0.581  23.566  0.00  0.00    +0.086 A 
ATOM     14  C   UNL     1      -0.548  -0.126  22.980  0.00  0.00    +0.076 A 
ATOM     15  C   UNL     1       0.568   0.494  23.474  0.00  0.00    +0.167 A 
BRANCH  15  18
ATOM     18  C   UNL     1       1.980   0.307  23.311  0.00  0.00    +0.020 A 
ATOM     22  C   UNL     1       2.549  -0.945  23.544  0.00  0.00    +0.015 A 
ATOM     23  C   UNL     1       2.785   1.375  22.917  0.00  0.00    +0.015 A 
ATOM     24  C   UNL     1       3.923  -1.128  23.385  0.00  0.00    +0.046 A 
ATOM     25  C   UNL     1       4.158   1.192  22.757  0.00  0.00    +0.046 A 
ATOM     26  C   UNL     1       4.727  -0.059  22.992  0.00  0.00    +0.120 A 
BRANCH  26   4
ATOM      4  O   UNL     1       6.067  -0.238  22.832  0.00  0.00    -0.495 OA
ATOM     27  C   UNL     1       6.850  -0.368  24.018  0.00  0.00    +0.277 C 
ENDBRANCH  26   4
ENDBRANCH  15  18
ENDBRANCH  10  11
ENDBRANCH   7  10
TORSDOF 7
ENDMDL
MODEL 5
REMARK VINA RESULT:       0.4      2.594      4.231
REMARK  Name = 71694092
REMARK  8 active torsions:
REMARK  status: ('A' for Active; 'I' for Inactive)
REMARK    1  A    between atoms: O_4  and  C_26
REMARK    2  A    between atoms: O_4  and  C_27
REMARK    3  A    between atoms: N_5  and  C_7
REMARK    4  A    between atoms: N_5  and  C_12
REMARK    5  A    between atoms: C_7  and  C_10
REMARK    6  A    between atoms: C_10  and  C_11
REMARK    7  A    between atoms: C_12  and  C_13
REMARK    8  A    between atoms: C_15  and  C_18
REMARK                            x       y       z     vdW  Elec       q    Type
REMARK                         _______ _______ _______ _____ _____    ______ ____
ROOT
ATOM      2  O   UNL     1      -3.986  -3.094  24.337  0.00  0.00    -0.376 OA
ATOM      7  C   UNL     1      -3.507  -1.012  24.250  0.00  0.00    +0.072 C 
ATOM      8  C   UNL     1      -2.988  -2.258  24.981  0.00  0.00    +0.184 C 
ATOM      9  C   UNL     1      -4.683  -1.915  23.854  0.00  0.00    +0.184 C 
ENDROOT
BRANCH   7   5
ATOM      5  N   UNL     1      -3.979  -0.049  25.247  0.00  0.00    -0.302 NA
ATOM     28  H   UNL     1      -4.726  -0.376  25.856  0.00  0.00    +0.123 HD
BRANCH   5  12
ATOM     12  C   UNL     1      -4.369   1.187  24.580  0.00  0.00    +0.118 C 
BRANCH  12  13
ATOM      1 CL   UNL     1      -5.791   3.728  25.606  0.00  0.00    -0.083 Cl
ATOM     13  C   UNL     1      -3.517   2.351  25.010  0.00  0.00    -0.015 A 
ATOM     16  C   UNL     1      -4.081   3.534  25.486  0.00  0.00    +0.045 A 
ATOM     17  C   UNL     1      -2.130   2.224  24.926  0.00  0.00    +0.006 A 
ATOM     19  C   UNL     1      -3.258   4.591  25.877  0.00  0.00    +0.020 A 
ATOM     20  C   UNL     1      -1.308   3.280  25.316  0.00  0.00    +0.000 A 
ATOM     21  C   UNL     1      -1.872   4.464  25.792  0.00  0.00    +0.001 A 
ENDBRANCH  12  13
ENDBRANCH   5  12
ENDBRANCH   7   5
BRANCH   7  10
ATOM     10  C   UNL     1      -2.668  -0.386  23.167  0.00  0.00    +0.085 C 
BRANCH  10  11
ATOM      3  O   UNL     1       0.576  -1.152  24.554  0.00  0.00    -0.354 OA
ATOM      6  N   UNL     1      -0.811  -1.240  24.548  0.00  0.00    -0.083 NA
ATOM     11  C   UNL     1      -1.198  -0.518  23.492  0.00  0.00    +0.086 A 
ATOM     14  C   UNL     1      -0.110   0.043  22.802  0.00  0.00    +0.076 A 
ATOM     15  C   UNL     1       0.982  -0.386  23.510  0.00  0.00    +0.167 A 
BRANCH  15  18
ATOM     18  C   UNL     1       2.399  -0.205  23.384  0.00  0.00    +0.020 A 
ATOM     22  C   UNL     1       3.269  -1.227  23.761  0.00  0.00    +0.015 A 
ATOM     23  C   UNL     1       2.907   0.993  22.884  0.00  0.00    +0.015 A 
ATOM     24  C   UNL     1       4.647  -1.052  23.638  0.00  0.00    +0.046 A 
ATOM     25  C   UNL     1       4.285   1.169  22.760  0.00  0.00    +0.046 A 
ATOM     26  C   UNL     1       5.155   0.147  23.138  0.00  0.00    +0.120 A 
BRANCH  26   4
ATOM      4  O   UNL     1       6.500   0.318  23.014  0.00  0.00    -0.495 OA
ATOM     27  C   UNL     1       7.305  -0.859  23.012  0.00  0.00    +0.277 C 
ENDBRANCH  26   4
ENDBRANCH  15  18
ENDBRANCH  10  11
ENDBRANCH   7  10
TORSDOF 7
ENDMDL
MODEL 6
REMARK VINA RESULT:       0.5      2.711      7.425
REMARK  Name = 71694092
REMARK  8 active torsions:
REMARK  status: ('A' for Active; 'I' for Inactive)
REMARK    1  A    between atoms: O_4  and  C_26
REMARK    2  A    between atoms: O_4  and  C_27
REMARK    3  A    between atoms: N_5  and  C_7
REMARK    4  A    between atoms: N_5  and  C_12
REMARK    5  A    between atoms: C_7  and  C_10
REMARK    6  A    between atoms: C_10  and  C_11
REMARK    7  A    between atoms: C_12  and  C_13
REMARK    8  A    between atoms: C_15  and  C_18
REMARK                            x       y       z     vdW  Elec       q    Type
REMARK                         _______ _______ _______ _____ _____    ______ ____
ROOT
ATOM      2  O   UNL     1       4.811   0.096  22.527  0.00  0.00    -0.376 OA
ATOM      7  C   UNL     1       2.734   0.336  22.972  0.00  0.00    +0.072 C 
ATOM      8  C   UNL     1       3.821   1.113  22.218  0.00  0.00    +0.184 C 
ATOM      9  C   UNL     1       3.903  -0.519  23.480  0.00  0.00    +0.184 C 
ENDROOT
BRANCH   7   5
ATOM      5  N   UNL     1       2.251   1.164  24.080  0.00  0.00    -0.302 NA
ATOM     28  H   UNL     1       1.686   0.682  24.776  0.00  0.00    +0.123 HD
BRANCH   5  12
ATOM     12  C   UNL     1       1.533   2.315  23.547  0.00  0.00    +0.118 C 
BRANCH  12  13
ATOM      1 CL   UNL     1       0.058   4.936  22.852  0.00  0.00    -0.083 Cl
ATOM     13  C   UNL     1       0.479   2.810  24.501  0.00  0.00    -0.015 A 
ATOM     16  C   UNL     1      -0.233   3.984  24.261  0.00  0.00    +0.045 A 
ATOM     17  C   UNL     1       0.220   2.060  25.650  0.00  0.00    +0.006 A 
ATOM     19  C   UNL     1      -1.204   4.410  25.169  0.00  0.00    +0.020 A 
ATOM     20  C   UNL     1      -0.749   2.486  26.557  0.00  0.00    +0.000 A 
ATOM     21  C   UNL     1      -1.461   3.661  26.316  0.00  0.00    +0.001 A 
ENDBRANCH  12  13
ENDBRANCH   5  12
ENDBRANCH   7   5
BRANCH   7  10
ATOM     10  C   UNL     1       1.625  -0.327  22.197  0.00  0.00    +0.085 C 
BRANCH  10  11
ATOM      3  O   UNL     1      -1.137  -0.863  24.460  0.00  0.00    -0.354 OA
ATOM      6  N   UNL     1       0.120  -1.177  23.957  0.00  0.00    -0.083 NA
ATOM     11  C   UNL     1       0.333  -0.289  22.982  0.00  0.00    +0.086 A 
ATOM     14  C   UNL     1      -0.743   0.600  22.826  0.00  0.00    +0.076 A 
ATOM     15  C   UNL     1      -1.641   0.197  23.778  0.00  0.00    +0.167 A 
BRANCH  15  18
ATOM     18  C   UNL     1      -2.941   0.640  24.189  0.00  0.00    +0.020 A 
ATOM     22  C   UNL     1      -3.755  -0.198  24.951  0.00  0.00    +0.015 A 
ATOM     23  C   UNL     1      -3.391   1.910  23.829  0.00  0.00    +0.015 A 
ATOM     24  C   UNL     1      -5.020   0.233  25.351  0.00  0.00    +0.046 A 
ATOM     25  C   UNL     1      -4.655   2.341  24.229  0.00  0.00    +0.046 A 
ATOM     26  C   UNL     1      -5.470   1.503  24.989  0.00  0.00    +0.120 A 
BRANCH  26   4
ATOM      4  O   UNL     1      -6.702   1.926  25.383  0.00  0.00    -0.495 OA
ATOM     27  C   UNL     1      -6.958   1.966  26.786  0.00  0.00    +0.277 C 
ENDBRANCH  26   4
ENDBRANCH  15  18
ENDBRANCH  10  11
ENDBRANCH   7  10
TORSDOF 7
ENDMDL
