MODEL 1
REMARK VINA RESULT:      19.6      0.000      0.000
REMARK  Name = 51136867
REMARK  8 active torsions:
REMARK  status: ('A' for Active; 'I' for Inactive)
REMARK    1  A    between atoms: O_4  and  C_35
REMARK    2  A    between atoms: O_4  and  C_36
REMARK    3  A    between atoms: N_5  and  C_11
REMARK    4  A    between atoms: N_10  and  C_28
REMARK    5  A    between atoms: C_12  and  C_20
REMARK    6  A    between atoms: C_21  and  C_22
REMARK    7  A    between atoms: C_23  and  C_24
REMARK    8  A    between atoms: C_29  and  C_30
REMARK                            x       y       z     vdW  Elec       q    Type
REMARK                         _______ _______ _______ _____ _____    ______ ____
ROOT
ATOM      1  O   UNL     1      -2.470   3.503  24.129  0.00  0.00    -0.336 OA
ATOM      7  N   UNL     1      -1.914   1.356  23.808  0.00  0.00    -0.190 NA
ATOM      8  N   UNL     1      -1.081   3.483  23.950  0.00  0.00    -0.056 NA
ATOM     20  C   UNL     1      -2.880   2.211  24.031  0.00  0.00    +0.245 A 
ATOM     23  C   UNL     1      -0.829   2.184  23.766  0.00  0.00    +0.204 A 
ENDROOT
BRANCH  23  24
ATOM      9  N   UNL     1       2.856   2.122  23.276  0.00  0.00    -0.239 NA
ATOM     24  C   UNL     1       0.494   1.679  23.540  0.00  0.00    +0.041 A 
ATOM     25  C   UNL     1       0.723   0.318  23.368  0.00  0.00    +0.016 A 
ATOM     26  C   UNL     1       1.586   2.531  23.486  0.00  0.00    +0.124 A 
ATOM     27  C   UNL     1       2.017  -0.141  23.150  0.00  0.00    +0.044 A 
ATOM     28  C   UNL     1       3.040   0.793  23.113  0.00  0.00    +0.125 A 
BRANCH  28  10
ATOM      3  O   UNL     1       5.434   0.789  24.918  0.00  0.00    -0.270 OA
ATOM     10  N   UNL     1       4.338   0.319  22.893  0.00  0.00    -0.266 N 
ATOM     29  C   UNL     1       5.423   0.343  23.775  0.00  0.00    +0.249 C 
ATOM     37  H   UNL     1       4.447  -0.121  21.984  0.00  0.00    +0.157 HD
BRANCH  29  30
ATOM     30  C   UNL     1       6.675  -0.268  23.258  0.00  0.00    +0.037 A 
ATOM     31  C   UNL     1       6.617  -1.427  22.484  0.00  0.00    +0.016 A 
ATOM     32  C   UNL     1       7.907   0.317  23.546  0.00  0.00    +0.016 A 
ATOM     33  C   UNL     1       7.793  -2.002  21.999  0.00  0.00    +0.046 A 
ATOM     34  C   UNL     1       9.083  -0.257  23.062  0.00  0.00    +0.046 A 
ATOM     35  C   UNL     1       9.026  -1.417  22.289  0.00  0.00    +0.120 A 
BRANCH  35   4
ATOM      4  O   UNL     1      10.172  -1.978  21.816  0.00  0.00    -0.495 OA
ATOM     36  C   UNL     1      10.070  -3.286  21.252  0.00  0.00    +0.277 C 
ENDBRANCH  35   4
ENDBRANCH  29  30
ENDBRANCH  28  10
ENDBRANCH  23  24
BRANCH  20  12
ATOM      5  N   UNL     1      -4.697   1.309  25.474  0.00  0.00    -0.288 NA
ATOM     12  C   UNL     1      -4.366   1.960  24.190  0.00  0.00    +0.146 C 
ATOM     13  C   UNL     1      -6.049   1.747  25.821  0.00  0.00    +0.085 C 
ATOM     14  C   UNL     1      -5.192   3.260  24.185  0.00  0.00    +0.030 C 
ATOM     17  C   UNL     1      -6.000   3.221  25.474  0.00  0.00    +0.017 C 
BRANCH   5  11
ATOM      2  O   UNL     1      -1.067  -3.645  25.188  0.00  0.00    -0.276 OA
ATOM      6  N   UNL     1      -3.069  -2.533  24.800  0.00  0.00    -0.302 N 
ATOM     11  C   UNL     1      -4.586  -0.147  25.426  0.00  0.00    +0.060 C 
ATOM     15  C   UNL     1      -4.383  -0.613  23.979  0.00  0.00    +0.038 C 
ATOM     16  C   UNL     1      -3.421  -0.614  26.308  0.00  0.00    +0.038 C 
ATOM     18  C   UNL     1      -4.167  -2.125  23.914  0.00  0.00    +0.109 C 
ATOM     19  C   UNL     1      -3.225  -2.125  26.198  0.00  0.00    +0.109 C 
ATOM     21  C   UNL     1      -1.960  -3.284  24.416  0.00  0.00    +0.212 C 
ATOM     22  C   UNL     1      -1.870  -3.661  22.959  0.00  0.00    +0.109 C 
ENDBRANCH   5  11
ENDBRANCH  20  12
TORSDOF 6
ENDMDL
MODEL 2
REMARK VINA RESULT:      22.0      1.826      4.202
REMARK  Name = 51136867
REMARK  8 active torsions:
REMARK  status: ('A' for Active; 'I' for Inactive)
REMARK    1  A    between atoms: O_4  and  C_35
REMARK    2  A    between atoms: O_4  and  C_36
REMARK    3  A    between atoms: N_5  and  C_11
REMARK    4  A    between atoms: N_10  and  C_28
REMARK    5  A    between atoms: C_12  and  C_20
REMARK    6  A    between atoms: C_21  and  C_22
REMARK    7  A    between atoms: C_23  and  C_24
REMARK    8  A    between atoms: C_29  and  C_30
REMARK                            x       y       z     vdW  Elec       q    Type
REMARK                         _______ _______ _______ _____ _____    ______ ____
ROOT
ATOM      1  O   UNL     1      -1.046   0.927  24.047  0.00  0.00    -0.336 OA
ATOM      7  N   UNL     1       0.001  -1.050  24.170  0.00  0.00    -0.190 NA
ATOM      8  N   UNL     1       0.284   1.168  23.683  0.00  0.00    -0.056 NA
ATOM     20  C   UNL     1      -1.127  -0.402  24.318  0.00  0.00    +0.245 A 
ATOM     23  C   UNL     1       0.837  -0.045  23.779  0.00  0.00    +0.204 A 
ENDROOT
BRANCH  23  24
ATOM      9  N   UNL     1       4.165  -1.703  23.742  0.00  0.00    -0.239 NA
ATOM     24  C   UNL     1       2.222  -0.286  23.495  0.00  0.00    +0.041 A 
ATOM     25  C   UNL     1       2.964   0.608  22.729  0.00  0.00    +0.016 A 
ATOM     26  C   UNL     1       2.865  -1.417  23.973  0.00  0.00    +0.124 A 
ATOM     27  C   UNL     1       4.305   0.348  22.472  0.00  0.00    +0.044 A 
ATOM     28  C   UNL     1       4.854  -0.811  22.996  0.00  0.00    +0.125 A 
BRANCH  28  10
ATOM      3  O   UNL     1       7.298   0.772  23.710  0.00  0.00    -0.270 OA
ATOM     10  N   UNL     1       6.204  -1.063  22.729  0.00  0.00    -0.266 N 
ATOM     29  C   UNL     1       7.310  -0.286  23.088  0.00  0.00    +0.249 C 
ATOM     37  H   UNL     1       6.352  -1.946  22.250  0.00  0.00    +0.157 HD
BRANCH  29  30
ATOM     30  C   UNL     1       8.630  -0.837  22.683  0.00  0.00    +0.037 A 
ATOM     31  C   UNL     1       8.698  -2.047  21.993  0.00  0.00    +0.016 A 
ATOM     32  C   UNL     1       9.799  -0.143  22.994  0.00  0.00    +0.016 A 
ATOM     33  C   UNL     1       9.938  -2.565  21.614  0.00  0.00    +0.046 A 
ATOM     34  C   UNL     1      11.039  -0.661  22.615  0.00  0.00    +0.046 A 
ATOM     35  C   UNL     1      11.108  -1.872  21.926  0.00  0.00    +0.120 A 
BRANCH  35   4
ATOM      4  O   UNL     1      12.316  -2.377  21.557  0.00  0.00    -0.495 OA
ATOM     36  C   UNL     1      12.360  -3.759  21.198  0.00  0.00    +0.277 C 
ENDBRANCH  35   4
ENDBRANCH  29  30
ENDBRANCH  28  10
ENDBRANCH  23  24
BRANCH  20  12
ATOM      5  N   UNL     1      -3.539  -0.636  23.747  0.00  0.00    -0.288 NA
ATOM     12  C   UNL     1      -2.485  -0.924  24.741  0.00  0.00    +0.146 C 
ATOM     13  C   UNL     1      -4.527  -1.707  23.871  0.00  0.00    +0.085 C 
ATOM     14  C   UNL     1      -2.509  -2.455  24.904  0.00  0.00    +0.030 C 
ATOM     17  C   UNL     1      -3.647  -2.931  24.012  0.00  0.00    +0.017 C 
BRANCH   5  11
ATOM      2  O   UNL     1      -2.732   5.373  24.771  0.00  0.00    -0.276 OA
ATOM      6  N   UNL     1      -3.981   3.417  24.864  0.00  0.00    -0.302 N 
ATOM     11  C   UNL     1      -4.138   0.687  23.911  0.00  0.00    +0.060 C 
ATOM     15  C   UNL     1      -4.267   1.026  25.401  0.00  0.00    +0.038 C 
ATOM     16  C   UNL     1      -3.287   1.742  23.193  0.00  0.00    +0.038 C 
ATOM     18  C   UNL     1      -4.802   2.445  25.597  0.00  0.00    +0.109 C 
ATOM     19  C   UNL     1      -3.841   3.145  23.432  0.00  0.00    +0.109 C 
ATOM     21  C   UNL     1      -3.388   4.551  25.416  0.00  0.00    +0.212 C 
ATOM     22  C   UNL     1      -3.576   4.758  26.899  0.00  0.00    +0.109 C 
ENDBRANCH   5  11
ENDBRANCH  20  12
TORSDOF 6
ENDMDL
MODEL 3
REMARK VINA RESULT:      22.7      2.058      3.335
REMARK  Name = 51136867
REMARK  8 active torsions:
REMARK  status: ('A' for Active; 'I' for Inactive)
REMARK    1  A    between atoms: O_4  and  C_35
REMARK    2  A    between atoms: O_4  and  C_36
REMARK    3  A    between atoms: N_5  and  C_11
REMARK    4  A    between atoms: N_10  and  C_28
REMARK    5  A    between atoms: C_12  and  C_20
REMARK    6  A    between atoms: C_21  and  C_22
REMARK    7  A    between atoms: C_23  and  C_24
REMARK    8  A    between atoms: C_29  and  C_30
REMARK                            x       y       z     vdW  Elec       q    Type
REMARK                         _______ _______ _______ _____ _____    ______ ____
ROOT
ATOM      1  O   UNL     1      -0.306   0.106  23.720  0.00  0.00    -0.336 OA
ATOM      7  N   UNL     1       1.434   1.511  23.580  0.00  0.00    -0.190 NA
ATOM      8  N   UNL     1       0.819  -0.691  23.478  0.00  0.00    -0.056 NA
ATOM     20  C   UNL     1       0.144   1.388  23.765  0.00  0.00    +0.245 A 
ATOM     23  C   UNL     1       1.804   0.208  23.408  0.00  0.00    +0.204 A 
ENDROOT
BRANCH  23  24
ATOM      9  N   UNL     1       5.254   0.277  22.024  0.00  0.00    -0.239 NA
ATOM     24  C   UNL     1       3.169  -0.160  23.165  0.00  0.00    +0.041 A 
ATOM     25  C   UNL     1       3.738  -1.261  23.797  0.00  0.00    +0.016 A 
ATOM     26  C   UNL     1       3.964   0.570  22.296  0.00  0.00    +0.124 A 
ATOM     27  C   UNL     1       5.063  -1.595  23.541  0.00  0.00    +0.044 A 
ATOM     28  C   UNL     1       5.773  -0.800  22.654  0.00  0.00    +0.125 A 
BRANCH  28  10
ATOM      3  O   UNL     1       8.314   0.499  23.572  0.00  0.00    -0.270 OA
ATOM     10  N   UNL     1       7.106  -1.145  22.405  0.00  0.00    -0.266 N 
ATOM     29  C   UNL     1       8.260  -0.500  22.861  0.00  0.00    +0.249 C 
ATOM     37  H   UNL     1       7.196  -1.994  21.855  0.00  0.00    +0.157 HD
BRANCH  29  30
ATOM     30  C   UNL     1       9.542  -1.127  22.447  0.00  0.00    +0.037 A 
ATOM     31  C   UNL     1       9.555  -2.437  21.967  0.00  0.00    +0.016 A 
ATOM     32  C   UNL     1      10.732  -0.406  22.540  0.00  0.00    +0.016 A 
ATOM     33  C   UNL     1      10.759  -3.026  21.580  0.00  0.00    +0.046 A 
ATOM     34  C   UNL     1      11.937  -0.995  22.153  0.00  0.00    +0.046 A 
ATOM     35  C   UNL     1      11.950  -2.306  21.674  0.00  0.00    +0.120 A 
BRANCH  35   4
ATOM      4  O   UNL     1      13.124  -2.881  21.297  0.00  0.00    -0.495 OA
ATOM     36  C   UNL     1      14.281  -2.561  22.070  0.00  0.00    +0.277 C 
ENDBRANCH  35   4
ENDBRANCH  29  30
ENDBRANCH  28  10
ENDBRANCH  23  24
BRANCH  20  12
ATOM      5  N   UNL     1      -1.391   2.452  25.411  0.00  0.00    -0.288 NA
ATOM     12  C   UNL     1      -0.896   2.460  24.020  0.00  0.00    +0.146 C 
ATOM     13  C   UNL     1      -1.773   3.830  25.721  0.00  0.00    +0.085 C 
ATOM     14  C   UNL     1      -0.346   3.883  23.808  0.00  0.00    +0.030 C 
ATOM     17  C   UNL     1      -0.632   4.617  25.111  0.00  0.00    +0.017 C 
BRANCH   5  11
ATOM      2  O   UNL     1      -3.488  -3.314  25.027  0.00  0.00    -0.276 OA
ATOM      6  N   UNL     1      -3.788  -1.011  25.057  0.00  0.00    -0.302 N 
ATOM     11  C   UNL     1      -2.491   1.515  25.625  0.00  0.00    +0.060 C 
ATOM     15  C   UNL     1      -3.243   1.276  24.310  0.00  0.00    +0.038 C 
ATOM     16  C   UNL     1      -1.953   0.191  26.182  0.00  0.00    +0.038 C 
ATOM     18  C   UNL     1      -4.338   0.224  24.487  0.00  0.00    +0.109 C 
ATOM     19  C   UNL     1      -3.073  -0.837  26.323  0.00  0.00    +0.109 C 
ATOM     21  C   UNL     1      -3.931  -2.285  24.510  0.00  0.00    +0.212 C 
ATOM     22  C   UNL     1      -4.676  -2.380  23.202  0.00  0.00    +0.109 C 
ENDBRANCH   5  11
ENDBRANCH  20  12
TORSDOF 6
ENDMDL
MODEL 4
REMARK VINA RESULT:      23.4      1.976      4.189
REMARK  Name = 51136867
REMARK  8 active torsions:
REMARK  status: ('A' for Active; 'I' for Inactive)
REMARK    1  A    between atoms: O_4  and  C_35
REMARK    2  A    between atoms: O_4  and  C_36
REMARK    3  A    between atoms: N_5  and  C_11
REMARK    4  A    between atoms: N_10  and  C_28
REMARK    5  A    between atoms: C_12  and  C_20
REMARK    6  A    between atoms: C_21  and  C_22
REMARK    7  A    between atoms: C_23  and  C_24
REMARK    8  A    between atoms: C_29  and  C_30
REMARK                            x       y       z     vdW  Elec       q    Type
REMARK                         _______ _______ _______ _____ _____    ______ ____
ROOT
ATOM      1  O   UNL     1      -4.238  -1.030  24.535  0.00  0.00    -0.336 OA
ATOM      7  N   UNL     1      -2.779   0.645  24.827  0.00  0.00    -0.190 NA
ATOM      8  N   UNL     1      -2.980  -1.548  24.204  0.00  0.00    -0.056 NA
ATOM     20  C   UNL     1      -4.030   0.265  24.891  0.00  0.00    +0.245 A 
ATOM     23  C   UNL     1      -2.173  -0.501  24.401  0.00  0.00    +0.204 A 
ENDROOT
BRANCH  23  24
ATOM      9  N   UNL     1       1.231   0.420  23.224  0.00  0.00    -0.239 NA
ATOM     24  C   UNL     1      -0.757  -0.566  24.181  0.00  0.00    +0.041 A 
ATOM     25  C   UNL     1      -0.002  -1.624  24.676  0.00  0.00    +0.016 A 
ATOM     26  C   UNL     1      -0.097   0.422  23.468  0.00  0.00    +0.124 A 
ATOM     27  C   UNL     1       1.369  -1.661  24.444  0.00  0.00    +0.044 A 
ATOM     28  C   UNL     1       1.933  -0.623  23.719  0.00  0.00    +0.125 A 
BRANCH  28  10
ATOM      3  O   UNL     1       3.883   1.586  23.167  0.00  0.00    -0.270 OA
ATOM     10  N   UNL     1       3.312  -0.670  23.493  0.00  0.00    -0.266 N 
ATOM     29  C   UNL     1       4.179   0.398  23.239  0.00  0.00    +0.249 C 
ATOM     37  H   UNL     1       3.692  -1.609  23.571  0.00  0.00    +0.157 HD
BRANCH  29  30
ATOM     30  C   UNL     1       5.608   0.029  23.068  0.00  0.00    +0.037 A 
ATOM     31  C   UNL     1       5.956  -1.059  22.267  0.00  0.00    +0.016 A 
ATOM     32  C   UNL     1       6.601   0.769  23.709  0.00  0.00    +0.016 A 
ATOM     33  C   UNL     1       7.298  -1.407  22.108  0.00  0.00    +0.046 A 
ATOM     34  C   UNL     1       7.943   0.422  23.550  0.00  0.00    +0.046 A 
ATOM     35  C   UNL     1       8.291  -0.667  22.750  0.00  0.00    +0.120 A 
BRANCH  35   4
ATOM      4  O   UNL     1       9.600  -1.007  22.594  0.00  0.00    -0.495 OA
ATOM     36  C   UNL     1      10.553   0.056  22.617  0.00  0.00    +0.277 C 
ENDBRANCH  35   4
ENDBRANCH  29  30
ENDBRANCH  28  10
ENDBRANCH  23  24
BRANCH  20  12
ATOM      5  N   UNL     1      -5.471   2.247  24.452  0.00  0.00    -0.288 NA
ATOM     12  C   UNL     1      -5.255   1.058  25.300  0.00  0.00    +0.146 C 
ATOM     13  C   UNL     1      -6.913   2.489  24.440  0.00  0.00    +0.085 C 
ATOM     14  C   UNL     1      -6.557   0.246  25.176  0.00  0.00    +0.030 C 
ATOM     17  C   UNL     1      -7.466   1.086  24.290  0.00  0.00    +0.017 C 
BRANCH   5  11
ATOM      2  O   UNL     1      -0.413   5.708  23.966  0.00  0.00    -0.276 OA
ATOM      6  N   UNL     1      -2.219   4.855  25.151  0.00  0.00    -0.302 N 
ATOM     11  C   UNL     1      -4.720   3.417  24.900  0.00  0.00    +0.060 C 
ATOM     15  C   UNL     1      -3.653   3.000  25.920  0.00  0.00    +0.038 C 
ATOM     16  C   UNL     1      -4.070   4.116  23.699  0.00  0.00    +0.038 C 
ATOM     18  C   UNL     1      -2.791   4.194  26.331  0.00  0.00    +0.109 C 
ATOM     19  C   UNL     1      -3.201   5.287  24.155  0.00  0.00    +0.109 C 
ATOM     21  C   UNL     1      -0.866   5.119  24.951  0.00  0.00    +0.212 C 
ATOM     22  C   UNL     1       0.082   4.638  26.021  0.00  0.00    +0.109 C 
ENDBRANCH   5  11
ENDBRANCH  20  12
TORSDOF 6
ENDMDL
