MODEL 1
REMARK VINA RESULT:      -5.0      0.000      0.000
REMARK  Name = 26742981
REMARK  9 active torsions:
REMARK  status: ('A' for Active; 'I' for Inactive)
REMARK    1  A    between atoms: N_5  and  C_22
REMARK    2  A    between atoms: C_7  and  C_11
REMARK    3  A    between atoms: C_8  and  C_13
REMARK    4  A    between atoms: C_11  and  C_14
REMARK    5  A    between atoms: C_13  and  C_15
REMARK    6  A    between atoms: C_21  and  C_23
REMARK    7  A    between atoms: C_23  and  C_24
REMARK    8  A    between atoms: C_24  and  C_25
REMARK    9  A    between atoms: C_25  and  C_26
REMARK                            x       y       z     vdW  Elec       q    Type
REMARK                         _______ _______ _______ _____ _____    ______ ____
ROOT
ATOM      3  N   UNL     1      -2.963  -3.365  23.978  0.00  0.00    -0.316 NA
ATOM      7  C   UNL     1      -3.477  -0.470  24.232  0.00  0.00    +0.004 C 
ATOM      8  C   UNL     1      -2.059  -1.079  24.334  0.00  0.00    +0.012 C 
ATOM      9  C   UNL     1      -4.373  -1.416  23.414  0.00  0.00    +0.019 C 
ATOM     10  C   UNL     1      -2.101  -2.538  24.822  0.00  0.00    +0.085 C 
ATOM     12  C   UNL     1      -4.331  -2.852  23.933  0.00  0.00    +0.081 C 
ATOM     27  H   UNL     1      -2.973  -4.319  24.337  0.00  0.00    +0.122 HD
ENDROOT
BRANCH   7  11
ATOM     11  C   UNL     1      -4.118  -0.151  25.587  0.00  0.00    +0.100 C 
BRANCH  11  14
ATOM      1  O   UNL     1      -6.022   1.224  25.905  0.00  0.00    -0.276 OA
ATOM      4  N   UNL     1      -4.145   2.247  24.995  0.00  0.00    -0.299 N 
ATOM      5  N   UNL     1      -2.570   4.622  24.698  0.00  0.00    -0.302 NA
ATOM     14  C   UNL     1      -4.854   1.163  25.512  0.00  0.00    +0.216 C 
ATOM     16  C   UNL     1      -4.787   3.556  24.894  0.00  0.00    +0.123 C 
ATOM     17  C   UNL     1      -2.807   2.179  24.400  0.00  0.00    +0.123 C 
ATOM     18  C   UNL     1      -3.864   4.667  25.394  0.00  0.00    +0.103 C 
ATOM     19  C   UNL     1      -1.921   3.318  24.903  0.00  0.00    +0.103 C 
ATOM     22  C   UNL     1      -1.703   5.706  25.154  0.00  0.00    +0.105 C 
ENDBRANCH  11  14
ENDBRANCH   7  11
BRANCH   8  13
ATOM     13  C   UNL     1      -1.110  -0.250  25.199  0.00  0.00    +0.064 C 
BRANCH  13  15
ATOM      2  O   UNL     1       1.635   1.514  23.679  0.00  0.00    -0.359 OA
ATOM      6  N   UNL     1       0.515   1.454  24.500  0.00  0.00    -0.083 NA
ATOM     15  C   UNL     1       0.099   0.187  24.425  0.00  0.00    +0.084 A 
ATOM     20  C   UNL     1       0.908  -0.592  23.580  0.00  0.00    +0.071 A 
ATOM     21  C   UNL     1       1.859   0.290  23.136  0.00  0.00    +0.138 A 
BRANCH  21  23
ATOM     23  C   UNL     1       3.013   0.174  22.236  0.00  0.00    +0.077 C 
BRANCH  23  24
ATOM     24  C   UNL     1       4.226   1.012  22.697  0.00  0.00    +0.007 C 
BRANCH  24  25
ATOM     25  C   UNL     1       5.270   0.176  23.437  0.00  0.00    -0.003 C 
ATOM     26  C   UNL     1       4.725  -1.194  23.809  0.00  0.00    +0.004 C 
ENDBRANCH  24  25
ENDBRANCH  23  24
ENDBRANCH  21  23
ENDBRANCH  13  15
ENDBRANCH   8  13
TORSDOF 7
ENDMDL
MODEL 2
REMARK VINA RESULT:      -3.1      1.626      2.055
REMARK  Name = 26742981
REMARK  9 active torsions:
REMARK  status: ('A' for Active; 'I' for Inactive)
REMARK    1  A    between atoms: N_5  and  C_22
REMARK    2  A    between atoms: C_7  and  C_11
REMARK    3  A    between atoms: C_8  and  C_13
REMARK    4  A    between atoms: C_11  and  C_14
REMARK    5  A    between atoms: C_13  and  C_15
REMARK    6  A    between atoms: C_21  and  C_23
REMARK    7  A    between atoms: C_23  and  C_24
REMARK    8  A    between atoms: C_24  and  C_25
REMARK    9  A    between atoms: C_25  and  C_26
REMARK                            x       y       z     vdW  Elec       q    Type
REMARK                         _______ _______ _______ _____ _____    ______ ____
ROOT
ATOM      3  N   UNL     1      -3.116  -2.869  26.205  0.00  0.00    -0.316 NA
ATOM      7  C   UNL     1      -2.623  -1.273  23.772  0.00  0.00    +0.004 C 
ATOM      8  C   UNL     1      -1.867  -1.029  25.099  0.00  0.00    +0.012 C 
ATOM      9  C   UNL     1      -3.122  -2.728  23.739  0.00  0.00    +0.019 C 
ATOM     10  C   UNL     1      -2.698  -1.472  26.316  0.00  0.00    +0.085 C 
ATOM     12  C   UNL     1      -3.903  -3.105  24.996  0.00  0.00    +0.081 C 
ATOM     27  H   UNL     1      -3.670  -3.121  27.022  0.00  0.00    +0.122 HD
ENDROOT
BRANCH   7  11
ATOM     11  C   UNL     1      -3.776  -0.296  23.523  0.00  0.00    +0.100 C 
BRANCH  11  14
ATOM      1  O   UNL     1      -2.446   1.325  22.418  0.00  0.00    -0.276 OA
ATOM      4  N   UNL     1      -3.685   2.067  24.239  0.00  0.00    -0.299 N 
ATOM      5  N   UNL     1      -5.110   4.205  25.505  0.00  0.00    -0.302 NA
ATOM     14  C   UNL     1      -3.237   1.101  23.338  0.00  0.00    +0.216 C 
ATOM     16  C   UNL     1      -3.213   3.445  24.123  0.00  0.00    +0.123 C 
ATOM     17  C   UNL     1      -4.517   1.806  25.417  0.00  0.00    +0.123 C 
ATOM     18  C   UNL     1      -4.365   4.440  24.261  0.00  0.00    +0.103 C 
ATOM     19  C   UNL     1      -5.642   2.835  25.536  0.00  0.00    +0.103 C 
ATOM     22  C   UNL     1      -6.190   5.179  25.650  0.00  0.00    +0.105 C 
ENDBRANCH  11  14
ENDBRANCH   7  11
BRANCH   8  13
ATOM     13  C   UNL     1      -1.397   0.416  25.266  0.00  0.00    +0.064 C 
BRANCH  13  15
ATOM      2  O   UNL     1       1.615   1.746  23.812  0.00  0.00    -0.359 OA
ATOM      6  N   UNL     1       0.506   1.839  24.644  0.00  0.00    -0.083 NA
ATOM     15  C   UNL     1      -0.133   0.674  24.501  0.00  0.00    +0.084 A 
ATOM     20  C   UNL     1       0.520  -0.185  23.599  0.00  0.00    +0.071 A 
ATOM     21  C   UNL     1       1.612   0.537  23.194  0.00  0.00    +0.138 A 
BRANCH  21  23
ATOM     23  C   UNL     1       2.722   0.269  22.272  0.00  0.00    +0.077 C 
BRANCH  23  24
ATOM     24  C   UNL     1       4.037   0.964  22.691  0.00  0.00    +0.007 C 
BRANCH  24  25
ATOM     25  C   UNL     1       5.127  -0.032  23.087  0.00  0.00    -0.003 C 
ATOM     26  C   UNL     1       5.639   0.232  24.494  0.00  0.00    +0.004 C 
ENDBRANCH  24  25
ENDBRANCH  23  24
ENDBRANCH  21  23
ENDBRANCH  13  15
ENDBRANCH   8  13
TORSDOF 7
ENDMDL
MODEL 3
REMARK VINA RESULT:      -3.0      1.789      4.780
REMARK  Name = 26742981
REMARK  9 active torsions:
REMARK  status: ('A' for Active; 'I' for Inactive)
REMARK    1  A    between atoms: N_5  and  C_22
REMARK    2  A    between atoms: C_7  and  C_11
REMARK    3  A    between atoms: C_8  and  C_13
REMARK    4  A    between atoms: C_11  and  C_14
REMARK    5  A    between atoms: C_13  and  C_15
REMARK    6  A    between atoms: C_21  and  C_23
REMARK    7  A    between atoms: C_23  and  C_24
REMARK    8  A    between atoms: C_24  and  C_25
REMARK    9  A    between atoms: C_25  and  C_26
REMARK                            x       y       z     vdW  Elec       q    Type
REMARK                         _______ _______ _______ _____ _____    ______ ____
ROOT
ATOM      3  N   UNL     1      -6.216   3.589  25.736  0.00  0.00    -0.316 NA
ATOM      7  C   UNL     1      -3.726   2.045  25.382  0.00  0.00    +0.004 C 
ATOM      8  C   UNL     1      -3.739   3.582  25.558  0.00  0.00    +0.012 C 
ATOM      9  C   UNL     1      -5.000   1.456  26.013  0.00  0.00    +0.019 C 
ATOM     10  C   UNL     1      -5.063   4.198  25.074  0.00  0.00    +0.085 C 
ATOM     12  C   UNL     1      -6.269   2.145  25.515  0.00  0.00    +0.081 C 
ATOM     27  H   UNL     1      -7.072   4.015  25.384  0.00  0.00    +0.122 HD
ENDROOT
BRANCH   7  11
ATOM     11  C   UNL     1      -3.576   1.585  23.928  0.00  0.00    +0.100 C 
BRANCH  11  14
ATOM      1  O   UNL     1      -4.645  -0.360  23.097  0.00  0.00    -0.276 OA
ATOM      4  N   UNL     1      -2.918  -0.694  24.614  0.00  0.00    -0.299 N 
ATOM      5  N   UNL     1      -0.770  -2.354  25.532  0.00  0.00    -0.302 NA
ATOM     14  C   UNL     1      -3.768   0.092  23.838  0.00  0.00    +0.216 C 
ATOM     16  C   UNL     1      -3.037  -2.151  24.578  0.00  0.00    +0.123 C 
ATOM     17  C   UNL     1      -1.959  -0.187  25.600  0.00  0.00    +0.123 C 
ATOM     18  C   UNL     1      -1.666  -2.817  24.463  0.00  0.00    +0.103 C 
ATOM     19  C   UNL     1      -0.609  -0.893  25.472  0.00  0.00    +0.103 C 
ATOM     22  C   UNL     1       0.528  -3.018  25.439  0.00  0.00    +0.105 C 
ENDBRANCH  11  14
ENDBRANCH   7  11
BRANCH   8  13
ATOM     13  C   UNL     1      -2.549   4.273  24.891  0.00  0.00    +0.064 C 
BRANCH  13  15
ATOM      2  O   UNL     1       0.340   2.354  25.854  0.00  0.00    -0.359 OA
ATOM      6  N   UNL     1      -0.766   3.142  26.147  0.00  0.00    -0.083 NA
ATOM     15  C   UNL     1      -1.313   3.425  24.961  0.00  0.00    +0.084 A 
ATOM     20  C   UNL     1      -0.602   2.848  23.894  0.00  0.00    +0.071 A 
ATOM     21  C   UNL     1       0.428   2.187  24.510  0.00  0.00    +0.138 A 
BRANCH  21  23
ATOM     23  C   UNL     1       1.549   1.372  24.023  0.00  0.00    +0.077 C 
BRANCH  23  24
ATOM     24  C   UNL     1       1.138   0.386  22.906  0.00  0.00    +0.007 C 
BRANCH  24  25
ATOM     25  C   UNL     1       2.329  -0.081  22.068  0.00  0.00    -0.003 C 
ATOM     26  C   UNL     1       3.617   0.599  22.505  0.00  0.00    +0.004 C 
ENDBRANCH  24  25
ENDBRANCH  23  24
ENDBRANCH  21  23
ENDBRANCH  13  15
ENDBRANCH   8  13
TORSDOF 7
ENDMDL
MODEL 4
REMARK VINA RESULT:      -2.9      1.493      4.580
REMARK  Name = 26742981
REMARK  9 active torsions:
REMARK  status: ('A' for Active; 'I' for Inactive)
REMARK    1  A    between atoms: N_5  and  C_22
REMARK    2  A    between atoms: C_7  and  C_11
REMARK    3  A    between atoms: C_8  and  C_13
REMARK    4  A    between atoms: C_11  and  C_14
REMARK    5  A    between atoms: C_13  and  C_15
REMARK    6  A    between atoms: C_21  and  C_23
REMARK    7  A    between atoms: C_23  and  C_24
REMARK    8  A    between atoms: C_24  and  C_25
REMARK    9  A    between atoms: C_25  and  C_26
REMARK                            x       y       z     vdW  Elec       q    Type
REMARK                         _______ _______ _______ _____ _____    ______ ____
ROOT
ATOM      3  N   UNL     1      -0.879   5.172  25.035  0.00  0.00    -0.316 NA
ATOM      7  C   UNL     1      -2.903   3.069  25.474  0.00  0.00    +0.004 C 
ATOM      8  C   UNL     1      -1.438   2.752  25.090  0.00  0.00    +0.012 C 
ATOM      9  C   UNL     1      -2.956   4.446  26.158  0.00  0.00    +0.019 C 
ATOM     10  C   UNL     1      -0.794   3.908  24.304  0.00  0.00    +0.085 C 
ATOM     12  C   UNL     1      -2.263   5.532  25.338  0.00  0.00    +0.081 C 
ATOM     27  H   UNL     1      -0.452   5.912  24.480  0.00  0.00    +0.122 HD
ENDROOT
BRANCH   7  11
ATOM     11  C   UNL     1      -3.883   3.007  24.297  0.00  0.00    +0.100 C 
BRANCH  11  14
ATOM      1  O   UNL     1      -3.027   2.050  22.305  0.00  0.00    -0.276 OA
ATOM      4  N   UNL     1      -3.841   0.570  23.900  0.00  0.00    -0.299 N 
ATOM      5  N   UNL     1      -3.690  -2.018  25.120  0.00  0.00    -0.302 NA
ATOM     14  C   UNL     1      -3.543   1.839  23.405  0.00  0.00    +0.216 C 
ATOM     16  C   UNL     1      -3.537  -0.614  23.097  0.00  0.00    +0.123 C 
ATOM     17  C   UNL     1      -4.571   0.292  25.140  0.00  0.00    +0.123 C 
ATOM     18  C   UNL     1      -2.873  -1.701  23.941  0.00  0.00    +0.103 C 
ATOM     19  C   UNL     1      -3.892  -0.816  25.944  0.00  0.00    +0.103 C 
ATOM     22  C   UNL     1      -3.068  -3.081  25.906  0.00  0.00    +0.105 C 
ENDBRANCH  11  14
ENDBRANCH   7  11
BRANCH   8  13
ATOM     13  C   UNL     1      -1.288   1.435  24.329  0.00  0.00    +0.064 C 
BRANCH  13  15
ATOM      2  O   UNL     1       2.251   1.584  23.689  0.00  0.00    -0.359 OA
ATOM      6  N   UNL     1       1.079   2.086  24.241  0.00  0.00    -0.083 NA
ATOM     15  C   UNL     1       0.131   1.210  23.895  0.00  0.00    +0.084 A 
ATOM     20  C   UNL     1       0.641   0.146  23.132  0.00  0.00    +0.071 A 
ATOM     21  C   UNL     1       1.978   0.429  23.030  0.00  0.00    +0.138 A 
BRANCH  21  23
ATOM     23  C   UNL     1       3.112  -0.242  22.383  0.00  0.00    +0.077 C 
BRANCH  23  24
ATOM     24  C   UNL     1       4.407   0.601  22.410  0.00  0.00    +0.007 C 
BRANCH  24  25
ATOM     25  C   UNL     1       5.322   0.232  23.579  0.00  0.00    -0.003 C 
ATOM     26  C   UNL     1       5.070  -1.189  24.056  0.00  0.00    +0.004 C 
ENDBRANCH  24  25
ENDBRANCH  23  24
ENDBRANCH  21  23
ENDBRANCH  13  15
ENDBRANCH   8  13
TORSDOF 7
ENDMDL
MODEL 5
REMARK VINA RESULT:      -2.7      1.434      4.054
REMARK  Name = 26742981
REMARK  9 active torsions:
REMARK  status: ('A' for Active; 'I' for Inactive)
REMARK    1  A    between atoms: N_5  and  C_22
REMARK    2  A    between atoms: C_7  and  C_11
REMARK    3  A    between atoms: C_8  and  C_13
REMARK    4  A    between atoms: C_11  and  C_14
REMARK    5  A    between atoms: C_13  and  C_15
REMARK    6  A    between atoms: C_21  and  C_23
REMARK    7  A    between atoms: C_23  and  C_24
REMARK    8  A    between atoms: C_24  and  C_25
REMARK    9  A    between atoms: C_25  and  C_26
REMARK                            x       y       z     vdW  Elec       q    Type
REMARK                         _______ _______ _______ _____ _____    ______ ____
ROOT
ATOM      3  N   UNL     1      -3.132   2.756  22.249  0.00  0.00    -0.316 NA
ATOM      7  C   UNL     1      -2.849   3.491  25.093  0.00  0.00    +0.004 C 
ATOM      8  C   UNL     1      -1.734   2.769  24.301  0.00  0.00    +0.012 C 
ATOM      9  C   UNL     1      -3.745   4.263  24.109  0.00  0.00    +0.019 C 
ATOM     10  C   UNL     1      -2.307   1.939  23.139  0.00  0.00    +0.085 C 
ATOM     12  C   UNL     1      -4.243   3.385  22.962  0.00  0.00    +0.081 C 
ATOM     27  H   UNL     1      -3.501   2.172  21.500  0.00  0.00    +0.122 HD
ENDROOT
BRANCH   7  11
ATOM     11  C   UNL     1      -3.687   2.562  25.978  0.00  0.00    +0.100 C 
BRANCH  11  14
ATOM      1  O   UNL     1      -5.427   2.158  24.420  0.00  0.00    -0.276 OA
ATOM      4  N   UNL     1      -4.255   0.298  25.170  0.00  0.00    -0.299 N 
ATOM      5  N   UNL     1      -3.258  -2.333  24.628  0.00  0.00    -0.302 NA
ATOM     14  C   UNL     1      -4.539   1.662  25.118  0.00  0.00    +0.216 C 
ATOM     16  C   UNL     1      -5.033  -0.640  24.362  0.00  0.00    +0.123 C 
ATOM     17  C   UNL     1      -3.300  -0.335  26.084  0.00  0.00    +0.123 C 
ATOM     18  C   UNL     1      -4.128  -1.650  23.659  0.00  0.00    +0.103 C 
ATOM     19  C   UNL     1      -2.430  -1.357  25.352  0.00  0.00    +0.103 C 
ATOM     22  C   UNL     1      -2.418  -3.322  23.956  0.00  0.00    +0.105 C 
ENDBRANCH  11  14
ENDBRANCH   7  11
BRANCH   8  13
ATOM     13  C   UNL     1      -0.834   1.904  25.185  0.00  0.00    +0.064 C 
BRANCH  13  15
ATOM      2  O   UNL     1       0.937  -0.632  23.343  0.00  0.00    -0.359 OA
ATOM      6  N   UNL     1      -0.132  -0.193  24.115  0.00  0.00    -0.083 NA
ATOM     15  C   UNL     1       0.126   1.094  24.364  0.00  0.00    +0.084 A 
ATOM     20  C   UNL     1       1.333   1.519  23.781  0.00  0.00    +0.071 A 
ATOM     21  C   UNL     1       1.803   0.396  23.151  0.00  0.00    +0.138 A 
BRANCH  21  23
ATOM     23  C   UNL     1       2.998   0.104  22.350  0.00  0.00    +0.077 C 
BRANCH  23  24
ATOM     24  C   UNL     1       4.203   1.000  22.715  0.00  0.00    +0.007 C 
BRANCH  24  25
ATOM     25  C   UNL     1       5.277   0.247  23.500  0.00  0.00    -0.003 C 
ATOM     26  C   UNL     1       4.807  -1.144  23.894  0.00  0.00    +0.004 C 
ENDBRANCH  24  25
ENDBRANCH  23  24
ENDBRANCH  21  23
ENDBRANCH  13  15
ENDBRANCH   8  13
TORSDOF 7
ENDMDL
MODEL 6
REMARK VINA RESULT:      -2.5      2.689      5.414
REMARK  Name = 26742981
REMARK  9 active torsions:
REMARK  status: ('A' for Active; 'I' for Inactive)
REMARK    1  A    between atoms: N_5  and  C_22
REMARK    2  A    between atoms: C_7  and  C_11
REMARK    3  A    between atoms: C_8  and  C_13
REMARK    4  A    between atoms: C_11  and  C_14
REMARK    5  A    between atoms: C_13  and  C_15
REMARK    6  A    between atoms: C_21  and  C_23
REMARK    7  A    between atoms: C_23  and  C_24
REMARK    8  A    between atoms: C_24  and  C_25
REMARK    9  A    between atoms: C_25  and  C_26
REMARK                            x       y       z     vdW  Elec       q    Type
REMARK                         _______ _______ _______ _____ _____    ______ ____
ROOT
ATOM      3  N   UNL     1      -6.409   3.775  25.775  0.00  0.00    -0.316 NA
ATOM      7  C   UNL     1      -4.153   1.906  25.420  0.00  0.00    +0.004 C 
ATOM      8  C   UNL     1      -3.986   3.442  25.342  0.00  0.00    +0.012 C 
ATOM      9  C   UNL     1      -5.393   1.578  26.269  0.00  0.00    +0.019 C 
ATOM     10  C   UNL     1      -5.290   4.134  24.905  0.00  0.00    +0.085 C 
ATOM     12  C   UNL     1      -6.636   2.331  25.801  0.00  0.00    +0.081 C 
ATOM     27  H   UNL     1      -7.253   4.244  25.450  0.00  0.00    +0.122 HD
ENDROOT
BRANCH   7  11
ATOM     11  C   UNL     1      -4.231   1.217  24.053  0.00  0.00    +0.100 C 
BRANCH  11  14
ATOM      1  O   UNL     1      -5.182  -0.938  23.791  0.00  0.00    -0.276 OA
ATOM      4  N   UNL     1      -3.141  -0.833  24.895  0.00  0.00    -0.299 N 
ATOM      5  N   UNL     1      -0.644  -2.091  25.519  0.00  0.00    -0.302 NA
ATOM     14  C   UNL     1      -4.236  -0.281  24.231  0.00  0.00    +0.216 C 
ATOM     16  C   UNL     1      -3.068  -2.278  25.102  0.00  0.00    +0.123 C 
ATOM     17  C   UNL     1      -2.070  -0.071  25.543  0.00  0.00    +0.123 C 
ATOM     18  C   UNL     1      -1.678  -2.818  24.769  0.00  0.00    +0.103 C 
ATOM     19  C   UNL     1      -0.697  -0.655  25.208  0.00  0.00    +0.103 C 
ATOM     22  C   UNL     1       0.682  -2.632  25.223  0.00  0.00    +0.105 C 
ENDBRANCH  11  14
ENDBRANCH   7  11
BRANCH   8  13
ATOM     13  C   UNL     1      -2.823   3.875  24.449  0.00  0.00    +0.064 C 
BRANCH  13  15
ATOM      2  O   UNL     1       0.526   2.657  24.953  0.00  0.00    -0.359 OA
ATOM      6  N   UNL     1      -0.527   3.059  24.140  0.00  0.00    -0.083 NA
ATOM     15  C   UNL     1      -1.509   3.387  24.984  0.00  0.00    +0.084 A 
ATOM     20  C   UNL     1      -1.137   3.214  26.329  0.00  0.00    +0.071 A 
ATOM     21  C   UNL     1       0.151   2.753  26.254  0.00  0.00    +0.138 A 
BRANCH  21  23
ATOM     23  C   UNL     1       1.152   2.365  27.255  0.00  0.00    +0.077 C 
BRANCH  23  24
ATOM     24  C   UNL     1       0.605   2.395  28.700  0.00  0.00    +0.007 C 
BRANCH  24  25
ATOM     25  C   UNL     1       1.715   2.484  29.746  0.00  0.00    -0.003 C 
ATOM     26  C   UNL     1       2.982   3.092  29.165  0.00  0.00    +0.004 C 
ENDBRANCH  24  25
ENDBRANCH  23  24
ENDBRANCH  21  23
ENDBRANCH  13  15
ENDBRANCH   8  13
TORSDOF 7
ENDMDL
MODEL 7
REMARK VINA RESULT:      -1.8      1.458      4.564
REMARK  Name = 26742981
REMARK  9 active torsions:
REMARK  status: ('A' for Active; 'I' for Inactive)
REMARK    1  A    between atoms: N_5  and  C_22
REMARK    2  A    between atoms: C_7  and  C_11
REMARK    3  A    between atoms: C_8  and  C_13
REMARK    4  A    between atoms: C_11  and  C_14
REMARK    5  A    between atoms: C_13  and  C_15
REMARK    6  A    between atoms: C_21  and  C_23
REMARK    7  A    between atoms: C_23  and  C_24
REMARK    8  A    between atoms: C_24  and  C_25
REMARK    9  A    between atoms: C_25  and  C_26
REMARK                            x       y       z     vdW  Elec       q    Type
REMARK                         _______ _______ _______ _____ _____    ______ ____
ROOT
ATOM      3  N   UNL     1      -0.164   4.995  24.650  0.00  0.00    -0.316 NA
ATOM      7  C   UNL     1      -2.052   2.765  25.071  0.00  0.00    +0.004 C 
ATOM      8  C   UNL     1      -0.685   2.582  24.371  0.00  0.00    +0.012 C 
ATOM      9  C   UNL     1      -1.984   3.997  25.991  0.00  0.00    +0.019 C 
ATOM     10  C   UNL     1      -0.211   3.884  23.700  0.00  0.00    +0.085 C 
ATOM     12  C   UNL     1      -1.468   5.238  25.266  0.00  0.00    +0.081 C 
ATOM     27  H   UNL     1       0.144   5.838  24.169  0.00  0.00    +0.122 HD
ENDROOT
BRANCH   7  11
ATOM     11  C   UNL     1      -3.238   2.871  24.107  0.00  0.00    +0.100 C 
BRANCH  11  14
ATOM      1  O   UNL     1      -5.479   2.164  24.414  0.00  0.00    -0.276 OA
ATOM      4  N   UNL     1      -3.827   0.587  24.840  0.00  0.00    -0.299 N 
ATOM      5  N   UNL     1      -3.034  -2.166  24.851  0.00  0.00    -0.302 NA
ATOM     14  C   UNL     1      -4.287   1.849  24.467  0.00  0.00    +0.216 C 
ATOM     16  C   UNL     1      -4.781  -0.460  25.199  0.00  0.00    +0.123 C 
ATOM     17  C   UNL     1      -2.421   0.222  25.040  0.00  0.00    +0.123 C 
ATOM     18  C   UNL     1      -4.420  -1.791  24.541  0.00  0.00    +0.103 C 
ATOM     19  C   UNL     1      -2.103  -1.125  24.390  0.00  0.00    +0.103 C 
ATOM     22  C   UNL     1      -2.702  -3.455  24.247  0.00  0.00    +0.105 C 
ENDBRANCH  11  14
ENDBRANCH   7  11
BRANCH   8  13
ATOM     13  C   UNL     1      -0.673   1.427  23.369  0.00  0.00    +0.064 C 
BRANCH  13  15
ATOM      2  O   UNL     1       2.305  -0.427  22.562  0.00  0.00    -0.359 OA
ATOM      6  N   UNL     1       0.928  -0.318  22.717  0.00  0.00    -0.083 NA
ATOM     15  C   UNL     1       0.723   0.944  23.105  0.00  0.00    +0.084 A 
ATOM     20  C   UNL     1       1.921   1.671  23.211  0.00  0.00    +0.071 A 
ATOM     21  C   UNL     1       2.885   0.763  22.860  0.00  0.00    +0.138 A 
BRANCH  21  23
ATOM     23  C   UNL     1       4.348   0.825  22.748  0.00  0.00    +0.077 C 
BRANCH  23  24
ATOM     24  C   UNL     1       5.065   0.673  24.108  0.00  0.00    +0.007 C 
BRANCH  24  25
ATOM     25  C   UNL     1       5.695  -0.709  24.287  0.00  0.00    -0.003 C 
ATOM     26  C   UNL     1       4.737  -1.815  23.873  0.00  0.00    +0.004 C 
ENDBRANCH  24  25
ENDBRANCH  23  24
ENDBRANCH  21  23
ENDBRANCH  13  15
ENDBRANCH   8  13
TORSDOF 7
ENDMDL
MODEL 8
REMARK VINA RESULT:      -1.4      1.983      6.149
REMARK  Name = 26742981
REMARK  9 active torsions:
REMARK  status: ('A' for Active; 'I' for Inactive)
REMARK    1  A    between atoms: N_5  and  C_22
REMARK    2  A    between atoms: C_7  and  C_11
REMARK    3  A    between atoms: C_8  and  C_13
REMARK    4  A    between atoms: C_11  and  C_14
REMARK    5  A    between atoms: C_13  and  C_15
REMARK    6  A    between atoms: C_21  and  C_23
REMARK    7  A    between atoms: C_23  and  C_24
REMARK    8  A    between atoms: C_24  and  C_25
REMARK    9  A    between atoms: C_25  and  C_26
REMARK                            x       y       z     vdW  Elec       q    Type
REMARK                         _______ _______ _______ _____ _____    ______ ____
ROOT
ATOM      3  N   UNL     1      -4.888   4.236  26.339  0.00  0.00    -0.316 NA
ATOM      7  C   UNL     1      -2.345   3.580  24.991  0.00  0.00    +0.004 C 
ATOM      8  C   UNL     1      -3.721   3.428  24.300  0.00  0.00    +0.012 C 
ATOM      9  C   UNL     1      -2.459   4.628  26.111  0.00  0.00    +0.019 C 
ATOM     10  C   UNL     1      -4.846   3.185  25.322  0.00  0.00    +0.085 C 
ATOM     12  C   UNL     1      -3.621   4.343  27.060  0.00  0.00    +0.081 C 
ATOM     27  H   UNL     1      -5.637   4.037  27.000  0.00  0.00    +0.122 HD
ENDROOT
BRANCH   7  11
ATOM     11  C   UNL     1      -1.770   2.266  25.531  0.00  0.00    +0.100 C 
BRANCH  11  14
ATOM      1  O   UNL     1       0.434   2.665  26.305  0.00  0.00    -0.276 OA
ATOM      4  N   UNL     1       0.231   1.779  24.167  0.00  0.00    -0.299 N 
ATOM      5  N   UNL     1       1.334   0.129  22.101  0.00  0.00    -0.302 NA
ATOM     14  C   UNL     1      -0.269   2.259  25.377  0.00  0.00    +0.216 C 
ATOM     16  C   UNL     1       1.675   1.735  23.942  0.00  0.00    +0.123 C 
ATOM     17  C   UNL     1      -0.577   1.415  23.000  0.00  0.00    +0.123 C 
ATOM     18  C   UNL     1       2.100   0.404  23.324  0.00  0.00    +0.103 C 
ATOM     19  C   UNL     1      -0.107   0.093  22.394  0.00  0.00    +0.103 C 
ATOM     22  C   UNL     1       1.767  -1.128  21.495  0.00  0.00    +0.105 C 
ENDBRANCH  11  14
ENDBRANCH   7  11
BRANCH   8  13
ATOM     13  C   UNL     1      -3.734   2.346  23.220  0.00  0.00    +0.064 C 
BRANCH  13  15
ATOM      2  O   UNL     1      -4.487  -0.515  25.271  0.00  0.00    -0.359 OA
ATOM      6  N   UNL     1      -4.450   0.854  25.035  0.00  0.00    -0.083 NA
ATOM     15  C   UNL     1      -3.925   0.980  23.814  0.00  0.00    +0.084 A 
ATOM     20  C   UNL     1      -3.613  -0.262  23.235  0.00  0.00    +0.071 A 
ATOM     21  C   UNL     1      -3.985  -1.169  24.192  0.00  0.00    +0.138 A 
BRANCH  21  23
ATOM     23  C   UNL     1      -3.950  -2.635  24.272  0.00  0.00    +0.077 C 
BRANCH  23  24
ATOM     24  C   UNL     1      -2.707  -3.170  25.019  0.00  0.00    +0.007 C 
BRANCH  24  25
ATOM     25  C   UNL     1      -1.407  -2.537  24.522  0.00  0.00    -0.003 C 
ATOM     26  C   UNL     1      -0.903  -1.472  25.483  0.00  0.00    +0.004 C 
ENDBRANCH  24  25
ENDBRANCH  23  24
ENDBRANCH  21  23
ENDBRANCH  13  15
ENDBRANCH   8  13
TORSDOF 7
ENDMDL
MODEL 9
REMARK VINA RESULT:      -1.3      1.599      4.876
REMARK  Name = 26742981
REMARK  9 active torsions:
REMARK  status: ('A' for Active; 'I' for Inactive)
REMARK    1  A    between atoms: N_5  and  C_22
REMARK    2  A    between atoms: C_7  and  C_11
REMARK    3  A    between atoms: C_8  and  C_13
REMARK    4  A    between atoms: C_11  and  C_14
REMARK    5  A    between atoms: C_13  and  C_15
REMARK    6  A    between atoms: C_21  and  C_23
REMARK    7  A    between atoms: C_23  and  C_24
REMARK    8  A    between atoms: C_24  and  C_25
REMARK    9  A    between atoms: C_25  and  C_26
REMARK                            x       y       z     vdW  Elec       q    Type
REMARK                         _______ _______ _______ _____ _____    ______ ____
ROOT
ATOM      3  N   UNL     1      -3.913   4.636  24.291  0.00  0.00    -0.316 NA
ATOM      7  C   UNL     1      -2.027   2.679  25.443  0.00  0.00    +0.004 C 
ATOM      8  C   UNL     1      -2.135   2.941  23.922  0.00  0.00    +0.012 C 
ATOM      9  C   UNL     1      -2.519   3.923  26.203  0.00  0.00    +0.019 C 
ATOM     10  C   UNL     1      -3.535   3.445  23.530  0.00  0.00    +0.085 C 
ATOM     12  C   UNL     1      -3.896   4.387  25.732  0.00  0.00    +0.081 C 
ATOM     27  H   UNL     1      -4.846   4.933  24.011  0.00  0.00    +0.122 HD
ENDROOT
BRANCH   7  11
ATOM     11  C   UNL     1      -2.770   1.424  25.914  0.00  0.00    +0.100 C 
BRANCH  11  14
ATOM      1  O   UNL     1      -0.843   0.090  26.263  0.00  0.00    -0.276 OA
ATOM      4  N   UNL     1      -2.426  -0.743  24.781  0.00  0.00    -0.299 N 
ATOM      5  N   UNL     1      -3.707  -3.026  23.616  0.00  0.00    -0.302 NA
ATOM     14  C   UNL     1      -1.920   0.202  25.673  0.00  0.00    +0.216 C 
ATOM     16  C   UNL     1      -1.665  -1.958  24.497  0.00  0.00    +0.123 C 
ATOM     17  C   UNL     1      -3.634  -0.579  23.967  0.00  0.00    +0.123 C 
ATOM     18  C   UNL     1      -2.563  -3.195  24.523  0.00  0.00    +0.103 C 
ATOM     19  C   UNL     1      -4.494  -1.843  23.996  0.00  0.00    +0.103 C 
ATOM     22  C   UNL     1      -4.545  -4.223  23.617  0.00  0.00    +0.105 C 
ENDBRANCH  11  14
ENDBRANCH   7  11
BRANCH   8  13
ATOM     13  C   UNL     1      -1.744   1.729  23.075  0.00  0.00    +0.064 C 
BRANCH  13  15
ATOM      2  O   UNL     1       1.778   1.662  23.817  0.00  0.00    -0.359 OA
ATOM      6  N   UNL     1       0.519   2.248  23.876  0.00  0.00    -0.083 NA
ATOM     15  C   UNL     1      -0.284   1.411  23.214  0.00  0.00    +0.084 A 
ATOM     20  C   UNL     1       0.405   0.291  22.718  0.00  0.00    +0.071 A 
ATOM     21  C   UNL     1       1.697   0.497  23.124  0.00  0.00    +0.138 A 
BRANCH  21  23
ATOM     23  C   UNL     1       2.946  -0.259  22.965  0.00  0.00    +0.077 C 
BRANCH  23  24
ATOM     24  C   UNL     1       4.159   0.640  22.635  0.00  0.00    +0.007 C 
BRANCH  24  25
ATOM     25  C   UNL     1       5.232   0.600  23.723  0.00  0.00    -0.003 C 
ATOM     26  C   UNL     1       5.488  -0.821  24.200  0.00  0.00    +0.004 C 
ENDBRANCH  24  25
ENDBRANCH  23  24
ENDBRANCH  21  23
ENDBRANCH  13  15
ENDBRANCH   8  13
TORSDOF 7
ENDMDL
MODEL 10
REMARK VINA RESULT:      -1.2      1.992      6.598
REMARK  Name = 26742981
REMARK  9 active torsions:
REMARK  status: ('A' for Active; 'I' for Inactive)
REMARK    1  A    between atoms: N_5  and  C_22
REMARK    2  A    between atoms: C_7  and  C_11
REMARK    3  A    between atoms: C_8  and  C_13
REMARK    4  A    between atoms: C_11  and  C_14
REMARK    5  A    between atoms: C_13  and  C_15
REMARK    6  A    between atoms: C_21  and  C_23
REMARK    7  A    between atoms: C_23  and  C_24
REMARK    8  A    between atoms: C_24  and  C_25
REMARK    9  A    between atoms: C_25  and  C_26
REMARK                            x       y       z     vdW  Elec       q    Type
REMARK                         _______ _______ _______ _____ _____    ______ ____
ROOT
ATOM      3  N   UNL     1       3.004   0.833  22.490  0.00  0.00    -0.316 NA
ATOM      7  C   UNL     1       0.292   0.265  23.506  0.00  0.00    +0.004 C 
ATOM      8  C   UNL     1       0.880   1.695  23.447  0.00  0.00    +0.012 C 
ATOM      9  C   UNL     1       1.002  -0.613  22.460  0.00  0.00    +0.019 C 
ATOM     10  C   UNL     1       2.417   1.680  23.528  0.00  0.00    +0.085 C 
ATOM     12  C   UNL     1       2.523  -0.544  22.577  0.00  0.00    +0.081 C 
ATOM     27  H   UNL     1       4.019   0.842  22.582  0.00  0.00    +0.122 HD
ENDROOT
BRANCH   7  11
ATOM     11  C   UNL     1       0.358  -0.380  24.894  0.00  0.00    +0.100 C 
BRANCH  11  14
ATOM      1  O   UNL     1      -1.196   0.694  26.325  0.00  0.00    -0.276 OA
ATOM      4  N   UNL     1      -1.906  -1.274  25.314  0.00  0.00    -0.299 N 
ATOM      5  N   UNL     1      -4.069  -2.819  24.244  0.00  0.00    -0.302 NA
ATOM     14  C   UNL     1      -0.980  -0.265  25.580  0.00  0.00    +0.216 C 
ATOM     16  C   UNL     1      -3.228  -1.232  25.936  0.00  0.00    +0.123 C 
ATOM     17  C   UNL     1      -1.636  -2.491  24.542  0.00  0.00    +0.123 C 
ATOM     18  C   UNL     1      -4.329  -1.541  24.922  0.00  0.00    +0.103 C 
ATOM     19  C   UNL     1      -2.769  -2.782  23.557  0.00  0.00    +0.103 C 
ATOM     22  C   UNL     1      -5.140  -3.128  23.300  0.00  0.00    +0.105 C 
ENDBRANCH  11  14
ENDBRANCH   7  11
BRANCH   8  13
ATOM     13  C   UNL     1       0.295   2.628  24.507  0.00  0.00    +0.064 C 
BRANCH  13  15
ATOM      2  O   UNL     1      -3.101   2.728  23.319  0.00  0.00    -0.359 OA
ATOM      6  N   UNL     1      -1.778   2.314  23.228  0.00  0.00    -0.083 NA
ATOM     15  C   UNL     1      -1.169   2.866  24.281  0.00  0.00    +0.084 A 
ATOM     20  C   UNL     1      -2.048   3.634  25.064  0.00  0.00    +0.071 A 
ATOM     21  C   UNL     1      -3.250   3.514  24.416  0.00  0.00    +0.138 A 
BRANCH  21  23
ATOM     23  C   UNL     1      -4.597   4.043  24.666  0.00  0.00    +0.077 C 
BRANCH  23  24
ATOM     24  C   UNL     1      -5.258   3.439  25.925  0.00  0.00    +0.007 C 
BRANCH  24  25
ATOM     25  C   UNL     1      -5.481   1.932  25.806  0.00  0.00    -0.003 C 
ATOM     26  C   UNL     1      -6.468   1.601  24.697  0.00  0.00    +0.004 C 
ENDBRANCH  24  25
ENDBRANCH  23  24
ENDBRANCH  21  23
ENDBRANCH  13  15
ENDBRANCH   8  13
TORSDOF 7
ENDMDL
