MODEL 1
REMARK VINA RESULT:       2.8      0.000      0.000
REMARK  Name = 75537034
REMARK  4 active torsions:
REMARK  status: ('A' for Active; 'I' for Inactive)
REMARK    1  A    between atoms: N_5  and  C_15
REMARK    2  A    between atoms: N_7  and  C_22
REMARK    3  A    between atoms: C_15  and  C_17
REMARK    4  A    between atoms: C_16  and  C_18
REMARK                            x       y       z     vdW  Elec       q    Type
REMARK                         _______ _______ _______ _____ _____    ______ ____
ROOT
ATOM      2  O   UNL     1       0.249  -2.940  25.506  0.00  0.00    -0.252 OA
ATOM      3  O   UNL     1      -5.481   1.017  26.072  0.00  0.00    -0.270 OA
ATOM      4  N   UNL     1      -1.178  -1.087  25.287  0.00  0.00    -0.278 N 
ATOM      5  N   UNL     1       0.725  -1.114  24.091  0.00  0.00    -0.276 N 
ATOM      6  N   UNL     1      -3.569   0.287  24.944  0.00  0.00    -0.294 N 
ATOM      9  C   UNL     1      -1.138   0.210  24.632  0.00  0.00    +0.112 C 
ATOM     10  C   UNL     1       0.037   0.092  23.665  0.00  0.00    +0.134 C 
ATOM     11  C   UNL     1      -2.480   0.509  23.973  0.00  0.00    +0.132 C 
ATOM     12  C   UNL     1      -2.276  -1.411  26.181  0.00  0.00    +0.128 C 
ATOM     13  C   UNL     1      -3.609  -1.064  25.519  0.00  0.00    +0.127 C 
ATOM     14  C   UNL     1      -0.032  -1.850  25.025  0.00  0.00    +0.306 C 
ATOM     16  C   UNL     1      -4.548   1.218  25.297  0.00  0.00    +0.247 C 
ENDROOT
BRANCH  16  18
ATOM      1  F   UNL     1      -4.236   6.339  23.059  0.00  0.00    -0.205 F 
ATOM     18  C   UNL     1      -4.467   2.561  24.710  0.00  0.00    +0.037 A 
ATOM     20  C   UNL     1      -3.984   2.727  23.411  0.00  0.00    +0.016 A 
ATOM     21  C   UNL     1      -4.873   3.672  25.450  0.00  0.00    +0.016 A 
ATOM     24  C   UNL     1      -3.907   4.003  22.853  0.00  0.00    +0.039 A 
ATOM     25  C   UNL     1      -4.795   4.948  24.892  0.00  0.00    +0.039 A 
ATOM     26  C   UNL     1      -4.312   5.113  23.595  0.00  0.00    +0.123 A 
ENDBRANCH  16  18
BRANCH   5  15
ATOM     15  C   UNL     1       1.972  -1.536  23.495  0.00  0.00    +0.183 C 
BRANCH  15  17
ATOM      7  N   UNL     1       4.227  -0.428  23.466  0.00  0.00    -0.336 N 
ATOM      8  N   UNL     1       2.524   0.789  22.724  0.00  0.00    -0.239 NA
ATOM     17  C   UNL     1       2.884  -0.375  23.217  0.00  0.00    +0.127 A 
ATOM     19  C   UNL     1       4.758   0.779  23.107  0.00  0.00    +0.106 A 
ATOM     22  C   UNL     1       4.966  -1.545  24.006  0.00  0.00    +0.150 C 
ATOM     23  C   UNL     1       3.688   1.513  22.652  0.00  0.00    +0.130 A 
ENDBRANCH  15  17
ENDBRANCH   5  15
TORSDOF 3
ENDMDL
MODEL 2
REMARK VINA RESULT:       2.8      1.676      2.493
REMARK  Name = 75537034
REMARK  4 active torsions:
REMARK  status: ('A' for Active; 'I' for Inactive)
REMARK    1  A    between atoms: N_5  and  C_15
REMARK    2  A    between atoms: N_7  and  C_22
REMARK    3  A    between atoms: C_15  and  C_17
REMARK    4  A    between atoms: C_16  and  C_18
REMARK                            x       y       z     vdW  Elec       q    Type
REMARK                         _______ _______ _______ _____ _____    ______ ____
ROOT
ATOM      2  O   UNL     1       2.216  -1.033  23.554  0.00  0.00    -0.252 OA
ATOM      3  O   UNL     1      -4.628  -1.020  24.955  0.00  0.00    -0.270 OA
ATOM      4  N   UNL     1       0.082  -0.218  24.099  0.00  0.00    -0.278 N 
ATOM      5  N   UNL     1       1.679   1.263  23.545  0.00  0.00    -0.276 N 
ATOM      6  N   UNL     1      -2.693  -0.059  24.066  0.00  0.00    -0.294 N 
ATOM      9  C   UNL     1      -0.535   1.082  24.308  0.00  0.00    +0.112 C 
ATOM     10  C   UNL     1       0.480   2.062  23.727  0.00  0.00    +0.134 C 
ATOM     11  C   UNL     1      -1.911   1.123  23.653  0.00  0.00    +0.132 C 
ATOM     12  C   UNL     1      -0.667  -1.428  24.392  0.00  0.00    +0.128 C 
ATOM     13  C   UNL     1      -2.057  -1.348  23.763  0.00  0.00    +0.127 C 
ATOM     14  C   UNL     1       1.425  -0.112  23.716  0.00  0.00    +0.306 C 
ATOM     16  C   UNL     1      -3.959  -0.034  24.652  0.00  0.00    +0.247 C 
ENDROOT
BRANCH  16  18
ATOM      1  F   UNL     1      -6.237   4.952  25.787  0.00  0.00    -0.205 F 
ATOM     18  C   UNL     1      -4.556   1.275  24.950  0.00  0.00    +0.037 A 
ATOM     20  C   UNL     1      -5.669   1.359  25.788  0.00  0.00    +0.016 A 
ATOM     21  C   UNL     1      -4.011   2.433  24.397  0.00  0.00    +0.016 A 
ATOM     24  C   UNL     1      -6.237   2.601  26.071  0.00  0.00    +0.039 A 
ATOM     25  C   UNL     1      -4.579   3.676  24.679  0.00  0.00    +0.039 A 
ATOM     26  C   UNL     1      -5.691   3.759  25.516  0.00  0.00    +0.123 A 
ENDBRANCH  16  18
BRANCH   5  15
ATOM     15  C   UNL     1       2.928   1.845  23.107  0.00  0.00    +0.183 C 
BRANCH  15  17
ATOM      7  N   UNL     1       4.628   0.143  22.382  0.00  0.00    -0.336 N 
ATOM      8  N   UNL     1       4.719   0.779  24.508  0.00  0.00    -0.239 NA
ATOM     17  C   UNL     1       4.093   0.932  23.362  0.00  0.00    +0.127 A 
ATOM     19  C   UNL     1       5.662  -0.557  22.939  0.00  0.00    +0.106 A 
ATOM     22  C   UNL     1       4.195   0.052  21.008  0.00  0.00    +0.150 C 
ATOM     23  C   UNL     1       5.698  -0.147  24.251  0.00  0.00    +0.130 A 
ENDBRANCH  15  17
ENDBRANCH   5  15
TORSDOF 3
ENDMDL
MODEL 3
REMARK VINA RESULT:       3.9      3.419      8.142
REMARK  Name = 75537034
REMARK  4 active torsions:
REMARK  status: ('A' for Active; 'I' for Inactive)
REMARK    1  A    between atoms: N_5  and  C_15
REMARK    2  A    between atoms: N_7  and  C_22
REMARK    3  A    between atoms: C_15  and  C_17
REMARK    4  A    between atoms: C_16  and  C_18
REMARK                            x       y       z     vdW  Elec       q    Type
REMARK                         _______ _______ _______ _____ _____    ______ ____
ROOT
ATOM      2  O   UNL     1      -3.593   2.938  23.475  0.00  0.00    -0.252 OA
ATOM      3  O   UNL     1       1.747  -0.613  20.704  0.00  0.00    -0.270 OA
ATOM      4  N   UNL     1      -1.442   2.025  23.240  0.00  0.00    -0.278 N 
ATOM      5  N   UNL     1      -2.017   2.898  25.229  0.00  0.00    -0.276 N 
ATOM      6  N   UNL     1       0.495   0.168  22.515  0.00  0.00    -0.294 N 
ATOM      9  C   UNL     1      -0.229   1.949  24.038  0.00  0.00    +0.112 C 
ATOM     10  C   UNL     1      -0.692   2.342  25.438  0.00  0.00    +0.134 C 
ATOM     11  C   UNL     1       0.383   0.557  23.935  0.00  0.00    +0.132 C 
ATOM     12  C   UNL     1      -1.429   1.566  21.861  0.00  0.00    +0.128 C 
ATOM     13  C   UNL     1      -0.773   0.189  21.774  0.00  0.00    +0.127 C 
ATOM     14  C   UNL     1      -2.488   2.658  23.922  0.00  0.00    +0.306 C 
ATOM     16  C   UNL     1       1.664  -0.247  21.875  0.00  0.00    +0.247 C 
ENDROOT
BRANCH  16  18
ATOM      1  F   UNL     1       6.429  -0.231  24.812  0.00  0.00    -0.205 F 
ATOM     18  C   UNL     1       2.913  -0.243  22.646  0.00  0.00    +0.037 A 
ATOM     20  C   UNL     1       3.692   0.913  22.706  0.00  0.00    +0.016 A 
ATOM     21  C   UNL     1       3.322  -1.395  23.319  0.00  0.00    +0.016 A 
ATOM     24  C   UNL     1       4.880   0.917  23.438  0.00  0.00    +0.039 A 
ATOM     25  C   UNL     1       4.510  -1.391  24.050  0.00  0.00    +0.039 A 
ATOM     26  C   UNL     1       5.288  -0.235  24.110  0.00  0.00    +0.123 A 
ENDBRANCH  16  18
BRANCH   5  15
ATOM     15  C   UNL     1      -2.776   3.496  26.304  0.00  0.00    +0.183 C 
BRANCH  15  17
ATOM      7  N   UNL     1      -4.920   2.261  25.871  0.00  0.00    -0.336 N 
ATOM      8  N   UNL     1      -5.062   4.476  25.960  0.00  0.00    -0.239 NA
ATOM     17  C   UNL     1      -4.254   3.442  26.047  0.00  0.00    +0.127 A 
ATOM     19  C   UNL     1      -6.237   2.561  25.659  0.00  0.00    +0.106 A 
ATOM     22  C   UNL     1      -4.355   0.933  25.901  0.00  0.00    +0.150 C 
ATOM     23  C   UNL     1      -6.299   3.933  25.718  0.00  0.00    +0.130 A 
ENDBRANCH  15  17
ENDBRANCH   5  15
TORSDOF 3
ENDMDL
MODEL 4
REMARK VINA RESULT:       4.3      2.658      3.411
REMARK  Name = 75537034
REMARK  4 active torsions:
REMARK  status: ('A' for Active; 'I' for Inactive)
REMARK    1  A    between atoms: N_5  and  C_15
REMARK    2  A    between atoms: N_7  and  C_22
REMARK    3  A    between atoms: C_15  and  C_17
REMARK    4  A    between atoms: C_16  and  C_18
REMARK                            x       y       z     vdW  Elec       q    Type
REMARK                         _______ _______ _______ _____ _____    ______ ____
ROOT
ATOM      2  O   UNL     1       2.797   1.897  23.607  0.00  0.00    -0.252 OA
ATOM      3  O   UNL     1      -2.968   4.725  26.358  0.00  0.00    -0.270 OA
ATOM      4  N   UNL     1       0.523   2.228  24.091  0.00  0.00    -0.278 N 
ATOM      5  N   UNL     1       1.130   0.313  23.085  0.00  0.00    -0.276 N 
ATOM      6  N   UNL     1      -1.709   2.908  25.602  0.00  0.00    -0.294 N 
ATOM      9  C   UNL     1      -0.731   1.549  23.810  0.00  0.00    +0.112 C 
ATOM     10  C   UNL     1      -0.295   0.168  23.328  0.00  0.00    +0.134 C 
ATOM     11  C   UNL     1      -1.617   1.542  25.051  0.00  0.00    +0.132 C 
ATOM     12  C   UNL     1       0.509   3.536  24.725  0.00  0.00    +0.128 C 
ATOM     13  C   UNL     1      -0.417   3.519  25.940  0.00  0.00    +0.127 C 
ATOM     14  C   UNL     1       1.630   1.529  23.594  0.00  0.00    +0.306 C 
ATOM     16  C   UNL     1      -2.891   3.605  25.858  0.00  0.00    +0.247 C 
ENDROOT
BRANCH  16  18
ATOM      1  F   UNL     1      -7.735   1.166  24.472  0.00  0.00    -0.205 F 
ATOM     18  C   UNL     1      -4.162   2.965  25.495  0.00  0.00    +0.037 A 
ATOM     20  C   UNL     1      -4.170   1.661  24.999  0.00  0.00    +0.016 A 
ATOM     21  C   UNL     1      -5.362   3.660  25.646  0.00  0.00    +0.016 A 
ATOM     24  C   UNL     1      -5.377   1.053  24.653  0.00  0.00    +0.039 A 
ATOM     25  C   UNL     1      -6.569   3.053  25.300  0.00  0.00    +0.039 A 
ATOM     26  C   UNL     1      -6.576   1.750  24.804  0.00  0.00    +0.123 A 
ENDBRANCH  16  18
BRANCH   5  15
ATOM     15  C   UNL     1       1.921  -0.751  22.509  0.00  0.00    +0.183 C 
BRANCH  15  17
ATOM      7  N   UNL     1       4.291   0.083  22.531  0.00  0.00    -0.336 N 
ATOM      8  N   UNL     1       3.797  -1.516  23.991  0.00  0.00    -0.239 NA
ATOM     17  C   UNL     1       3.329  -0.751  23.031  0.00  0.00    +0.127 A 
ATOM     19  C   UNL     1       5.447  -0.168  23.217  0.00  0.00    +0.106 A 
ATOM     22  C   UNL     1       4.134   1.055  21.475  0.00  0.00    +0.150 C 
ATOM     23  C   UNL     1       5.117  -1.158  24.112  0.00  0.00    +0.130 A 
ENDBRANCH  15  17
ENDBRANCH   5  15
TORSDOF 3
ENDMDL
MODEL 5
REMARK VINA RESULT:       4.5      3.306      4.574
REMARK  Name = 75537034
REMARK  4 active torsions:
REMARK  status: ('A' for Active; 'I' for Inactive)
REMARK    1  A    between atoms: N_5  and  C_15
REMARK    2  A    between atoms: N_7  and  C_22
REMARK    3  A    between atoms: C_15  and  C_17
REMARK    4  A    between atoms: C_16  and  C_18
REMARK                            x       y       z     vdW  Elec       q    Type
REMARK                         _______ _______ _______ _____ _____    ______ ____
ROOT
ATOM      2  O   UNL     1       2.927   2.750  23.148  0.00  0.00    -0.252 OA
ATOM      3  O   UNL     1      -3.427   1.489  25.762  0.00  0.00    -0.270 OA
ATOM      4  N   UNL     1       0.900   1.642  23.568  0.00  0.00    -0.278 N 
ATOM      5  N   UNL     1       2.549   0.499  22.556  0.00  0.00    -0.276 N 
ATOM      6  N   UNL     1      -1.319   0.809  25.021  0.00  0.00    -0.294 N 
ATOM      9  C   UNL     1       0.307   0.355  23.241  0.00  0.00    +0.112 C 
ATOM     10  C   UNL     1       1.491  -0.475  22.754  0.00  0.00    +0.134 C 
ATOM     11  C   UNL     1      -0.418  -0.215  24.455  0.00  0.00    +0.132 C 
ATOM     12  C   UNL     1       0.096   2.663  24.218  0.00  0.00    +0.128 C 
ATOM     13  C   UNL     1      -0.655   2.062  25.405  0.00  0.00    +0.127 C 
ATOM     14  C   UNL     1       2.213   1.757  23.095  0.00  0.00    +0.306 C 
ATOM     16  C   UNL     1      -2.687   0.652  25.250  0.00  0.00    +0.247 C 
ENDROOT
BRANCH  16  18
ATOM      1  F   UNL     1      -5.082  -4.161  23.691  0.00  0.00    -0.205 F 
ATOM     18  C   UNL     1      -3.316  -0.610  24.842  0.00  0.00    +0.037 A 
ATOM     20  C   UNL     1      -2.969  -1.802  25.481  0.00  0.00    +0.016 A 
ATOM     21  C   UNL     1      -4.260  -0.619  23.814  0.00  0.00    +0.016 A 
ATOM     24  C   UNL     1      -3.566  -3.001  25.092  0.00  0.00    +0.039 A 
ATOM     25  C   UNL     1      -4.856  -1.819  23.425  0.00  0.00    +0.039 A 
ATOM     26  C   UNL     1      -4.509  -3.009  24.064  0.00  0.00    +0.123 A 
ENDBRANCH  16  18
BRANCH   5  15
ATOM     15  C   UNL     1       3.828   0.137  21.990  0.00  0.00    +0.183 C 
BRANCH  15  17
ATOM      7  N   UNL     1       5.038  -1.055  23.841  0.00  0.00    -0.336 N 
ATOM      8  N   UNL     1       5.801   0.961  23.306  0.00  0.00    -0.239 NA
ATOM     17  C   UNL     1       4.900   0.042  23.038  0.00  0.00    +0.127 A 
ATOM     19  C   UNL     1       6.096  -0.822  24.675  0.00  0.00    +0.106 A 
ATOM     22  C   UNL     1       4.227  -2.250  23.826  0.00  0.00    +0.150 C 
ATOM     23  C   UNL     1       6.550   0.428  24.326  0.00  0.00    +0.130 A 
ENDBRANCH  15  17
ENDBRANCH   5  15
TORSDOF 3
ENDMDL
MODEL 6
REMARK VINA RESULT:       6.2      3.200      4.783
REMARK  Name = 75537034
REMARK  4 active torsions:
REMARK  status: ('A' for Active; 'I' for Inactive)
REMARK    1  A    between atoms: N_5  and  C_15
REMARK    2  A    between atoms: N_7  and  C_22
REMARK    3  A    between atoms: C_15  and  C_17
REMARK    4  A    between atoms: C_16  and  C_18
REMARK                            x       y       z     vdW  Elec       q    Type
REMARK                         _______ _______ _______ _____ _____    ______ ____
ROOT
ATOM      2  O   UNL     1       0.921   4.517  23.490  0.00  0.00    -0.252 OA
ATOM      3  O   UNL     1      -4.942   1.263  25.449  0.00  0.00    -0.270 OA
ATOM      4  N   UNL     1      -0.618   2.779  23.849  0.00  0.00    -0.278 N 
ATOM      5  N   UNL     1       1.492   2.237  23.300  0.00  0.00    -0.276 N 
ATOM      6  N   UNL     1      -2.629   1.355  25.134  0.00  0.00    -0.294 N 
ATOM      9  C   UNL     1      -0.638   1.333  23.703  0.00  0.00    +0.112 C 
ATOM     10  C   UNL     1       0.835   0.965  23.544  0.00  0.00    +0.134 C 
ATOM     11  C   UNL     1      -1.332   0.691  24.899  0.00  0.00    +0.132 C 
ATOM     12  C   UNL     1      -1.843   3.488  24.179  0.00  0.00    +0.128 C 
ATOM     13  C   UNL     1      -2.544   2.805  25.351  0.00  0.00    +0.127 C 
ATOM     14  C   UNL     1       0.633   3.328  23.537  0.00  0.00    +0.306 C 
ATOM     16  C   UNL     1      -3.868   0.715  25.210  0.00  0.00    +0.247 C 
ENDROOT
BRANCH  16  18
ATOM      1  F   UNL     1      -4.044  -4.807  24.313  0.00  0.00    -0.205 F 
ATOM     18  C   UNL     1      -3.913  -0.733  24.974  0.00  0.00    +0.037 A 
ATOM     20  C   UNL     1      -4.530  -1.235  23.827  0.00  0.00    +0.016 A 
ATOM     21  C   UNL     1      -3.340  -1.609  25.897  0.00  0.00    +0.016 A 
ATOM     24  C   UNL     1      -4.574  -2.611  23.604  0.00  0.00    +0.039 A 
ATOM     25  C   UNL     1      -3.385  -2.985  25.674  0.00  0.00    +0.039 A 
ATOM     26  C   UNL     1      -4.001  -3.485  24.528  0.00  0.00    +0.123 A 
ENDBRANCH  16  18
BRANCH   5  15
ATOM     15  C   UNL     1       2.901   2.323  22.986  0.00  0.00    +0.183 C 
BRANCH  15  17
ATOM      7  N   UNL     1       3.228  -0.137  22.598  0.00  0.00    -0.336 N 
ATOM      8  N   UNL     1       4.641   0.831  24.012  0.00  0.00    -0.239 NA
ATOM     17  C   UNL     1       3.610   1.020  23.218  0.00  0.00    +0.127 A 
ATOM     19  C   UNL     1       4.070  -1.127  23.023  0.00  0.00    +0.106 A 
ATOM     22  C   UNL     1       2.140  -0.303  21.663  0.00  0.00    +0.150 C 
ATOM     23  C   UNL     1       4.932  -0.505  23.895  0.00  0.00    +0.130 A 
ENDBRANCH  15  17
ENDBRANCH   5  15
TORSDOF 3
ENDMDL
MODEL 7
REMARK VINA RESULT:       6.6      2.808      7.553
REMARK  Name = 75537034
REMARK  4 active torsions:
REMARK  status: ('A' for Active; 'I' for Inactive)
REMARK    1  A    between atoms: N_5  and  C_15
REMARK    2  A    between atoms: N_7  and  C_22
REMARK    3  A    between atoms: C_15  and  C_17
REMARK    4  A    between atoms: C_16  and  C_18
REMARK                            x       y       z     vdW  Elec       q    Type
REMARK                         _______ _______ _______ _____ _____    ______ ____
ROOT
ATOM      2  O   UNL     1      -4.680   0.237  24.329  0.00  0.00    -0.252 OA
ATOM      3  O   UNL     1       1.483  -2.979  25.017  0.00  0.00    -0.270 OA
ATOM      4  N   UNL     1      -2.384  -0.196  24.090  0.00  0.00    -0.278 N 
ATOM      5  N   UNL     1      -3.159   1.818  23.464  0.00  0.00    -0.276 N 
ATOM      6  N   UNL     1       0.153  -1.069  24.815  0.00  0.00    -0.294 N 
ATOM      9  C   UNL     1      -1.234   0.473  23.506  0.00  0.00    +0.112 C 
ATOM     10  C   UNL     1      -1.720   1.903  23.286  0.00  0.00    +0.134 C 
ATOM     11  C   UNL     1      -0.025   0.344  24.426  0.00  0.00    +0.132 C 
ATOM     12  C   UNL     1      -2.254  -1.556  24.585  0.00  0.00    +0.128 C 
ATOM     13  C   UNL     1      -1.014  -1.674  25.470  0.00  0.00    +0.127 C 
ATOM     14  C   UNL     1      -3.550   0.575  24.000  0.00  0.00    +0.306 C 
ATOM     16  C   UNL     1       1.321  -1.816  24.653  0.00  0.00    +0.247 C 
ENDROOT
BRANCH  16  18
ATOM      1  F   UNL     1       5.668   0.610  22.095  0.00  0.00    -0.205 F 
ATOM     18  C   UNL     1       2.462  -1.179  23.983  0.00  0.00    +0.037 A 
ATOM     20  C   UNL     1       2.252  -0.105  23.117  0.00  0.00    +0.016 A 
ATOM     21  C   UNL     1       3.756  -1.648  24.211  0.00  0.00    +0.016 A 
ATOM     24  C   UNL     1       3.335   0.499  22.479  0.00  0.00    +0.039 A 
ATOM     25  C   UNL     1       4.840  -1.043  23.573  0.00  0.00    +0.039 A 
ATOM     26  C   UNL     1       4.628   0.030  22.708  0.00  0.00    +0.123 A 
ENDBRANCH  16  18
BRANCH   5  15
ATOM     15  C   UNL     1      -4.028   2.951  23.234  0.00  0.00    +0.183 C 
BRANCH  15  17
ATOM      7  N   UNL     1      -3.671   4.217  25.375  0.00  0.00    -0.336 N 
ATOM      8  N   UNL     1      -5.746   3.536  24.969  0.00  0.00    -0.239 NA
ATOM     17  C   UNL     1      -4.511   3.558  24.520  0.00  0.00    +0.127 A 
ATOM     19  C   UNL     1      -4.419   4.642  26.438  0.00  0.00    +0.106 A 
ATOM     22  C   UNL     1      -2.254   4.433  25.205  0.00  0.00    +0.150 C 
ATOM     23  C   UNL     1      -5.696   4.210  26.164  0.00  0.00    +0.130 A 
ENDBRANCH  15  17
ENDBRANCH   5  15
TORSDOF 3
ENDMDL
