MODEL 1
REMARK VINA RESULT:      -5.7      0.000      0.000
REMARK  Name = 75536697
REMARK  8 active torsions:
REMARK  status: ('A' for Active; 'I' for Inactive)
REMARK    1  A    between atoms: S_1  and  N_7
REMARK    2  A    between atoms: S_1  and  C_17
REMARK    3  A    between atoms: O_3  and  C_12
REMARK    4  A    between atoms: N_6  and  C_8
REMARK    5  A    between atoms: N_6  and  C_9
REMARK    6  A    between atoms: N_7  and  C_16
REMARK    7  A    between atoms: C_14  and  C_16
REMARK    8  A    between atoms: C_22  and  C_23
REMARK                            x       y       z     vdW  Elec       q    Type
REMARK                         _______ _______ _______ _____ _____    ______ ____
ROOT
ATOM      2  O   UNL     1      -1.004   2.433  26.357  0.00  0.00    -0.371 OA
ATOM      9  C   UNL     1       0.130   1.647  24.423  0.00  0.00    +0.111 C 
ATOM     12  C   UNL     1      -0.557   2.960  24.095  0.00  0.00    +0.164 C 
ATOM     14  C   UNL     1      -0.746   3.548  25.486  0.00  0.00    +0.164 C 
ATOM     15  C   UNL     1      -0.613   1.225  25.681  0.00  0.00    +0.181 C 
ENDROOT
BRANCH  12   3
ATOM      3  O   UNL     1       0.231   3.797  23.271  0.00  0.00    -0.388 OA
ATOM     25  H   UNL     1       0.763   3.234  22.683  0.00  0.00    +0.210 HD
ENDBRANCH  12   3
BRANCH   9   6
ATOM      6  N   UNL     1       0.045   0.661  23.358  0.00  0.00    -0.306 NA
ATOM     24  H   UNL     1      -0.208   1.144  22.496  0.00  0.00    +0.123 HD
BRANCH   6   8
ATOM      8  C   UNL     1       1.306  -0.058  23.257  0.00  0.00    +0.054 C 
ATOM     10  C   UNL     1       1.620  -0.330  21.770  0.00  0.00    +0.019 C 
ATOM     11  C   UNL     1       2.470   0.957  23.241  0.00  0.00    +0.019 C 
ATOM     13  C   UNL     1       3.064   0.124  22.083  0.00  0.00    +0.003 C 
ENDBRANCH   6   8
ENDBRANCH   9   6
BRANCH  14  16
ATOM     16  C   UNL     1      -1.894   4.539  25.568  0.00  0.00    +0.140 C 
BRANCH  16   7
ATOM      7  N   UNL     1      -3.117   3.844  26.014  0.00  0.00    -0.187 NA
ATOM     26  H   UNL     1      -3.014   3.247  26.845  0.00  0.00    +0.148 HD
BRANCH   7   1
ATOM      1  S   UNL     1      -4.341   3.467  24.894  0.00  0.00    +0.058 S 
ATOM      4  O   UNL     1      -4.051   4.116  23.629  0.00  0.00    -0.153 OA
ATOM      5  O   UNL     1      -5.633   3.649  25.527  0.00  0.00    -0.153 OA
BRANCH   1  17
ATOM     17  C   UNL     1      -4.112   1.728  24.678  0.00  0.00    +0.105 A 
ATOM     18  C   UNL     1      -4.502   0.843  25.684  0.00  0.00    +0.029 A 
ATOM     19  C   UNL     1      -3.537   1.240  23.505  0.00  0.00    +0.029 A 
ATOM     20  C   UNL     1      -4.318  -0.529  25.515  0.00  0.00    +0.005 A 
ATOM     21  C   UNL     1      -3.353  -0.132  23.336  0.00  0.00    +0.005 A 
ATOM     22  C   UNL     1      -3.744  -1.017  24.342  0.00  0.00    -0.050 A 
ATOM     23  C   UNL     1      -3.548  -2.484  24.162  0.00  0.00    +0.044 C 
ENDBRANCH   1  17
ENDBRANCH   7   1
ENDBRANCH  16   7
ENDBRANCH  14  16
TORSDOF 7
ENDMDL
MODEL 2
REMARK VINA RESULT:      -5.6      2.796      4.737
REMARK  Name = 75536697
REMARK  8 active torsions:
REMARK  status: ('A' for Active; 'I' for Inactive)
REMARK    1  A    between atoms: S_1  and  N_7
REMARK    2  A    between atoms: S_1  and  C_17
REMARK    3  A    between atoms: O_3  and  C_12
REMARK    4  A    between atoms: N_6  and  C_8
REMARK    5  A    between atoms: N_6  and  C_9
REMARK    6  A    between atoms: N_7  and  C_16
REMARK    7  A    between atoms: C_14  and  C_16
REMARK    8  A    between atoms: C_22  and  C_23
REMARK                            x       y       z     vdW  Elec       q    Type
REMARK                         _______ _______ _______ _____ _____    ______ ____
ROOT
ATOM      2  O   UNL     1       0.227   0.322  23.509  0.00  0.00    -0.371 OA
ATOM      9  C   UNL     1       0.086   1.471  25.584  0.00  0.00    +0.111 C 
ATOM     12  C   UNL     1      -0.836   0.267  25.621  0.00  0.00    +0.164 C 
ATOM     14  C   UNL     1      -0.242  -0.593  24.514  0.00  0.00    +0.164 C 
ATOM     15  C   UNL     1       0.304   1.637  24.088  0.00  0.00    +0.181 C 
ENDROOT
BRANCH  12   3
ATOM      3  O   UNL     1      -0.819  -0.396  26.870  0.00  0.00    -0.388 OA
ATOM     25  H   UNL     1      -1.699  -0.780  27.024  0.00  0.00    +0.210 HD
ENDBRANCH  12   3
BRANCH   9   6
ATOM      6  N   UNL     1      -0.476   2.657  26.209  0.00  0.00    -0.306 NA
ATOM     24  H   UNL     1       0.287   3.188  26.628  0.00  0.00    +0.123 HD
BRANCH   6   8
ATOM      8  C   UNL     1      -1.224   3.420  25.222  0.00  0.00    +0.054 C 
ATOM     10  C   UNL     1      -2.275   4.293  25.942  0.00  0.00    +0.019 C 
ATOM     11  C   UNL     1      -0.464   4.726  24.905  0.00  0.00    +0.019 C 
ATOM     13  C   UNL     1      -1.829   5.444  25.010  0.00  0.00    +0.003 C 
ENDBRANCH   6   8
ENDBRANCH   9   6
BRANCH  14  16
ATOM     16  C   UNL     1      -1.242  -1.558  23.901  0.00  0.00    +0.140 C 
BRANCH  16   7
ATOM      7  N   UNL     1      -2.501  -0.847  23.606  0.00  0.00    -0.187 NA
ATOM     26  H   UNL     1      -2.400   0.068  23.149  0.00  0.00    +0.148 HD
BRANCH   7   1
ATOM      1  S   UNL     1      -3.883  -1.129  24.558  0.00  0.00    +0.058 S 
ATOM      4  O   UNL     1      -3.479  -1.660  25.846  0.00  0.00    -0.153 OA
ATOM      5  O   UNL     1      -4.872  -1.826  23.759  0.00  0.00    -0.153 OA
BRANCH   1  17
ATOM     17  C   UNL     1      -4.487   0.513  24.812  0.00  0.00    +0.105 A 
ATOM     18  C   UNL     1      -5.419   0.765  25.819  0.00  0.00    +0.029 A 
ATOM     19  C   UNL     1      -4.037   1.556  24.002  0.00  0.00    +0.029 A 
ATOM     20  C   UNL     1      -5.898   2.059  26.017  0.00  0.00    +0.005 A 
ATOM     21  C   UNL     1      -4.516   2.850  24.201  0.00  0.00    +0.005 A 
ATOM     22  C   UNL     1      -5.448   3.102  25.209  0.00  0.00    -0.050 A 
ATOM     23  C   UNL     1      -5.960   4.486  25.421  0.00  0.00    +0.044 C 
ENDBRANCH   1  17
ENDBRANCH   7   1
ENDBRANCH  16   7
ENDBRANCH  14  16
TORSDOF 7
ENDMDL
MODEL 3
REMARK VINA RESULT:      -5.0      1.583      2.006
REMARK  Name = 75536697
REMARK  8 active torsions:
REMARK  status: ('A' for Active; 'I' for Inactive)
REMARK    1  A    between atoms: S_1  and  N_7
REMARK    2  A    between atoms: S_1  and  C_17
REMARK    3  A    between atoms: O_3  and  C_12
REMARK    4  A    between atoms: N_6  and  C_8
REMARK    5  A    between atoms: N_6  and  C_9
REMARK    6  A    between atoms: N_7  and  C_16
REMARK    7  A    between atoms: C_14  and  C_16
REMARK    8  A    between atoms: C_22  and  C_23
REMARK                            x       y       z     vdW  Elec       q    Type
REMARK                         _______ _______ _______ _____ _____    ______ ____
ROOT
ATOM      2  O   UNL     1      -1.659   4.236  25.801  0.00  0.00    -0.371 OA
ATOM      9  C   UNL     1      -0.577   2.604  24.457  0.00  0.00    +0.111 C 
ATOM     12  C   UNL     1      -2.069   2.558  24.186  0.00  0.00    +0.164 C 
ATOM     14  C   UNL     1      -2.498   3.935  24.673  0.00  0.00    +0.164 C 
ATOM     15  C   UNL     1      -0.535   3.339  25.787  0.00  0.00    +0.181 C 
ENDROOT
BRANCH  12   3
ATOM      3  O   UNL     1      -2.370   2.365  22.817  0.00  0.00    -0.388 OA
ATOM     25  H   UNL     1      -1.584   1.998  22.380  0.00  0.00    +0.210 HD
ENDBRANCH  12   3
BRANCH   9   6
ATOM      6  N   UNL     1       0.047   1.292  24.515  0.00  0.00    -0.306 NA
ATOM     24  H   UNL     1      -0.656   0.618  24.820  0.00  0.00    +0.123 HD
BRANCH   6   8
ATOM      8  C   UNL     1       0.619   0.966  23.217  0.00  0.00    +0.054 C 
ATOM     10  C   UNL     1       2.159   1.045  23.304  0.00  0.00    +0.019 C 
ATOM     11  C   UNL     1       0.777  -0.565  23.100  0.00  0.00    +0.019 C 
ATOM     13  C   UNL     1       2.183  -0.289  22.522  0.00  0.00    +0.003 C 
ENDBRANCH   6   8
ENDBRANCH   9   6
BRANCH  14  16
ATOM     16  C   UNL     1      -3.958   3.996  25.090  0.00  0.00    +0.140 C 
BRANCH  16   7
ATOM      7  N   UNL     1      -4.733   2.996  24.330  0.00  0.00    -0.187 NA
ATOM     26  H   UNL     1      -5.053   3.294  23.399  0.00  0.00    +0.148 HD
BRANCH   7   1
ATOM      1  S   UNL     1      -5.626   1.805  25.152  0.00  0.00    +0.058 S 
ATOM      4  O   UNL     1      -6.861   1.549  24.435  0.00  0.00    -0.153 OA
ATOM      5  O   UNL     1      -5.657   2.129  26.565  0.00  0.00    -0.153 OA
BRANCH   1  17
ATOM     17  C   UNL     1      -4.588   0.386  24.971  0.00  0.00    +0.105 A 
ATOM     18  C   UNL     1      -3.465   0.235  25.785  0.00  0.00    +0.029 A 
ATOM     19  C   UNL     1      -4.889  -0.582  24.012  0.00  0.00    +0.029 A 
ATOM     20  C   UNL     1      -2.645  -0.884  25.640  0.00  0.00    +0.005 A 
ATOM     21  C   UNL     1      -4.069  -1.700  23.868  0.00  0.00    +0.005 A 
ATOM     22  C   UNL     1      -2.946  -1.851  24.682  0.00  0.00    -0.050 A 
ATOM     23  C   UNL     1      -2.068  -3.047  24.528  0.00  0.00    +0.044 C 
ENDBRANCH   1  17
ENDBRANCH   7   1
ENDBRANCH  16   7
ENDBRANCH  14  16
TORSDOF 7
ENDMDL
MODEL 4
REMARK VINA RESULT:      -4.9      2.261      4.134
REMARK  Name = 75536697
REMARK  8 active torsions:
REMARK  status: ('A' for Active; 'I' for Inactive)
REMARK    1  A    between atoms: S_1  and  N_7
REMARK    2  A    between atoms: S_1  and  C_17
REMARK    3  A    between atoms: O_3  and  C_12
REMARK    4  A    between atoms: N_6  and  C_8
REMARK    5  A    between atoms: N_6  and  C_9
REMARK    6  A    between atoms: N_7  and  C_16
REMARK    7  A    between atoms: C_14  and  C_16
REMARK    8  A    between atoms: C_22  and  C_23
REMARK                            x       y       z     vdW  Elec       q    Type
REMARK                         _______ _______ _______ _____ _____    ______ ____
ROOT
ATOM      2  O   UNL     1      -0.645   1.047  26.030  0.00  0.00    -0.371 OA
ATOM      9  C   UNL     1      -0.593  -1.046  24.908  0.00  0.00    +0.111 C 
ATOM     12  C   UNL     1      -0.004   0.017  24.000  0.00  0.00    +0.164 C 
ATOM     14  C   UNL     1       0.368   1.093  25.010  0.00  0.00    +0.164 C 
ATOM     15  C   UNL     1      -1.359  -0.196  25.909  0.00  0.00    +0.181 C 
ENDROOT
BRANCH  12   3
ATOM      3  O   UNL     1       1.124  -0.443  23.280  0.00  0.00    -0.388 OA
ATOM     25  H   UNL     1       0.866  -0.558  22.350  0.00  0.00    +0.210 HD
ENDBRANCH  12   3
BRANCH   9   6
ATOM      6  N   UNL     1      -1.439  -2.003  24.214  0.00  0.00    -0.306 NA
ATOM     24  H   UNL     1      -1.067  -2.939  24.382  0.00  0.00    +0.123 HD
BRANCH   6   8
ATOM      8  C   UNL     1      -2.816  -1.851  24.661  0.00  0.00    +0.054 C 
ATOM     10  C   UNL     1      -3.653  -1.217  23.528  0.00  0.00    +0.019 C 
ATOM     11  C   UNL     1      -3.585  -3.164  24.395  0.00  0.00    +0.019 C 
ATOM     13  C   UNL     1      -4.729  -2.280  23.849  0.00  0.00    +0.003 C 
ENDBRANCH   6   8
ENDBRANCH   9   6
BRANCH  14  16
ATOM     16  C   UNL     1       0.426   2.486  24.409  0.00  0.00    +0.140 C 
BRANCH  16   7
ATOM      7  N   UNL     1      -0.259   3.441  25.302  0.00  0.00    -0.187 NA
ATOM     26  H   UNL     1      -0.382   3.132  26.275  0.00  0.00    +0.148 HD
BRANCH   7   1
ATOM      1  S   UNL     1      -1.365   4.564  24.663  0.00  0.00    +0.058 S 
ATOM      4  O   UNL     1      -1.072   4.783  23.260  0.00  0.00    -0.153 OA
ATOM      5  O   UNL     1      -1.470   5.691  25.570  0.00  0.00    -0.153 OA
BRANCH   1  17
ATOM     17  C   UNL     1      -2.888   3.673  24.769  0.00  0.00    +0.105 A 
ATOM     18  C   UNL     1      -3.192   2.697  23.820  0.00  0.00    +0.029 A 
ATOM     19  C   UNL     1      -3.787   3.948  25.799  0.00  0.00    +0.029 A 
ATOM     20  C   UNL     1      -4.394   1.996  23.902  0.00  0.00    +0.005 A 
ATOM     21  C   UNL     1      -4.990   3.247  25.881  0.00  0.00    +0.005 A 
ATOM     22  C   UNL     1      -5.294   2.270  24.932  0.00  0.00    -0.050 A 
ATOM     23  C   UNL     1      -6.580   1.520  25.019  0.00  0.00    +0.044 C 
ENDBRANCH   1  17
ENDBRANCH   7   1
ENDBRANCH  16   7
ENDBRANCH  14  16
TORSDOF 7
ENDMDL
MODEL 5
REMARK VINA RESULT:      -4.7      2.090      4.792
REMARK  Name = 75536697
REMARK  8 active torsions:
REMARK  status: ('A' for Active; 'I' for Inactive)
REMARK    1  A    between atoms: S_1  and  N_7
REMARK    2  A    between atoms: S_1  and  C_17
REMARK    3  A    between atoms: O_3  and  C_12
REMARK    4  A    between atoms: N_6  and  C_8
REMARK    5  A    between atoms: N_6  and  C_9
REMARK    6  A    between atoms: N_7  and  C_16
REMARK    7  A    between atoms: C_14  and  C_16
REMARK    8  A    between atoms: C_22  and  C_23
REMARK                            x       y       z     vdW  Elec       q    Type
REMARK                         _______ _______ _______ _____ _____    ______ ____
ROOT
ATOM      2  O   UNL     1      -4.011   2.445  23.263  0.00  0.00    -0.371 OA
ATOM      9  C   UNL     1      -4.798   0.681  24.645  0.00  0.00    +0.111 C 
ATOM     12  C   UNL     1      -4.933   1.994  25.394  0.00  0.00    +0.164 C 
ATOM     14  C   UNL     1      -4.911   2.991  24.244  0.00  0.00    +0.164 C 
ATOM     15  C   UNL     1      -3.800   1.054  23.561  0.00  0.00    +0.181 C 
ENDROOT
BRANCH  12   3
ATOM      3  O   UNL     1      -6.132   2.076  26.139  0.00  0.00    -0.388 OA
ATOM     25  H   UNL     1      -6.075   1.451  26.881  0.00  0.00    +0.210 HD
ENDBRANCH  12   3
BRANCH   9   6
ATOM      6  N   UNL     1      -4.344  -0.421  25.477  0.00  0.00    -0.306 NA
ATOM     24  H   UNL     1      -5.165  -0.902  25.846  0.00  0.00    +0.123 HD
BRANCH   6   8
ATOM      8  C   UNL     1      -3.476  -1.294  24.701  0.00  0.00    +0.054 C 
ATOM     10  C   UNL     1      -3.077  -2.513  25.561  0.00  0.00    +0.019 C 
ATOM     11  C   UNL     1      -4.343  -2.260  23.864  0.00  0.00    +0.019 C 
ATOM     13  C   UNL     1      -3.376  -3.378  24.314  0.00  0.00    +0.003 C 
ENDBRANCH   6   8
ENDBRANCH   9   6
BRANCH  14  16
ATOM     16  C   UNL     1      -4.439   4.374  24.658  0.00  0.00    +0.140 C 
BRANCH  16   7
ATOM      7  N   UNL     1      -3.042   4.572  24.224  0.00  0.00    -0.187 NA
ATOM     26  H   UNL     1      -2.848   4.367  23.235  0.00  0.00    +0.148 HD
BRANCH   7   1
ATOM      1  S   UNL     1      -1.772   4.422  25.346  0.00  0.00    +0.058 S 
ATOM      4  O   UNL     1      -2.315   4.428  26.691  0.00  0.00    -0.153 OA
ATOM      5  O   UNL     1      -0.711   5.343  24.983  0.00  0.00    -0.153 OA
BRANCH   1  17
ATOM     17  C   UNL     1      -1.178   2.792  25.005  0.00  0.00    +0.105 A 
ATOM     18  C   UNL     1      -0.609   2.502  23.764  0.00  0.00    +0.029 A 
ATOM     19  C   UNL     1      -1.283   1.795  25.975  0.00  0.00    +0.029 A 
ATOM     20  C   UNL     1      -0.144   1.216  23.495  0.00  0.00    +0.005 A 
ATOM     21  C   UNL     1      -0.818   0.508  25.704  0.00  0.00    +0.005 A 
ATOM     22  C   UNL     1      -0.248   0.218  24.464  0.00  0.00    -0.050 A 
ATOM     23  C   UNL     1       0.250  -1.157  24.175  0.00  0.00    +0.044 C 
ENDBRANCH   1  17
ENDBRANCH   7   1
ENDBRANCH  16   7
ENDBRANCH  14  16
TORSDOF 7
ENDMDL
MODEL 6
REMARK VINA RESULT:      -4.5      1.357      2.121
REMARK  Name = 75536697
REMARK  8 active torsions:
REMARK  status: ('A' for Active; 'I' for Inactive)
REMARK    1  A    between atoms: S_1  and  N_7
REMARK    2  A    between atoms: S_1  and  C_17
REMARK    3  A    between atoms: O_3  and  C_12
REMARK    4  A    between atoms: N_6  and  C_8
REMARK    5  A    between atoms: N_6  and  C_9
REMARK    6  A    between atoms: N_7  and  C_16
REMARK    7  A    between atoms: C_14  and  C_16
REMARK    8  A    between atoms: C_22  and  C_23
REMARK                            x       y       z     vdW  Elec       q    Type
REMARK                         _______ _______ _______ _____ _____    ______ ____
ROOT
ATOM      2  O   UNL     1      -0.833   2.830  26.521  0.00  0.00    -0.371 OA
ATOM      9  C   UNL     1       0.142   1.724  24.659  0.00  0.00    +0.111 C 
ATOM     12  C   UNL     1      -0.581   2.966  24.173  0.00  0.00    +0.164 C 
ATOM     14  C   UNL     1      -0.659   3.781  25.456  0.00  0.00    +0.164 C 
ATOM     15  C   UNL     1      -0.488   1.524  26.027  0.00  0.00    +0.181 C 
ENDROOT
BRANCH  12   3
ATOM      3  O   UNL     1       0.127   3.648  23.156  0.00  0.00    -0.388 OA
ATOM     25  H   UNL     1       0.888   4.097  23.562  0.00  0.00    +0.210 HD
ENDBRANCH  12   3
BRANCH   9   6
ATOM      6  N   UNL     1      -0.022   0.573  23.786  0.00  0.00    -0.306 NA
ATOM     24  H   UNL     1       0.663   0.642  23.033  0.00  0.00    +0.123 HD
BRANCH   6   8
ATOM      8  C   UNL     1       0.110  -0.651  24.562  0.00  0.00    +0.054 C 
ATOM     10  C   UNL     1      -1.036  -0.727  25.594  0.00  0.00    +0.019 C 
ATOM     11  C   UNL     1      -0.587  -1.807  23.813  0.00  0.00    +0.019 C 
ATOM     13  C   UNL     1      -1.198  -2.206  25.175  0.00  0.00    +0.003 C 
ENDBRANCH   6   8
ENDBRANCH   9   6
BRANCH  14  16
ATOM     16  C   UNL     1      -1.805   4.777  25.466  0.00  0.00    +0.140 C 
BRANCH  16   7
ATOM      7  N   UNL     1      -3.026   4.122  25.974  0.00  0.00    -0.187 NA
ATOM     26  H   UNL     1      -2.887   3.450  26.740  0.00  0.00    +0.148 HD
BRANCH   7   1
ATOM      1  S   UNL     1      -4.373   3.919  24.954  0.00  0.00    +0.058 S 
ATOM      4  O   UNL     1      -4.137   4.613  23.703  0.00  0.00    -0.153 OA
ATOM      5  O   UNL     1      -5.582   4.175  25.713  0.00  0.00    -0.153 OA
BRANCH   1  17
ATOM     17  C   UNL     1      -4.324   2.182  24.631  0.00  0.00    +0.105 A 
ATOM     18  C   UNL     1      -3.540   1.688  23.589  0.00  0.00    +0.029 A 
ATOM     19  C   UNL     1      -5.073   1.305  25.417  0.00  0.00    +0.029 A 
ATOM     20  C   UNL     1      -3.504   0.318  23.332  0.00  0.00    +0.005 A 
ATOM     21  C   UNL     1      -5.037  -0.065  25.160  0.00  0.00    +0.005 A 
ATOM     22  C   UNL     1      -4.251  -0.559  24.117  0.00  0.00    -0.050 A 
ATOM     23  C   UNL     1      -4.213  -2.024  23.843  0.00  0.00    +0.044 C 
ENDBRANCH   1  17
ENDBRANCH   7   1
ENDBRANCH  16   7
ENDBRANCH  14  16
TORSDOF 7
ENDMDL
MODEL 7
REMARK VINA RESULT:      -4.4      2.539      4.780
REMARK  Name = 75536697
REMARK  8 active torsions:
REMARK  status: ('A' for Active; 'I' for Inactive)
REMARK    1  A    between atoms: S_1  and  N_7
REMARK    2  A    between atoms: S_1  and  C_17
REMARK    3  A    between atoms: O_3  and  C_12
REMARK    4  A    between atoms: N_6  and  C_8
REMARK    5  A    between atoms: N_6  and  C_9
REMARK    6  A    between atoms: N_7  and  C_16
REMARK    7  A    between atoms: C_14  and  C_16
REMARK    8  A    between atoms: C_22  and  C_23
REMARK                            x       y       z     vdW  Elec       q    Type
REMARK                         _______ _______ _______ _____ _____    ______ ____
ROOT
ATOM      2  O   UNL     1      -5.491   2.760  26.096  0.00  0.00    -0.371 OA
ATOM      9  C   UNL     1      -3.900   4.106  24.956  0.00  0.00    +0.111 C 
ATOM     12  C   UNL     1      -4.005   2.764  24.256  0.00  0.00    +0.164 C 
ATOM     14  C   UNL     1      -5.364   2.283  24.745  0.00  0.00    +0.164 C 
ATOM     15  C   UNL     1      -4.506   3.786  26.312  0.00  0.00    +0.181 C 
ENDROOT
BRANCH  12   3
ATOM      3  O   UNL     1      -3.962   2.878  22.847  0.00  0.00    -0.388 OA
ATOM     25  H   UNL     1      -4.839   3.163  22.536  0.00  0.00    +0.210 HD
ENDBRANCH  12   3
BRANCH   9   6
ATOM      6  N   UNL     1      -2.540   4.612  25.048  0.00  0.00    -0.306 NA
ATOM     24  H   UNL     1      -2.431   5.072  25.952  0.00  0.00    +0.123 HD
BRANCH   6   8
ATOM      8  C   UNL     1      -1.599   3.519  24.850  0.00  0.00    +0.054 C 
ATOM     10  C   UNL     1      -0.166   4.089  24.769  0.00  0.00    +0.019 C 
ATOM     11  C   UNL     1      -1.208   2.930  26.223  0.00  0.00    +0.019 C 
ATOM     13  C   UNL     1       0.251   2.937  25.713  0.00  0.00    +0.003 C 
ENDBRANCH   6   8
ENDBRANCH   9   6
BRANCH  14  16
ATOM     16  C   UNL     1      -5.511   0.772  24.720  0.00  0.00    +0.140 C 
BRANCH  16   7
ATOM      7  N   UNL     1      -4.385   0.152  25.446  0.00  0.00    -0.187 NA
ATOM     26  H   UNL     1      -3.771   0.801  25.956  0.00  0.00    +0.148 HD
BRANCH   7   1
ATOM      1  S   UNL     1      -3.735  -1.326  24.912  0.00  0.00    +0.058 S 
ATOM      4  O   UNL     1      -4.475  -1.785  23.752  0.00  0.00    -0.153 OA
ATOM      5  O   UNL     1      -3.552  -2.202  26.053  0.00  0.00    -0.153 OA
BRANCH   1  17
ATOM     17  C   UNL     1      -2.124  -0.839  24.372  0.00  0.00    +0.105 A 
ATOM     18  C   UNL     1      -1.972   0.278  23.549  0.00  0.00    +0.029 A 
ATOM     19  C   UNL     1      -1.005  -1.572  24.765  0.00  0.00    +0.029 A 
ATOM     20  C   UNL     1      -0.702   0.660  23.121  0.00  0.00    +0.005 A 
ATOM     21  C   UNL     1       0.266  -1.189  24.337  0.00  0.00    +0.005 A 
ATOM     22  C   UNL     1       0.418  -0.072  23.514  0.00  0.00    -0.050 A 
ATOM     23  C   UNL     1       1.777   0.337  23.056  0.00  0.00    +0.044 C 
ENDBRANCH   1  17
ENDBRANCH   7   1
ENDBRANCH  16   7
ENDBRANCH  14  16
TORSDOF 7
ENDMDL
MODEL 8
REMARK VINA RESULT:      -4.3      2.173      4.262
REMARK  Name = 75536697
REMARK  8 active torsions:
REMARK  status: ('A' for Active; 'I' for Inactive)
REMARK    1  A    between atoms: S_1  and  N_7
REMARK    2  A    between atoms: S_1  and  C_17
REMARK    3  A    between atoms: O_3  and  C_12
REMARK    4  A    between atoms: N_6  and  C_8
REMARK    5  A    between atoms: N_6  and  C_9
REMARK    6  A    between atoms: N_7  and  C_16
REMARK    7  A    between atoms: C_14  and  C_16
REMARK    8  A    between atoms: C_22  and  C_23
REMARK                            x       y       z     vdW  Elec       q    Type
REMARK                         _______ _______ _______ _____ _____    ______ ____
ROOT
ATOM      2  O   UNL     1      -3.217  -2.385  24.104  0.00  0.00    -0.371 OA
ATOM      9  C   UNL     1      -1.141  -1.743  25.064  0.00  0.00    +0.111 C 
ATOM     12  C   UNL     1      -2.148  -0.626  25.270  0.00  0.00    +0.164 C 
ATOM     14  C   UNL     1      -3.460  -1.380  25.104  0.00  0.00    +0.164 C 
ATOM     15  C   UNL     1      -1.796  -2.536  23.944  0.00  0.00    +0.181 C 
ENDROOT
BRANCH  12   3
ATOM      3  O   UNL     1      -2.044  -0.025  26.545  0.00  0.00    -0.388 OA
ATOM     25  H   UNL     1      -2.794  -0.324  27.087  0.00  0.00    +0.210 HD
ENDBRANCH  12   3
BRANCH   9   6
ATOM      6  N   UNL     1       0.190  -1.272  24.721  0.00  0.00    -0.306 NA
ATOM     24  H   UNL     1       0.714  -2.055  24.329  0.00  0.00    +0.123 HD
BRANCH   6   8
ATOM      8  C   UNL     1       0.089  -0.143  23.809  0.00  0.00    +0.054 C 
ATOM     10  C   UNL     1       0.436   1.157  24.567  0.00  0.00    +0.019 C 
ATOM     11  C   UNL     1       1.427   0.026  23.057  0.00  0.00    +0.019 C 
ATOM     13  C   UNL     1       1.295   1.539  23.339  0.00  0.00    +0.003 C 
ENDBRANCH   6   8
ENDBRANCH   9   6
BRANCH  14  16
ATOM     16  C   UNL     1      -4.612  -0.491  24.667  0.00  0.00    +0.140 C 
BRANCH  16   7
ATOM      7  N   UNL     1      -5.055   0.341  25.803  0.00  0.00    -0.187 NA
ATOM     26  H   UNL     1      -5.399  -0.173  26.625  0.00  0.00    +0.148 HD
BRANCH   7   1
ATOM      1  S   UNL     1      -5.634   1.916  25.532  0.00  0.00    +0.058 S 
ATOM      4  O   UNL     1      -6.249   2.419  26.745  0.00  0.00    -0.153 OA
ATOM      5  O   UNL     1      -6.365   1.941  24.279  0.00  0.00    -0.153 OA
BRANCH   1  17
ATOM     17  C   UNL     1      -4.133   2.814  25.270  0.00  0.00    +0.105 A 
ATOM     18  C   UNL     1      -3.388   2.603  24.110  0.00  0.00    +0.029 A 
ATOM     19  C   UNL     1      -3.692   3.729  26.226  0.00  0.00    +0.029 A 
ATOM     20  C   UNL     1      -2.203   3.309  23.906  0.00  0.00    +0.005 A 
ATOM     21  C   UNL     1      -2.507   4.434  26.021  0.00  0.00    +0.005 A 
ATOM     22  C   UNL     1      -1.762   4.224  24.860  0.00  0.00    -0.050 A 
ATOM     23  C   UNL     1      -0.494   4.979  24.642  0.00  0.00    +0.044 C 
ENDBRANCH   1  17
ENDBRANCH   7   1
ENDBRANCH  16   7
ENDBRANCH  14  16
TORSDOF 7
ENDMDL
MODEL 9
REMARK VINA RESULT:      -3.8      2.636      5.237
REMARK  Name = 75536697
REMARK  8 active torsions:
REMARK  status: ('A' for Active; 'I' for Inactive)
REMARK    1  A    between atoms: S_1  and  N_7
REMARK    2  A    between atoms: S_1  and  C_17
REMARK    3  A    between atoms: O_3  and  C_12
REMARK    4  A    between atoms: N_6  and  C_8
REMARK    5  A    between atoms: N_6  and  C_9
REMARK    6  A    between atoms: N_7  and  C_16
REMARK    7  A    between atoms: C_14  and  C_16
REMARK    8  A    between atoms: C_22  and  C_23
REMARK                            x       y       z     vdW  Elec       q    Type
REMARK                         _______ _______ _______ _____ _____    ______ ____
ROOT
ATOM      2  O   UNL     1      -1.095   1.904  23.178  0.00  0.00    -0.371 OA
ATOM      9  C   UNL     1      -2.889   3.367  23.708  0.00  0.00    +0.111 C 
ATOM     12  C   UNL     1      -2.046   3.148  24.950  0.00  0.00    +0.164 C 
ATOM     14  C   UNL     1      -0.735   2.677  24.336  0.00  0.00    +0.164 C 
ATOM     15  C   UNL     1      -2.464   2.191  22.844  0.00  0.00    +0.181 C 
ENDROOT
BRANCH  12   3
ATOM      3  O   UNL     1      -1.877   4.328  25.711  0.00  0.00    -0.388 OA
ATOM     25  H   UNL     1      -2.653   4.433  26.288  0.00  0.00    +0.210 HD
ENDBRANCH  12   3
BRANCH   9   6
ATOM      6  N   UNL     1      -4.319   3.390  23.969  0.00  0.00    -0.306 NA
ATOM     24  H   UNL     1      -4.806   3.164  23.102  0.00  0.00    +0.123 HD
BRANCH   6   8
ATOM      8  C   UNL     1      -4.632   2.469  25.051  0.00  0.00    +0.054 C 
ATOM     10  C   UNL     1      -5.395   3.225  26.161  0.00  0.00    +0.019 C 
ATOM     11  C   UNL     1      -5.958   1.744  24.736  0.00  0.00    +0.019 C 
ATOM     13  C   UNL     1      -6.355   2.014  26.204  0.00  0.00    +0.003 C 
ENDBRANCH   6   8
ENDBRANCH   9   6
BRANCH  14  16
ATOM     16  C   UNL     1       0.099   1.829  25.279  0.00  0.00    +0.140 C 
BRANCH  16   7
ATOM      7  N   UNL     1      -0.656   0.618  25.656  0.00  0.00    -0.187 NA
ATOM     26  H   UNL     1      -1.071   0.626  26.597  0.00  0.00    +0.148 HD
BRANCH   7   1
ATOM      1  S   UNL     1      -0.268  -0.882  24.955  0.00  0.00    +0.058 S 
ATOM      4  O   UNL     1       0.282  -1.760  25.971  0.00  0.00    -0.153 OA
ATOM      5  O   UNL     1       0.456  -0.653  23.719  0.00  0.00    -0.153 OA
BRANCH   1  17
ATOM     17  C   UNL     1      -1.865  -1.498  24.511  0.00  0.00    +0.105 A 
ATOM     18  C   UNL     1      -2.950  -0.625  24.427  0.00  0.00    +0.029 A 
ATOM     19  C   UNL     1      -2.041  -2.857  24.250  0.00  0.00    +0.029 A 
ATOM     20  C   UNL     1      -4.210  -1.111  24.080  0.00  0.00    +0.005 A 
ATOM     21  C   UNL     1      -3.301  -3.342  23.903  0.00  0.00    +0.005 A 
ATOM     22  C   UNL     1      -4.386  -2.469  23.817  0.00  0.00    -0.050 A 
ATOM     23  C   UNL     1      -5.734  -2.988  23.446  0.00  0.00    +0.044 C 
ENDBRANCH   1  17
ENDBRANCH   7   1
ENDBRANCH  16   7
ENDBRANCH  14  16
TORSDOF 7
ENDMDL
MODEL 10
REMARK VINA RESULT:      -3.5      1.730      2.425
REMARK  Name = 75536697
REMARK  8 active torsions:
REMARK  status: ('A' for Active; 'I' for Inactive)
REMARK    1  A    between atoms: S_1  and  N_7
REMARK    2  A    between atoms: S_1  and  C_17
REMARK    3  A    between atoms: O_3  and  C_12
REMARK    4  A    between atoms: N_6  and  C_8
REMARK    5  A    between atoms: N_6  and  C_9
REMARK    6  A    between atoms: N_7  and  C_16
REMARK    7  A    between atoms: C_14  and  C_16
REMARK    8  A    between atoms: C_22  and  C_23
REMARK                            x       y       z     vdW  Elec       q    Type
REMARK                         _______ _______ _______ _____ _____    ______ ____
ROOT
ATOM      2  O   UNL     1       0.570   2.357  23.896  0.00  0.00    -0.371 OA
ATOM      9  C   UNL     1       1.347   0.287  23.026  0.00  0.00    +0.111 C 
ATOM     12  C   UNL     1       0.342   0.014  24.129  0.00  0.00    +0.164 C 
ATOM     14  C   UNL     1      -0.406   1.339  24.180  0.00  0.00    +0.164 C 
ATOM     15  C   UNL     1       1.728   1.730  23.316  0.00  0.00    +0.181 C 
ENDROOT
BRANCH  12   3
ATOM      3  O   UNL     1      -0.520  -1.066  23.828  0.00  0.00    -0.388 OA
ATOM     25  H   UNL     1      -1.257  -0.728  23.291  0.00  0.00    +0.210 HD
ENDBRANCH  12   3
BRANCH   9   6
ATOM      6  N   UNL     1       2.488  -0.613  23.039  0.00  0.00    -0.306 NA
ATOM     24  H   UNL     1       2.652  -0.935  22.085  0.00  0.00    +0.123 HD
BRANCH   6   8
ATOM      8  C   UNL     1       3.639   0.067  23.614  0.00  0.00    +0.054 C 
ATOM     10  C   UNL     1       4.727  -0.974  23.958  0.00  0.00    +0.019 C 
ATOM     11  C   UNL     1       4.566   0.550  22.477  0.00  0.00    +0.019 C 
ATOM     13  C   UNL     1       5.740   0.003  23.319  0.00  0.00    +0.003 C 
ENDBRANCH   6   8
ENDBRANCH   9   6
BRANCH  14  16
ATOM     16  C   UNL     1      -1.053   1.612  25.527  0.00  0.00    +0.140 C 
BRANCH  16   7
ATOM      7  N   UNL     1      -1.989   2.747  25.406  0.00  0.00    -0.187 NA
ATOM     26  H   UNL     1      -1.805   3.545  26.029  0.00  0.00    +0.148 HD
BRANCH   7   1
ATOM      1  S   UNL     1      -3.582   2.485  24.873  0.00  0.00    +0.058 S 
ATOM      4  O   UNL     1      -3.737   3.024  23.536  0.00  0.00    -0.153 OA
ATOM      5  O   UNL     1      -4.502   2.872  25.926  0.00  0.00    -0.153 OA
BRANCH   1  17
ATOM     17  C   UNL     1      -3.640   0.722  24.760  0.00  0.00    +0.105 A 
ATOM     18  C   UNL     1      -3.428  -0.057  25.897  0.00  0.00    +0.029 A 
ATOM     19  C   UNL     1      -3.894   0.110  23.532  0.00  0.00    +0.029 A 
ATOM     20  C   UNL     1      -3.471  -1.448  25.807  0.00  0.00    +0.005 A 
ATOM     21  C   UNL     1      -3.937  -1.281  23.442  0.00  0.00    +0.005 A 
ATOM     22  C   UNL     1      -3.725  -2.061  24.580  0.00  0.00    -0.050 A 
ATOM     23  C   UNL     1      -3.771  -3.548  24.484  0.00  0.00    +0.044 C 
ENDBRANCH   1  17
ENDBRANCH   7   1
ENDBRANCH  16   7
ENDBRANCH  14  16
TORSDOF 7
ENDMDL
