MODEL 1
REMARK VINA RESULT:       6.8      0.000      0.000
REMARK  Name = 75368610
REMARK  6 active torsions:
REMARK  status: ('A' for Active; 'I' for Inactive)
REMARK    1  A    between atoms: S_1  and  C_25
REMARK    2  A    between atoms: S_1  and  C_29
REMARK    3  A    between atoms: N_7  and  C_15
REMARK    4  A    between atoms: N_8  and  C_16
REMARK    5  A    between atoms: C_15  and  C_17
REMARK    6  A    between atoms: C_16  and  C_18
REMARK                            x       y       z     vdW  Elec       q    Type
REMARK                         _______ _______ _______ _____ _____    ______ ____
ROOT
ATOM      3  O   UNL     1      -1.340  -3.508  23.378  0.00  0.00    -0.252 OA
ATOM      6  N   UNL     1      -2.827  -2.141  24.577  0.00  0.00    -0.278 N 
ATOM      7  N   UNL     1      -4.913  -0.314  25.052  0.00  0.00    -0.295 NA
ATOM      8  N   UNL     1      -0.663  -2.140  25.177  0.00  0.00    -0.279 N 
ATOM      9  C   UNL     1      -2.780  -1.312  25.764  0.00  0.00    +0.109 C 
ATOM     10  C   UNL     1      -3.551  -0.013  25.537  0.00  0.00    +0.109 C 
ATOM     11  C   UNL     1      -1.284  -1.134  26.022  0.00  0.00    +0.133 C 
ATOM     12  C   UNL     1      -4.101  -2.379  23.931  0.00  0.00    +0.125 C 
ATOM     13  C   UNL     1      -4.865  -1.061  23.778  0.00  0.00    +0.104 C 
ATOM     14  C   UNL     1      -1.581  -2.702  24.268  0.00  0.00    +0.305 C 
ENDROOT
BRANCH   7  15
ATOM     15  C   UNL     1      -5.680   0.921  24.889  0.00  0.00    +0.119 C 
BRANCH  15  17
ATOM     17  C   UNL     1      -4.792   2.130  24.837  0.00  0.00    -0.033 A 
ATOM     19  C   UNL     1      -4.784   3.035  25.899  0.00  0.00    +0.007 A 
ATOM     20  C   UNL     1      -3.975   2.348  23.728  0.00  0.00    +0.007 A 
ATOM     23  C   UNL     1      -3.959   4.159  25.851  0.00  0.00    +0.027 A 
ATOM     24  C   UNL     1      -3.150   3.472  23.680  0.00  0.00    +0.027 A 
ATOM     25  C   UNL     1      -3.142   4.378  24.741  0.00  0.00    +0.088 A 
BRANCH  25   1
ATOM      1  S   UNL     1      -2.106   5.782  24.683  0.00  0.00    -0.006 S 
ATOM      4  O   UNL     1      -2.398   6.534  23.470  0.00  0.00    -0.170 OA
ATOM      5  O   UNL     1      -2.175   6.444  25.978  0.00  0.00    -0.170 OA
ATOM     29  C   UNL     1      -0.467   5.116  24.497  0.00  0.00    +0.200 C 
ENDBRANCH  25   1
ENDBRANCH  15  17
ENDBRANCH   7  15
BRANCH   8  16
ATOM     16  C   UNL     1       0.762  -2.386  25.201  0.00  0.00    +0.144 C 
BRANCH  16  18
ATOM      2  F   UNL     1       3.546   0.984  21.651  0.00  0.00    -0.205 F 
ATOM     18  C   UNL     1       1.504  -1.487  24.253  0.00  0.00    -0.030 A 
ATOM     21  C   UNL     1       0.815  -0.514  23.530  0.00  0.00    +0.008 A 
ATOM     22  C   UNL     1       2.884  -1.625  24.097  0.00  0.00    +0.008 A 
ATOM     26  C   UNL     1       1.504   0.321  22.651  0.00  0.00    +0.038 A 
ATOM     27  C   UNL     1       3.573  -0.791  23.218  0.00  0.00    +0.038 A 
ATOM     28  C   UNL     1       2.883   0.183  22.495  0.00  0.00    +0.123 A 
ENDBRANCH  16  18
ENDBRANCH   8  16
TORSDOF 5
ENDMDL
MODEL 2
REMARK VINA RESULT:       8.2      2.046      2.928
REMARK  Name = 75368610
REMARK  6 active torsions:
REMARK  status: ('A' for Active; 'I' for Inactive)
REMARK    1  A    between atoms: S_1  and  C_25
REMARK    2  A    between atoms: S_1  and  C_29
REMARK    3  A    between atoms: N_7  and  C_15
REMARK    4  A    between atoms: N_8  and  C_16
REMARK    5  A    between atoms: C_15  and  C_17
REMARK    6  A    between atoms: C_16  and  C_18
REMARK                            x       y       z     vdW  Elec       q    Type
REMARK                         _______ _______ _______ _____ _____    ______ ____
ROOT
ATOM      3  O   UNL     1       0.484  -1.998  21.556  0.00  0.00    -0.252 OA
ATOM      6  N   UNL     1      -0.699  -1.724  23.566  0.00  0.00    -0.278 N 
ATOM      7  N   UNL     1      -2.890  -1.581  25.325  0.00  0.00    -0.295 NA
ATOM      8  N   UNL     1       0.948  -0.272  23.095  0.00  0.00    -0.279 N 
ATOM      9  C   UNL     1      -0.598  -0.894  24.749  0.00  0.00    +0.109 C 
ATOM     10  C   UNL     1      -1.983  -0.422  25.188  0.00  0.00    +0.109 C 
ATOM     11  C   UNL     1       0.357   0.222  24.327  0.00  0.00    +0.133 C 
ATOM     12  C   UNL     1      -1.667  -2.801  23.538  0.00  0.00    +0.125 C 
ATOM     13  C   UNL     1      -3.022  -2.300  24.042  0.00  0.00    +0.104 C 
ATOM     14  C   UNL     1       0.274  -1.409  22.608  0.00  0.00    +0.305 C 
ENDROOT
BRANCH   7  15
ATOM     15  C   UNL     1      -4.202  -1.146  25.803  0.00  0.00    +0.119 C 
BRANCH  15  17
ATOM     17  C   UNL     1      -4.394   0.335  25.647  0.00  0.00    -0.033 A 
ATOM     19  C   UNL     1      -5.646   0.904  25.879  0.00  0.00    +0.007 A 
ATOM     20  C   UNL     1      -3.320   1.141  25.269  0.00  0.00    +0.007 A 
ATOM     23  C   UNL     1      -5.825   2.280  25.733  0.00  0.00    +0.027 A 
ATOM     24  C   UNL     1      -3.499   2.517  25.123  0.00  0.00    +0.027 A 
ATOM     25  C   UNL     1      -4.750   3.086  25.355  0.00  0.00    +0.088 A 
BRANCH  25   1
ATOM      1  S   UNL     1      -4.973   4.809  25.177  0.00  0.00    -0.006 S 
ATOM      4  O   UNL     1      -4.587   5.198  23.827  0.00  0.00    -0.170 OA
ATOM      5  O   UNL     1      -6.300   5.143  25.673  0.00  0.00    -0.170 OA
ATOM     29  C   UNL     1      -3.779   5.526  26.284  0.00  0.00    +0.200 C 
ENDBRANCH  25   1
ENDBRANCH  15  17
ENDBRANCH   7  15
BRANCH   8  16
ATOM     16  C   UNL     1       2.003   0.443  22.412  0.00  0.00    +0.144 C 
BRANCH  16  18
ATOM      2  F   UNL     1       7.080  -0.775  24.520  0.00  0.00    -0.205 F 
ATOM     18  C   UNL     1       3.358   0.119  22.974  0.00  0.00    -0.030 A 
ATOM     21  C   UNL     1       4.359   1.089  22.985  0.00  0.00    +0.008 A 
ATOM     22  C   UNL     1       3.614  -1.154  23.485  0.00  0.00    +0.008 A 
ATOM     26  C   UNL     1       5.617   0.788  23.508  0.00  0.00    +0.038 A 
ATOM     27  C   UNL     1       4.872  -1.456  24.007  0.00  0.00    +0.038 A 
ATOM     28  C   UNL     1       5.873  -0.484  24.019  0.00  0.00    +0.123 A 
ENDBRANCH  16  18
ENDBRANCH   8  16
TORSDOF 5
ENDMDL
MODEL 3
REMARK VINA RESULT:       9.1      3.171      6.463
REMARK  Name = 75368610
REMARK  6 active torsions:
REMARK  status: ('A' for Active; 'I' for Inactive)
REMARK    1  A    between atoms: S_1  and  C_25
REMARK    2  A    between atoms: S_1  and  C_29
REMARK    3  A    between atoms: N_7  and  C_15
REMARK    4  A    between atoms: N_8  and  C_16
REMARK    5  A    between atoms: C_15  and  C_17
REMARK    6  A    between atoms: C_16  and  C_18
REMARK                            x       y       z     vdW  Elec       q    Type
REMARK                         _______ _______ _______ _____ _____    ______ ____
ROOT
ATOM      3  O   UNL     1      -5.691   1.528  26.292  0.00  0.00    -0.252 OA
ATOM      6  N   UNL     1      -4.378   0.054  25.020  0.00  0.00    -0.278 N 
ATOM      7  N   UNL     1      -2.547  -2.003  24.446  0.00  0.00    -0.295 NA
ATOM      8  N   UNL     1      -4.458   2.211  24.401  0.00  0.00    -0.279 N 
ATOM      9  C   UNL     1      -3.630   0.104  23.780  0.00  0.00    +0.109 C 
ATOM     10  C   UNL     1      -2.304  -0.640  23.928  0.00  0.00    +0.109 C 
ATOM     11  C   UNL     1      -3.499   1.600  23.496  0.00  0.00    +0.133 C 
ATOM     12  C   UNL     1      -4.548  -1.217  25.693  0.00  0.00    +0.125 C 
ATOM     13  C   UNL     1      -3.209  -1.954  25.765  0.00  0.00    +0.104 C 
ATOM     14  C   UNL     1      -4.941   1.293  25.353  0.00  0.00    +0.305 C 
ENDROOT
BRANCH   7  15
ATOM     15  C   UNL     1      -1.289  -2.744  24.534  0.00  0.00    +0.119 C 
BRANCH  15  17
ATOM     17  C   UNL     1      -0.120  -1.925  24.067  0.00  0.00    -0.033 A 
ATOM     19  C   UNL     1       1.136  -2.112  24.644  0.00  0.00    +0.007 A 
ATOM     20  C   UNL     1      -0.292  -0.978  23.059  0.00  0.00    +0.007 A 
ATOM     23  C   UNL     1       2.222  -1.350  24.211  0.00  0.00    +0.027 A 
ATOM     24  C   UNL     1       0.794  -0.216  22.625  0.00  0.00    +0.027 A 
ATOM     25  C   UNL     1       2.051  -0.402  23.201  0.00  0.00    +0.088 A 
BRANCH  25   1
ATOM      1  S   UNL     1       3.410   0.547  22.656  0.00  0.00    -0.006 S 
ATOM      4  O   UNL     1       3.593   0.335  21.227  0.00  0.00    -0.170 OA
ATOM      5  O   UNL     1       3.247   1.900  23.171  0.00  0.00    -0.170 OA
ATOM     29  C   UNL     1       4.814  -0.180  23.471  0.00  0.00    +0.200 C 
ENDBRANCH  25   1
ENDBRANCH  15  17
ENDBRANCH   7  15
BRANCH   8  16
ATOM     16  C   UNL     1      -4.733   3.631  24.379  0.00  0.00    +0.144 C 
BRANCH  16  18
ATOM      2  F   UNL     1      -0.043   6.692  24.971  0.00  0.00    -0.205 F 
ATOM     18  C   UNL     1      -3.482   4.448  24.537  0.00  0.00    -0.030 A 
ATOM     21  C   UNL     1      -3.395   5.711  23.951  0.00  0.00    +0.008 A 
ATOM     22  C   UNL     1      -2.407   3.943  25.269  0.00  0.00    +0.008 A 
ATOM     26  C   UNL     1      -2.234   6.470  24.098  0.00  0.00    +0.038 A 
ATOM     27  C   UNL     1      -1.245   4.701  25.414  0.00  0.00    +0.038 A 
ATOM     28  C   UNL     1      -1.159   5.965  24.829  0.00  0.00    +0.123 A 
ENDBRANCH  16  18
ENDBRANCH   8  16
TORSDOF 5
ENDMDL
