MODEL 1
REMARK VINA RESULT:       4.8      0.000      0.000
REMARK  Name = 7051138
REMARK  6 active torsions:
REMARK  status: ('A' for Active; 'I' for Inactive)
REMARK    1  A    between atoms: S_1  and  C_23
REMARK    2  A    between atoms: S_1  and  C_28
REMARK    3  A    between atoms: N_9  and  C_12
REMARK    4  A    between atoms: CA_16  and  CB_19
REMARK    5  A    between atoms: CB_19  and  CG_20
REMARK    6  A    between atoms: C_21  and  C_23
REMARK                            x       y       z     vdW  Elec       q    Type
REMARK                         _______ _______ _______ _____ _____    ______ ____
ROOT
ATOM      2  O   TRP A   2      -5.806   1.559  23.497  0.00  0.00    -0.274 OA
ATOM      3  O   UNK A   1      -3.213   4.302  27.283  0.00  0.00    -0.274 OA
ATOM      7  N   UNK A   1      -3.885   2.712  24.157  0.00  0.00    -0.288 N 
ATOM      8  N   TRP A   2      -5.031   3.120  26.564  0.00  0.00    -0.302 N 
ATOM     11  C   UNK A   1      -2.961   2.956  25.278  0.00  0.00    +0.164 C 
ATOM     12  C   UNK A   1      -1.148   3.606  23.582  0.00  0.00    +0.077 C 
ATOM     13  C   UNK A   1      -1.804   3.908  24.924  0.00  0.00    +0.054 C 
ATOM     14  C   UNK A   1      -2.215   3.579  22.494  0.00  0.00    +0.041 C 
ATOM     15  C   UNK A   1      -3.326   2.589  22.809  0.00  0.00    +0.110 C 
ATOM     16  CA  TRP A   2      -5.550   1.991  25.829  0.00  0.00    +0.163 C 
ATOM     17  C   TRP A   2      -5.127   2.096  24.377  0.00  0.00    +0.237 C 
ATOM     18  C   UNK A   1      -3.733   3.563  26.448  0.00  0.00    +0.234 C 
ATOM     36  H   TRP A   2      -5.583   3.479  27.337  0.00  0.00    +0.150 HD
ENDROOT
BRANCH  12   9
ATOM      4  O   UNK A   1       0.540   2.698  25.738  0.00  0.00    -0.274 OA
ATOM      9  N   UNK A   1      -0.384   2.383  23.631  0.00  0.00    -0.311 N 
ATOM     21  C   UNK A   1       0.405   2.029  24.718  0.00  0.00    +0.235 C 
ATOM     37  H   UNK A   1      -0.485   1.728  22.862  0.00  0.00    +0.149 HD
BRANCH  21  23
ATOM     23  C   UNK A   1       1.084   0.699  24.495  0.00  0.00    +0.267 C 
BRANCH  23   1
ATOM      1  S   UNK A   1       1.949   0.633  22.964  0.00  0.00    +0.005 S 
ATOM      5  O   UNK A   1       2.186   1.991  22.497  0.00  0.00    -0.169 OA
ATOM      6  O   UNK A   1       1.270  -0.323  22.105  0.00  0.00    -0.169 OA
BRANCH   1  28
ATOM     28  C   UNK A   1       3.527  -0.045  23.387  0.00  0.00    +0.089 A 
ATOM     31  C   UNK A   1       4.634   0.783  23.403  0.00  0.00    +0.027 A 
ATOM     32  C   UNK A   1       3.623  -1.391  23.694  0.00  0.00    +0.027 A 
ATOM     33  C   UNK A   1       5.879   0.249  23.736  0.00  0.00    +0.002 A 
ATOM     34  C   UNK A   1       4.867  -1.926  24.027  0.00  0.00    +0.002 A 
ATOM     35  C   UNK A   1       5.996  -1.106  24.047  0.00  0.00    +0.000 A 
ENDBRANCH   1  28
ENDBRANCH  23   1
ENDBRANCH  21  23
ENDBRANCH  12   9
BRANCH  16  19
ATOM     19  CB  TRP A   2      -5.143   0.657  26.438  0.00  0.00    +0.069 C 
BRANCH  19  20
ATOM     10  NE1 TRP A   2      -4.210  -1.521  23.660  0.00  0.00    -0.360 N 
ATOM     20  CG  TRP A   2      -4.499  -0.249  25.423  0.00  0.00    -0.020 A 
ATOM     22  CD2 TRP A   2      -3.171  -0.710  25.459  0.00  0.00    +0.003 A 
ATOM     24  CD1 TRP A   2      -5.125  -0.749  24.324  0.00  0.00    +0.087 A 
ATOM     25  CE2 TRP A   2      -3.008  -1.515  24.331  0.00  0.00    +0.047 A 
ATOM     26  CE3 TRP A   2      -2.078  -0.532  26.330  0.00  0.00    +0.010 A 
ATOM     27  CZ2 TRP A   2      -1.801  -2.156  24.029  0.00  0.00    +0.026 A 
ATOM     29  CZ3 TRP A   2      -0.864  -1.167  26.041  0.00  0.00    +0.001 A 
ATOM     30  CH2 TRP A   2      -0.730  -1.966  24.907  0.00  0.00    +0.002 A 
ATOM     38  HE1 TRP A   2      -4.389  -2.022  22.800  0.00  0.00    +0.165 HD
ENDBRANCH  19  20
ENDBRANCH  16  19
TORSDOF 6
ENDMDL
MODEL 2
REMARK VINA RESULT:       4.9      1.463      1.877
REMARK  Name = 7051138
REMARK  6 active torsions:
REMARK  status: ('A' for Active; 'I' for Inactive)
REMARK    1  A    between atoms: S_1  and  C_23
REMARK    2  A    between atoms: S_1  and  C_28
REMARK    3  A    between atoms: N_9  and  C_12
REMARK    4  A    between atoms: CA_16  and  CB_19
REMARK    5  A    between atoms: CB_19  and  CG_20
REMARK    6  A    between atoms: C_21  and  C_23
REMARK                            x       y       z     vdW  Elec       q    Type
REMARK                         _______ _______ _______ _____ _____    ______ ____
ROOT
ATOM      2  O   TRP A   2      -4.319   4.374  23.047  0.00  0.00    -0.274 OA
ATOM      3  O   UNK A   1      -2.808   3.667  28.126  0.00  0.00    -0.274 OA
ATOM      7  N   UNK A   1      -2.604   3.936  24.571  0.00  0.00    -0.288 N 
ATOM      8  N   TRP A   2      -4.425   4.046  26.557  0.00  0.00    -0.302 N 
ATOM     11  C   UNK A   1      -2.256   3.213  25.806  0.00  0.00    +0.164 C 
ATOM     12  C   UNK A   1       0.209   3.278  25.094  0.00  0.00    +0.077 C 
ATOM     13  C   UNK A   1      -0.790   3.405  26.237  0.00  0.00    +0.054 C 
ATOM     14  C   UNK A   1      -0.184   4.233  23.974  0.00  0.00    +0.041 C 
ATOM     15  C   UNK A   1      -1.610   4.001  23.499  0.00  0.00    +0.110 C 
ATOM     16  CA  TRP A   2      -4.967   3.743  25.254  0.00  0.00    +0.163 C 
ATOM     17  C   TRP A   2      -3.946   4.092  24.189  0.00  0.00    +0.237 C 
ATOM     18  C   UNK A   1      -3.152   3.693  26.946  0.00  0.00    +0.234 C 
ATOM     36  H   TRP A   2      -5.068   4.355  27.280  0.00  0.00    +0.150 HD
ENDROOT
BRANCH  12   9
ATOM      4  O   UNK A   1      -0.604   0.901  26.512  0.00  0.00    -0.274 OA
ATOM      9  N   UNK A   1       0.319   1.913  24.637  0.00  0.00    -0.311 N 
ATOM     21  C   UNK A   1      -0.102   0.828  25.395  0.00  0.00    +0.235 C 
ATOM     37  H   UNK A   1       0.658   1.754  23.694  0.00  0.00    +0.149 HD
BRANCH  21  23
ATOM     23  C   UNK A   1       0.130  -0.474  24.667  0.00  0.00    +0.267 C 
BRANCH  23   1
ATOM      1  S   UNK A   1       0.693  -0.232  23.018  0.00  0.00    +0.005 S 
ATOM      5  O   UNK A   1       0.257   1.077  22.557  0.00  0.00    -0.169 OA
ATOM      6  O   UNK A   1       0.360  -1.421  22.250  0.00  0.00    -0.169 OA
BRANCH   1  28
ATOM     28  C   UNK A   1       2.455  -0.161  23.167  0.00  0.00    +0.089 A 
ATOM     31  C   UNK A   1       3.117   0.993  22.790  0.00  0.00    +0.027 A 
ATOM     32  C   UNK A   1       3.134  -1.261  23.658  0.00  0.00    +0.027 A 
ATOM     33  C   UNK A   1       4.506   1.049  22.907  0.00  0.00    +0.002 A 
ATOM     34  C   UNK A   1       4.524  -1.206  23.775  0.00  0.00    +0.002 A 
ATOM     35  C   UNK A   1       5.209  -0.050  23.398  0.00  0.00    +0.000 A 
ENDBRANCH   1  28
ENDBRANCH  23   1
ENDBRANCH  21  23
ENDBRANCH  12   9
BRANCH  16  19
ATOM     19  CB  TRP A   2      -5.435   2.300  25.134  0.00  0.00    +0.069 C 
BRANCH  19  20
ATOM     10  NE1 TRP A   2      -3.053   0.782  22.821  0.00  0.00    -0.360 N 
ATOM     20  CG  TRP A   2      -4.452   1.454  24.369  0.00  0.00    -0.020 A 
ATOM     22  CD2 TRP A   2      -3.986   0.186  24.757  0.00  0.00    +0.003 A 
ATOM     24  CD1 TRP A   2      -3.879   1.809  23.189  0.00  0.00    +0.087 A 
ATOM     25  CE2 TRP A   2      -3.098  -0.223  23.760  0.00  0.00    +0.047 A 
ATOM     26  CE3 TRP A   2      -4.219  -0.670  25.852  0.00  0.00    +0.010 A 
ATOM     27  CZ2 TRP A   2      -2.429  -1.452  23.804  0.00  0.00    +0.026 A 
ATOM     29  CZ3 TRP A   2      -3.556  -1.902  25.908  0.00  0.00    +0.001 A 
ATOM     30  CH2 TRP A   2      -2.675  -2.285  24.899  0.00  0.00    +0.002 A 
ATOM     38  HE1 TRP A   2      -2.488   0.763  21.983  0.00  0.00    +0.165 HD
ENDBRANCH  19  20
ENDBRANCH  16  19
TORSDOF 6
ENDMDL
MODEL 3
REMARK VINA RESULT:       5.0      2.324      6.489
REMARK  Name = 7051138
REMARK  6 active torsions:
REMARK  status: ('A' for Active; 'I' for Inactive)
REMARK    1  A    between atoms: S_1  and  C_23
REMARK    2  A    between atoms: S_1  and  C_28
REMARK    3  A    between atoms: N_9  and  C_12
REMARK    4  A    between atoms: CA_16  and  CB_19
REMARK    5  A    between atoms: CB_19  and  CG_20
REMARK    6  A    between atoms: C_21  and  C_23
REMARK                            x       y       z     vdW  Elec       q    Type
REMARK                         _______ _______ _______ _____ _____    ______ ____
ROOT
ATOM      2  O   TRP A   2      -0.864  -1.591  22.306  0.00  0.00    -0.274 OA
ATOM      3  O   UNK A   1      -1.102  -1.070  27.621  0.00  0.00    -0.274 OA
ATOM      7  N   UNK A   1      -2.118  -1.038  24.198  0.00  0.00    -0.288 N 
ATOM      8  N   TRP A   2       0.056  -1.548  25.711  0.00  0.00    -0.302 N 
ATOM     11  C   UNK A   1      -2.074  -0.370  25.509  0.00  0.00    +0.164 C 
ATOM     12  C   UNK A   1      -4.616  -0.041  25.376  0.00  0.00    +0.077 C 
ATOM     13  C   UNK A   1      -3.421  -0.390  26.255  0.00  0.00    +0.054 C 
ATOM     14  C   UNK A   1      -4.627  -0.953  24.155  0.00  0.00    +0.041 C 
ATOM     15  C   UNK A   1      -3.321  -0.884  23.378  0.00  0.00    +0.110 C 
ATOM     16  CA  TRP A   2       0.339  -1.224  24.333  0.00  0.00    +0.163 C 
ATOM     17  C   TRP A   2      -0.931  -1.348  23.514  0.00  0.00    +0.237 C 
ATOM     18  C   UNK A   1      -1.033  -1.053  26.394  0.00  0.00    +0.234 C 
ATOM     36  H   TRP A   2       0.787  -1.997  26.254  0.00  0.00    +0.150 HD
ENDROOT
BRANCH  12   9
ATOM      4  O   UNK A   1      -6.086   2.084  26.657  0.00  0.00    -0.274 OA
ATOM      9  N   UNK A   1      -4.615   1.356  25.014  0.00  0.00    -0.311 N 
ATOM     21  C   UNK A   1      -5.361   2.311  25.694  0.00  0.00    +0.235 C 
ATOM     37  H   UNK A   1      -3.991   1.656  24.272  0.00  0.00    +0.149 HD
BRANCH  21  23
ATOM     23  C   UNK A   1      -5.165   3.686  25.102  0.00  0.00    +0.267 C 
BRANCH  23   1
ATOM      1  S   UNK A   1      -3.958   3.701  23.821  0.00  0.00    +0.005 S 
ATOM      5  O   UNK A   1      -3.861   5.049  23.280  0.00  0.00    -0.169 OA
ATOM      6  O   UNK A   1      -4.227   2.580  22.936  0.00  0.00    -0.169 OA
BRANCH   1  28
ATOM     28  C   UNK A   1      -2.434   3.375  24.658  0.00  0.00    +0.089 A 
ATOM     31  C   UNK A   1      -1.359   2.888  23.936  0.00  0.00    +0.027 A 
ATOM     32  C   UNK A   1      -2.347   3.614  26.018  0.00  0.00    +0.027 A 
ATOM     33  C   UNK A   1      -0.157   2.631  24.597  0.00  0.00    +0.002 A 
ATOM     34  C   UNK A   1      -1.145   3.356  26.679  0.00  0.00    +0.002 A 
ATOM     35  C   UNK A   1      -0.051   2.863  25.967  0.00  0.00    +0.000 A 
ENDBRANCH   1  28
ENDBRANCH  23   1
ENDBRANCH  21  23
ENDBRANCH  12   9
BRANCH  16  19
ATOM     19  CB  TRP A   2       0.982   0.145  24.172  0.00  0.00    +0.069 C 
BRANCH  19  20
ATOM     10  NE1 TRP A   2       3.139   0.149  21.225  0.00  0.00    -0.360 N 
ATOM     20  CG  TRP A   2       2.087   0.128  23.149  0.00  0.00    -0.020 A 
ATOM     22  CD2 TRP A   2       3.462   0.043  23.430  0.00  0.00    +0.003 A 
ATOM     24  CD1 TRP A   2       1.899   0.192  21.805  0.00  0.00    +0.087 A 
ATOM     25  CE2 TRP A   2       4.113   0.058  22.194  0.00  0.00    +0.047 A 
ATOM     26  CE3 TRP A   2       4.237  -0.046  24.603  0.00  0.00    +0.010 A 
ATOM     27  CZ2 TRP A   2       5.505  -0.012  22.074  0.00  0.00    +0.026 A 
ATOM     29  CZ3 TRP A   2       5.631  -0.117  24.498  0.00  0.00    +0.001 A 
ATOM     30  CH2 TRP A   2       6.253  -0.100  23.251  0.00  0.00    +0.002 A 
ATOM     38  HE1 TRP A   2       3.316   0.182  20.231  0.00  0.00    +0.165 HD
ENDBRANCH  19  20
ENDBRANCH  16  19
TORSDOF 6
ENDMDL
MODEL 4
REMARK VINA RESULT:       5.1      2.429      3.191
REMARK  Name = 7051138
REMARK  6 active torsions:
REMARK  status: ('A' for Active; 'I' for Inactive)
REMARK    1  A    between atoms: S_1  and  C_23
REMARK    2  A    between atoms: S_1  and  C_28
REMARK    3  A    between atoms: N_9  and  C_12
REMARK    4  A    between atoms: CA_16  and  CB_19
REMARK    5  A    between atoms: CB_19  and  CG_20
REMARK    6  A    between atoms: C_21  and  C_23
REMARK                            x       y       z     vdW  Elec       q    Type
REMARK                         _______ _______ _______ _____ _____    ______ ____
ROOT
ATOM      2  O   TRP A   2      -4.323   0.405  22.831  0.00  0.00    -0.274 OA
ATOM      3  O   UNK A   1      -6.582   3.240  26.760  0.00  0.00    -0.274 OA
ATOM      7  N   UNK A   1      -4.386   2.378  24.078  0.00  0.00    -0.288 N 
ATOM      8  N   TRP A   2      -6.414   1.332  25.516  0.00  0.00    -0.302 N 
ATOM     11  C   UNK A   1      -4.574   2.935  25.429  0.00  0.00    +0.164 C 
ATOM     12  C   UNK A   1      -3.251   5.012  24.707  0.00  0.00    +0.077 C 
ATOM     13  C   UNK A   1      -4.443   4.468  25.485  0.00  0.00    +0.054 C 
ATOM     14  C   UNK A   1      -3.309   4.498  23.273  0.00  0.00    +0.041 C 
ATOM     15  C   UNK A   1      -3.371   2.980  23.213  0.00  0.00    +0.110 C 
ATOM     16  CA  TRP A   2      -5.567   0.360  24.865  0.00  0.00    +0.163 C 
ATOM     17  C   TRP A   2      -4.736   1.047  23.800  0.00  0.00    +0.237 C 
ATOM     18  C   UNK A   1      -5.962   2.559  25.945  0.00  0.00    +0.234 C 
ATOM     36  H   TRP A   2      -7.325   1.025  25.845  0.00  0.00    +0.150 HD
ENDROOT
BRANCH  12   9
ATOM      4  O   UNK A   1      -0.609   5.170  23.562  0.00  0.00    -0.274 OA
ATOM      9  N   UNK A   1      -2.004   4.687  25.355  0.00  0.00    -0.311 N 
ATOM     21  C   UNK A   1      -0.774   4.795  24.719  0.00  0.00    +0.235 C 
ATOM     37  H   UNK A   1      -2.030   4.433  26.337  0.00  0.00    +0.149 HD
BRANCH  21  23
ATOM     23  C   UNK A   1       0.357   4.394  25.636  0.00  0.00    +0.267 C 
BRANCH  23   1
ATOM      1  S   UNK A   1       0.179   2.753  26.245  0.00  0.00    +0.005 S 
ATOM      5  O   UNK A   1      -1.173   2.583  26.757  0.00  0.00    -0.169 OA
ATOM      6  O   UNK A   1       1.320   2.464  27.098  0.00  0.00    -0.169 OA
BRANCH   1  28
ATOM     28  C   UNK A   1       0.311   1.738  24.802  0.00  0.00    +0.089 A 
ATOM     31  C   UNK A   1      -0.843   1.320  24.164  0.00  0.00    +0.027 A 
ATOM     32  C   UNK A   1       1.565   1.381  24.341  0.00  0.00    +0.027 A 
ATOM     33  C   UNK A   1      -0.739   0.519  23.026  0.00  0.00    +0.002 A 
ATOM     34  C   UNK A   1       1.669   0.580  23.203  0.00  0.00    +0.002 A 
ATOM     35  C   UNK A   1       0.516   0.149  22.547  0.00  0.00    +0.000 A 
ENDBRANCH   1  28
ENDBRANCH  23   1
ENDBRANCH  21  23
ENDBRANCH  12   9
BRANCH  16  19
ATOM     19  CB  TRP A   2      -4.698  -0.412  25.847  0.00  0.00    +0.069 C 
BRANCH  19  20
ATOM     10  NE1 TRP A   2      -3.156  -3.025  23.815  0.00  0.00    -0.360 N 
ATOM     20  CG  TRP A   2      -3.818  -1.414  25.147  0.00  0.00    -0.020 A 
ATOM     22  CD2 TRP A   2      -2.440  -1.589  25.365  0.00  0.00    +0.003 A 
ATOM     24  CD1 TRP A   2      -4.246  -2.293  24.202  0.00  0.00    +0.087 A 
ATOM     25  CE2 TRP A   2      -2.039  -2.617  24.509  0.00  0.00    +0.047 A 
ATOM     26  CE3 TRP A   2      -1.479  -0.987  26.200  0.00  0.00    +0.010 A 
ATOM     27  CZ2 TRP A   2      -0.718  -3.074  24.447  0.00  0.00    +0.026 A 
ATOM     29  CZ3 TRP A   2      -0.153  -1.434  26.148  0.00  0.00    +0.001 A 
ATOM     30  CH2 TRP A   2       0.219  -2.462  25.284  0.00  0.00    +0.002 A 
ATOM     38  HE1 TRP A   2      -3.167  -3.758  23.119  0.00  0.00    +0.165 HD
ENDBRANCH  19  20
ENDBRANCH  16  19
TORSDOF 6
ENDMDL
MODEL 5
REMARK VINA RESULT:       5.2      1.537      4.073
REMARK  Name = 7051138
REMARK  6 active torsions:
REMARK  status: ('A' for Active; 'I' for Inactive)
REMARK    1  A    between atoms: S_1  and  C_23
REMARK    2  A    between atoms: S_1  and  C_28
REMARK    3  A    between atoms: N_9  and  C_12
REMARK    4  A    between atoms: CA_16  and  CB_19
REMARK    5  A    between atoms: CB_19  and  CG_20
REMARK    6  A    between atoms: C_21  and  C_23
REMARK                            x       y       z     vdW  Elec       q    Type
REMARK                         _______ _______ _______ _____ _____    ______ ____
ROOT
ATOM      2  O   TRP A   2      -3.871   2.332  26.452  0.00  0.00    -0.274 OA
ATOM      3  O   UNK A   1      -4.741  -2.102  23.595  0.00  0.00    -0.274 OA
ATOM      7  N   UNK A   1      -3.035   0.339  25.565  0.00  0.00    -0.288 N 
ATOM      8  N   TRP A   2      -5.455  -0.114  24.465  0.00  0.00    -0.302 N 
ATOM     11  C   UNK A   1      -3.053  -0.548  24.390  0.00  0.00    +0.164 C 
ATOM     12  C   UNK A   1      -0.772  -1.476  25.112  0.00  0.00    +0.077 C 
ATOM     13  C   UNK A   1      -2.150  -1.786  24.541  0.00  0.00    +0.054 C 
ATOM     14  C   UNK A   1      -0.930  -0.723  26.428  0.00  0.00    +0.041 C 
ATOM     15  C   UNK A   1      -1.766   0.537  26.268  0.00  0.00    +0.110 C 
ATOM     16  CA  TRP A   2      -5.172   1.271  24.759  0.00  0.00    +0.163 C 
ATOM     17  C   TRP A   2      -3.993   1.356  25.707  0.00  0.00    +0.237 C 
ATOM     18  C   UNK A   1      -4.481  -1.030  24.140  0.00  0.00    +0.234 C 
ATOM     36  H   TRP A   2      -6.422  -0.378  24.301  0.00  0.00    +0.150 HD
ENDROOT
BRANCH  12   9
ATOM      4  O   UNK A   1       0.098   1.267  25.302  0.00  0.00    -0.274 OA
ATOM      9  N   UNK A   1       0.043  -0.756  24.164  0.00  0.00    -0.311 N 
ATOM     21  C   UNK A   1       0.413   0.571  24.342  0.00  0.00    +0.235 C 
ATOM     37  H   UNK A   1       0.413  -1.268  23.369  0.00  0.00    +0.149 HD
BRANCH  21  23
ATOM     23  C   UNK A   1       1.267   1.063  23.199  0.00  0.00    +0.267 C 
BRANCH  23   1
ATOM      1  S   UNK A   1       2.076  -0.250  22.350  0.00  0.00    +0.005 S 
ATOM      5  O   UNK A   1       2.272   0.136  20.961  0.00  0.00    -0.169 OA
ATOM      6  O   UNK A   1       1.382  -1.487  22.670  0.00  0.00    -0.169 OA
BRANCH   1  28
ATOM     28  C   UNK A   1       3.680  -0.322  23.093  0.00  0.00    +0.089 A 
ATOM     31  C   UNK A   1       4.107  -1.510  23.659  0.00  0.00    +0.027 A 
ATOM     32  C   UNK A   1       4.474   0.810  23.093  0.00  0.00    +0.027 A 
ATOM     33  C   UNK A   1       5.372  -1.567  24.245  0.00  0.00    +0.002 A 
ATOM     34  C   UNK A   1       5.739   0.754  23.680  0.00  0.00    +0.002 A 
ATOM     35  C   UNK A   1       6.187  -0.435  24.257  0.00  0.00    +0.000 A 
ENDBRANCH   1  28
ENDBRANCH  23   1
ENDBRANCH  21  23
ENDBRANCH  12   9
BRANCH  16  19
ATOM     19  CB  TRP A   2      -4.946   2.102  23.504  0.00  0.00    +0.069 C 
BRANCH  19  20
ATOM     10  NE1 TRP A   2      -1.429   2.394  22.568  0.00  0.00    -0.360 N 
ATOM     20  CG  TRP A   2      -3.492   2.439  23.310  0.00  0.00    -0.020 A 
ATOM     22  CD2 TRP A   2      -2.789   3.454  23.983  0.00  0.00    +0.003 A 
ATOM     24  CD1 TRP A   2      -2.656   1.798  22.451  0.00  0.00    +0.087 A 
ATOM     25  CE2 TRP A   2      -1.481   3.409  23.496  0.00  0.00    +0.047 A 
ATOM     26  CE3 TRP A   2      -3.117   4.416  24.958  0.00  0.00    +0.010 A 
ATOM     27  CZ2 TRP A   2      -0.480   4.281  23.939  0.00  0.00    +0.026 A 
ATOM     29  CZ3 TRP A   2      -2.126   5.295  25.411  0.00  0.00    +0.001 A 
ATOM     30  CH2 TRP A   2      -0.828   5.227  24.908  0.00  0.00    +0.002 A 
ATOM     38  HE1 TRP A   2      -0.605   2.130  22.046  0.00  0.00    +0.165 HD
ENDBRANCH  19  20
ENDBRANCH  16  19
TORSDOF 6
ENDMDL
MODEL 6
REMARK VINA RESULT:       5.7      2.450      4.376
REMARK  Name = 7051138
REMARK  6 active torsions:
REMARK  status: ('A' for Active; 'I' for Inactive)
REMARK    1  A    between atoms: S_1  and  C_23
REMARK    2  A    between atoms: S_1  and  C_28
REMARK    3  A    between atoms: N_9  and  C_12
REMARK    4  A    between atoms: CA_16  and  CB_19
REMARK    5  A    between atoms: CB_19  and  CG_20
REMARK    6  A    between atoms: C_21  and  C_23
REMARK                            x       y       z     vdW  Elec       q    Type
REMARK                         _______ _______ _______ _____ _____    ______ ____
ROOT
ATOM      2  O   TRP A   2      -6.071   2.317  27.117  0.00  0.00    -0.274 OA
ATOM      3  O   UNK A   1      -3.834   4.014  22.569  0.00  0.00    -0.274 OA
ATOM      7  N   UNK A   1      -4.943   1.797  25.139  0.00  0.00    -0.288 N 
ATOM      8  N   TRP A   2      -4.898   4.428  24.547  0.00  0.00    -0.302 N 
ATOM     11  C   UNK A   1      -3.879   2.233  24.218  0.00  0.00    +0.164 C 
ATOM     12  C   UNK A   1      -3.645  -0.192  23.413  0.00  0.00    +0.077 C 
ATOM     13  C   UNK A   1      -3.671   1.281  23.026  0.00  0.00    +0.054 C 
ATOM     14  C   UNK A   1      -4.909  -0.529  24.196  0.00  0.00    +0.041 C 
ATOM     15  C   UNK A   1      -5.083   0.366  25.414  0.00  0.00    +0.110 C 
ATOM     16  CA  TRP A   2      -5.043   4.125  25.952  0.00  0.00    +0.163 C 
ATOM     17  C   TRP A   2      -5.445   2.673  26.116  0.00  0.00    +0.237 C 
ATOM     18  C   UNK A   1      -4.221   3.616  23.666  0.00  0.00    +0.234 C 
ATOM     36  H   TRP A   2      -5.134   5.366  24.236  0.00  0.00    +0.150 HD
ENDROOT
BRANCH  12   9
ATOM      4  O   UNK A   1      -3.476  -1.225  26.101  0.00  0.00    -0.274 OA
ATOM      9  N   UNK A   1      -2.445  -0.527  24.141  0.00  0.00    -0.311 N 
ATOM     21  C   UNK A   1      -2.464  -1.020  25.440  0.00  0.00    +0.235 C 
ATOM     37  H   UNK A   1      -1.558  -0.457  23.653  0.00  0.00    +0.149 HD
BRANCH  21  23
ATOM     23  C   UNK A   1      -1.067  -1.285  25.947  0.00  0.00    +0.267 C 
BRANCH  23   1
ATOM      1  S   UNK A   1      -0.183  -2.416  24.929  0.00  0.00    +0.005 S 
ATOM      5  O   UNK A   1      -1.121  -3.074  24.032  0.00  0.00    -0.169 OA
ATOM      6  O   UNK A   1       0.683  -3.210  25.785  0.00  0.00    -0.169 OA
BRANCH   1  28
ATOM     28  C   UNK A   1       0.846  -1.384  23.926  0.00  0.00    +0.089 A 
ATOM     31  C   UNK A   1       2.210  -1.369  24.154  0.00  0.00    +0.027 A 
ATOM     32  C   UNK A   1       0.266  -0.611  22.936  0.00  0.00    +0.027 A 
ATOM     33  C   UNK A   1       3.022  -0.555  23.363  0.00  0.00    +0.002 A 
ATOM     34  C   UNK A   1       1.078   0.204  22.147  0.00  0.00    +0.002 A 
ATOM     35  C   UNK A   1       2.456   0.233  22.361  0.00  0.00    +0.000 A 
ENDBRANCH   1  28
ENDBRANCH  23   1
ENDBRANCH  21  23
ENDBRANCH  12   9
BRANCH  16  19
ATOM     19  CB  TRP A   2      -3.794   4.458  26.755  0.00  0.00    +0.069 C 
BRANCH  19  20
ATOM     10  NE1 TRP A   2      -1.156   5.594  24.501  0.00  0.00    -0.360 N 
ATOM     20  CG  TRP A   2      -2.596   4.662  25.867  0.00  0.00    -0.020 A 
ATOM     22  CD2 TRP A   2      -1.593   3.709  25.611  0.00  0.00    +0.003 A 
ATOM     24  CD1 TRP A   2      -2.321   5.806  25.187  0.00  0.00    +0.087 A 
ATOM     25  CE2 TRP A   2      -0.689   4.321  24.742  0.00  0.00    +0.047 A 
ATOM     26  CE3 TRP A   2      -1.349   2.384  26.023  0.00  0.00    +0.010 A 
ATOM     27  CZ2 TRP A   2       0.454   3.671  24.261  0.00  0.00    +0.026 A 
ATOM     29  CZ3 TRP A   2      -0.210   1.721  25.550  0.00  0.00    +0.001 A 
ATOM     30  CH2 TRP A   2       0.676   2.357  24.682  0.00  0.00    +0.002 A 
ATOM     38  HE1 TRP A   2      -0.701   6.273  23.907  0.00  0.00    +0.165 HD
ENDBRANCH  19  20
ENDBRANCH  16  19
TORSDOF 6
ENDMDL
MODEL 7
REMARK VINA RESULT:       6.2      1.688      3.801
REMARK  Name = 7051138
REMARK  6 active torsions:
REMARK  status: ('A' for Active; 'I' for Inactive)
REMARK    1  A    between atoms: S_1  and  C_23
REMARK    2  A    between atoms: S_1  and  C_28
REMARK    3  A    between atoms: N_9  and  C_12
REMARK    4  A    between atoms: CA_16  and  CB_19
REMARK    5  A    between atoms: CB_19  and  CG_20
REMARK    6  A    between atoms: C_21  and  C_23
REMARK                            x       y       z     vdW  Elec       q    Type
REMARK                         _______ _______ _______ _____ _____    ______ ____
ROOT
ATOM      2  O   TRP A   2      -5.313   1.016  26.986  0.00  0.00    -0.274 OA
ATOM      3  O   UNK A   1      -4.408   4.150  22.750  0.00  0.00    -0.274 OA
ATOM      7  N   UNK A   1      -4.388   1.265  24.855  0.00  0.00    -0.288 N 
ATOM      8  N   TRP A   2      -5.240   3.825  24.853  0.00  0.00    -0.302 N 
ATOM     11  C   UNK A   1      -3.659   2.187  23.967  0.00  0.00    +0.164 C 
ATOM     12  C   UNK A   1      -2.817   0.163  22.633  0.00  0.00    +0.077 C 
ATOM     13  C   UNK A   1      -3.350   1.589  22.582  0.00  0.00    +0.054 C 
ATOM     14  C   UNK A   1      -3.785  -0.708  23.426  0.00  0.00    +0.041 C 
ATOM     15  C   UNK A   1      -4.041  -0.156  24.820  0.00  0.00    +0.110 C 
ATOM     16  CA  TRP A   2      -5.074   3.242  26.164  0.00  0.00    +0.163 C 
ATOM     17  C   TRP A   2      -4.982   1.734  26.038  0.00  0.00    +0.237 C 
ATOM     18  C   UNK A   1      -4.486   3.455  23.762  0.00  0.00    +0.234 C 
ATOM     36  H   TRP A   2      -5.795   4.672  24.776  0.00  0.00    +0.150 HD
ENDROOT
BRANCH  12   9
ATOM      4  O   UNK A   1      -1.466  -2.133  23.739  0.00  0.00    -0.274 OA
ATOM      9  N   UNK A   1      -1.478   0.118  23.168  0.00  0.00    -0.311 N 
ATOM     21  C   UNK A   1      -0.910  -1.041  23.682  0.00  0.00    +0.235 C 
ATOM     37  H   UNK A   1      -0.910   0.957  23.101  0.00  0.00    +0.149 HD
BRANCH  21  23
ATOM     23  C   UNK A   1       0.499  -0.796  24.166  0.00  0.00    +0.267 C 
BRANCH  23   1
ATOM      1  S   UNK A   1       1.415   0.237  23.074  0.00  0.00    +0.005 S 
ATOM      5  O   UNK A   1       1.237   1.624  23.475  0.00  0.00    -0.169 OA
ATOM      6  O   UNK A   1       1.113  -0.171  21.711  0.00  0.00    -0.169 OA
BRANCH   1  28
ATOM     28  C   UNK A   1       3.104  -0.178  23.400  0.00  0.00    +0.089 A 
ATOM     31  C   UNK A   1       4.076   0.796  23.262  0.00  0.00    +0.027 A 
ATOM     32  C   UNK A   1       3.419  -1.469  23.787  0.00  0.00    +0.027 A 
ATOM     33  C   UNK A   1       5.408   0.469  23.519  0.00  0.00    +0.002 A 
ATOM     34  C   UNK A   1       4.751  -1.796  24.043  0.00  0.00    +0.002 A 
ATOM     35  C   UNK A   1       5.745  -0.827  23.908  0.00  0.00    +0.000 A 
ENDBRANCH   1  28
ENDBRANCH  23   1
ENDBRANCH  21  23
ENDBRANCH  12   9
BRANCH  16  19
ATOM     19  CB  TRP A   2      -3.882   3.818  26.914  0.00  0.00    +0.069 C 
BRANCH  19  20
ATOM     10  NE1 TRP A   2      -0.816   2.241  25.711  0.00  0.00    -0.360 N 
ATOM     20  CG  TRP A   2      -2.575   3.419  26.280  0.00  0.00    -0.020 A 
ATOM     22  CD2 TRP A   2      -1.793   4.227  25.436  0.00  0.00    +0.003 A 
ATOM     24  CD1 TRP A   2      -1.973   2.212  26.442  0.00  0.00    +0.087 A 
ATOM     25  CE2 TRP A   2      -0.681   3.460  25.085  0.00  0.00    +0.047 A 
ATOM     26  CE3 TRP A   2      -1.904   5.535  24.924  0.00  0.00    +0.010 A 
ATOM     27  CZ2 TRP A   2       0.331   3.939  24.245  0.00  0.00    +0.026 A 
ATOM     29  CZ3 TRP A   2      -0.899   6.027  24.083  0.00  0.00    +0.001 A 
ATOM     30  CH2 TRP A   2       0.201   5.239  23.750  0.00  0.00    +0.002 A 
ATOM     38  HE1 TRP A   2      -0.157   1.478  25.637  0.00  0.00    +0.165 HD
ENDBRANCH  19  20
ENDBRANCH  16  19
TORSDOF 6
ENDMDL
MODEL 8
REMARK VINA RESULT:       7.7      2.478      6.469
REMARK  Name = 7051138
REMARK  6 active torsions:
REMARK  status: ('A' for Active; 'I' for Inactive)
REMARK    1  A    between atoms: S_1  and  C_23
REMARK    2  A    between atoms: S_1  and  C_28
REMARK    3  A    between atoms: N_9  and  C_12
REMARK    4  A    between atoms: CA_16  and  CB_19
REMARK    5  A    between atoms: CB_19  and  CG_20
REMARK    6  A    between atoms: C_21  and  C_23
REMARK                            x       y       z     vdW  Elec       q    Type
REMARK                         _______ _______ _______ _____ _____    ______ ____
ROOT
ATOM      2  O   TRP A   2       0.926   2.201  26.197  0.00  0.00    -0.274 OA
ATOM      3  O   UNK A   1      -1.824   6.047  23.703  0.00  0.00    -0.274 OA
ATOM      7  N   UNK A   1      -0.990   3.533  26.098  0.00  0.00    -0.288 N 
ATOM      8  N   TRP A   2      -0.008   4.670  23.858  0.00  0.00    -0.302 N 
ATOM     11  C   UNK A   1      -1.983   4.136  25.192  0.00  0.00    +0.164 C 
ATOM     12  C   UNK A   1      -3.639   4.238  27.150  0.00  0.00    +0.077 C 
ATOM     13  C   UNK A   1      -3.071   4.943  25.924  0.00  0.00    +0.054 C 
ATOM     14  C   UNK A   1      -2.497   3.849  28.081  0.00  0.00    +0.041 C 
ATOM     15  C   UNK A   1      -1.452   2.995  27.378  0.00  0.00    +0.110 C 
ATOM     16  CA  TRP A   2       0.517   3.358  24.152  0.00  0.00    +0.163 C 
ATOM     17  C   TRP A   2       0.207   3.001  25.592  0.00  0.00    +0.237 C 
ATOM     18  C   UNK A   1      -1.275   5.073  24.215  0.00  0.00    +0.234 C 
ATOM     36  H   TRP A   2       0.501   5.249  23.196  0.00  0.00    +0.150 HD
ENDROOT
BRANCH  12   9
ATOM      4  O   UNK A   1      -6.227   4.303  25.879  0.00  0.00    -0.274 OA
ATOM      9  N   UNK A   1      -4.453   3.106  26.779  0.00  0.00    -0.311 N 
ATOM     21  C   UNK A   1      -5.693   3.237  26.168  0.00  0.00    +0.235 C 
ATOM     37  H   UNK A   1      -4.066   2.177  26.915  0.00  0.00    +0.149 HD
BRANCH  21  23
ATOM     23  C   UNK A   1      -6.316   1.890  25.893  0.00  0.00    +0.267 C 
BRANCH  23   1
ATOM      1  S   UNK A   1      -5.841   1.237  24.329  0.00  0.00    +0.005 S 
ATOM      5  O   UNK A   1      -5.020   2.219  23.637  0.00  0.00    -0.169 OA
ATOM      6  O   UNK A   1      -7.030   0.700  23.686  0.00  0.00    -0.169 OA
BRANCH   1  28
ATOM     28  C   UNK A   1      -4.783  -0.123  24.731  0.00  0.00    +0.089 A 
ATOM     31  C   UNK A   1      -4.005  -0.057  25.873  0.00  0.00    +0.027 A 
ATOM     32  C   UNK A   1      -4.753  -1.225  23.895  0.00  0.00    +0.027 A 
ATOM     33  C   UNK A   1      -3.170  -1.129  26.189  0.00  0.00    +0.002 A 
ATOM     34  C   UNK A   1      -3.918  -2.297  24.211  0.00  0.00    +0.002 A 
ATOM     35  C   UNK A   1      -3.126  -2.248  25.358  0.00  0.00    +0.000 A 
ENDBRANCH   1  28
ENDBRANCH  23   1
ENDBRANCH  21  23
ENDBRANCH  12   9
BRANCH  16  19
ATOM     19  CB  TRP A   2       0.013   2.295  23.187  0.00  0.00    +0.069 C 
BRANCH  19  20
ATOM     10  NE1 TRP A   2       1.024  -1.149  23.861  0.00  0.00    -0.360 N 
ATOM     20  CG  TRP A   2       0.697   0.971  23.405  0.00  0.00    -0.020 A 
ATOM     22  CD2 TRP A   2       2.075   0.729  23.274  0.00  0.00    +0.003 A 
ATOM     24  CD1 TRP A   2       0.064  -0.177  23.764  0.00  0.00    +0.087 A 
ATOM     25  CE2 TRP A   2       2.262  -0.623  23.567  0.00  0.00    +0.047 A 
ATOM     26  CE3 TRP A   2       3.197   1.511  22.936  0.00  0.00    +0.010 A 
ATOM     27  CZ2 TRP A   2       3.520  -1.235  23.540  0.00  0.00    +0.026 A 
ATOM     29  CZ3 TRP A   2       4.462   0.912  22.904  0.00  0.00    +0.001 A 
ATOM     30  CH2 TRP A   2       4.619  -0.440  23.202  0.00  0.00    +0.002 A 
ATOM     38  HE1 TRP A   2       0.850  -2.113  24.110  0.00  0.00    +0.165 HD
ENDBRANCH  19  20
ENDBRANCH  16  19
TORSDOF 6
ENDMDL
MODEL 9
REMARK VINA RESULT:       7.9      2.263      5.532
REMARK  Name = 7051138
REMARK  6 active torsions:
REMARK  status: ('A' for Active; 'I' for Inactive)
REMARK    1  A    between atoms: S_1  and  C_23
REMARK    2  A    between atoms: S_1  and  C_28
REMARK    3  A    between atoms: N_9  and  C_12
REMARK    4  A    between atoms: CA_16  and  CB_19
REMARK    5  A    between atoms: CB_19  and  CG_20
REMARK    6  A    between atoms: C_21  and  C_23
REMARK                            x       y       z     vdW  Elec       q    Type
REMARK                         _______ _______ _______ _____ _____    ______ ____
ROOT
ATOM      2  O   TRP A   2      -1.363   3.853  27.268  0.00  0.00    -0.274 OA
ATOM      3  O   UNK A   1      -1.689   3.134  21.981  0.00  0.00    -0.274 OA
ATOM      7  N   UNK A   1      -2.682   3.363  25.404  0.00  0.00    -0.288 N 
ATOM      8  N   TRP A   2      -0.474   3.561  23.867  0.00  0.00    -0.302 N 
ATOM     11  C   UNK A   1      -2.720   2.637  24.122  0.00  0.00    +0.164 C 
ATOM     12  C   UNK A   1      -5.282   2.599  24.273  0.00  0.00    +0.077 C 
ATOM     13  C   UNK A   1      -4.061   2.775  23.378  0.00  0.00    +0.054 C 
ATOM     14  C   UNK A   1      -5.184   3.559  25.453  0.00  0.00    +0.041 C 
ATOM     15  C   UNK A   1      -3.889   3.379  26.230  0.00  0.00    +0.110 C 
ATOM     16  CA  TRP A   2      -0.220   3.268  25.258  0.00  0.00    +0.163 C 
ATOM     17  C   TRP A   2      -1.464   3.567  26.072  0.00  0.00    +0.237 C 
ATOM     18  C   UNK A   1      -1.615   3.162  23.208  0.00  0.00    +0.234 C 
ATOM     36  H   TRP A   2       0.300   3.902  23.304  0.00  0.00    +0.150 HD
ENDROOT
BRANCH  12   9
ATOM      4  O   UNK A   1      -3.853   0.305  23.267  0.00  0.00    -0.274 OA
ATOM      9  N   UNK A   1      -5.435   1.228  24.695  0.00  0.00    -0.311 N 
ATOM     21  C   UNK A   1      -4.698   0.184  24.148  0.00  0.00    +0.235 C 
ATOM     37  H   UNK A   1      -6.062   1.035  25.470  0.00  0.00    +0.149 HD
BRANCH  21  23
ATOM     23  C   UNK A   1      -5.062  -1.137  24.781  0.00  0.00    +0.267 C 
BRANCH  23   1
ATOM      1  S   UNK A   1      -4.059  -2.461  24.200  0.00  0.00    +0.005 S 
ATOM      5  O   UNK A   1      -3.885  -2.325  22.762  0.00  0.00    -0.169 OA
ATOM      6  O   UNK A   1      -4.581  -3.698  24.756  0.00  0.00    -0.169 OA
BRANCH   1  28
ATOM     28  C   UNK A   1      -2.478  -2.162  24.937  0.00  0.00    +0.089 A 
ATOM     31  C   UNK A   1      -1.366  -2.809  24.431  0.00  0.00    +0.027 A 
ATOM     32  C   UNK A   1      -2.387  -1.287  26.005  0.00  0.00    +0.027 A 
ATOM     33  C   UNK A   1      -0.119  -2.574  25.012  0.00  0.00    +0.002 A 
ATOM     34  C   UNK A   1      -1.140  -1.052  26.587  0.00  0.00    +0.002 A 
ATOM     35  C   UNK A   1      -0.007  -1.697  26.090  0.00  0.00    +0.000 A 
ENDBRANCH   1  28
ENDBRANCH  23   1
ENDBRANCH  21  23
ENDBRANCH  12   9
BRANCH  16  19
ATOM     19  CB  TRP A   2       0.267   1.844  25.478  0.00  0.00    +0.069 C 
BRANCH  19  20
ATOM     10  NE1 TRP A   2      -0.005  -0.048  22.366  0.00  0.00    -0.360 N 
ATOM     20  CG  TRP A   2       0.442   1.105  24.177  0.00  0.00    -0.020 A 
ATOM     22  CD2 TRP A   2       1.657   0.920  23.496  0.00  0.00    +0.003 A 
ATOM     24  CD1 TRP A   2      -0.565   0.513  23.482  0.00  0.00    +0.087 A 
ATOM     25  CE2 TRP A   2       1.352   0.186  22.348  0.00  0.00    +0.047 A 
ATOM     26  CE3 TRP A   2       2.996   1.296  23.725  0.00  0.00    +0.010 A 
ATOM     27  CZ2 TRP A   2       2.323  -0.193  21.414  0.00  0.00    +0.026 A 
ATOM     29  CZ3 TRP A   2       3.977   0.924  22.799  0.00  0.00    +0.001 A 
ATOM     30  CH2 TRP A   2       3.644   0.190  21.662  0.00  0.00    +0.002 A 
ATOM     38  HE1 TRP A   2      -0.512  -0.556  21.655  0.00  0.00    +0.165 HD
ENDBRANCH  19  20
ENDBRANCH  16  19
TORSDOF 6
ENDMDL
MODEL 10
REMARK VINA RESULT:       8.2      2.492      6.452
REMARK  Name = 7051138
REMARK  6 active torsions:
REMARK  status: ('A' for Active; 'I' for Inactive)
REMARK    1  A    between atoms: S_1  and  C_23
REMARK    2  A    between atoms: S_1  and  C_28
REMARK    3  A    between atoms: N_9  and  C_12
REMARK    4  A    between atoms: CA_16  and  CB_19
REMARK    5  A    between atoms: CB_19  and  CG_20
REMARK    6  A    between atoms: C_21  and  C_23
REMARK                            x       y       z     vdW  Elec       q    Type
REMARK                         _______ _______ _______ _____ _____    ______ ____
ROOT
ATOM      2  O   TRP A   2      -0.214   1.644  27.370  0.00  0.00    -0.274 OA
ATOM      3  O   UNK A   1       0.119   4.603  22.931  0.00  0.00    -0.274 OA
ATOM      7  N   UNK A   1      -1.171   3.254  25.975  0.00  0.00    -0.288 N 
ATOM      8  N   TRP A   2       0.953   3.005  24.333  0.00  0.00    -0.302 N 
ATOM     11  C   UNK A   1      -1.391   3.644  24.572  0.00  0.00    +0.164 C 
ATOM     12  C   UNK A   1      -3.426   5.017  25.320  0.00  0.00    +0.077 C 
ATOM     13  C   UNK A   1      -2.202   4.943  24.416  0.00  0.00    +0.054 C 
ATOM     14  C   UNK A   1      -2.999   4.784  26.765  0.00  0.00    +0.041 C 
ATOM     15  C   UNK A   1      -2.255   3.468  26.935  0.00  0.00    +0.110 C 
ATOM     16  CA  TRP A   2       0.705   1.862  25.180  0.00  0.00    +0.163 C 
ATOM     17  C   TRP A   2      -0.234   2.261  26.302  0.00  0.00    +0.237 C 
ATOM     18  C   UNK A   1      -0.043   3.840  23.882  0.00  0.00    +0.234 C 
ATOM     36  H   TRP A   2       1.867   3.082  23.894  0.00  0.00    +0.150 HD
ENDROOT
BRANCH  12   9
ATOM      4  O   UNK A   1      -3.257   3.094  23.178  0.00  0.00    -0.274 OA
ATOM      9  N   UNK A   1      -4.453   4.096  24.898  0.00  0.00    -0.311 N 
ATOM     21  C   UNK A   1      -4.278   3.202  23.849  0.00  0.00    +0.235 C 
ATOM     37  H   UNK A   1      -5.312   4.061  25.438  0.00  0.00    +0.149 HD
BRANCH  21  23
ATOM     23  C   UNK A   1      -5.513   2.361  23.632  0.00  0.00    +0.267 C 
BRANCH  23   1
ATOM      1  S   UNK A   1      -5.853   1.301  24.995  0.00  0.00    +0.005 S 
ATOM      5  O   UNK A   1      -7.120   0.624  24.762  0.00  0.00    -0.169 OA
ATOM      6  O   UNK A   1      -5.648   2.061  26.218  0.00  0.00    -0.169 OA
BRANCH   1  28
ATOM     28  C   UNK A   1      -4.590   0.065  24.909  0.00  0.00    +0.089 A 
ATOM     31  C   UNK A   1      -4.722  -0.972  24.003  0.00  0.00    +0.027 A 
ATOM     32  C   UNK A   1      -3.495   0.160  25.749  0.00  0.00    +0.027 A 
ATOM     33  C   UNK A   1      -3.726  -1.947  23.935  0.00  0.00    +0.002 A 
ATOM     34  C   UNK A   1      -2.499  -0.815  25.682  0.00  0.00    +0.002 A 
ATOM     35  C   UNK A   1      -2.616  -1.869  24.775  0.00  0.00    +0.000 A 
ENDBRANCH   1  28
ENDBRANCH  23   1
ENDBRANCH  21  23
ENDBRANCH  12   9
BRANCH  16  19
ATOM     19  CB  TRP A   2       0.181   0.661  24.407  0.00  0.00    +0.069 C 
BRANCH  19  20
ATOM     10  NE1 TRP A   2       1.735  -0.281  21.240  0.00  0.00    -0.360 N 
ATOM     20  CG  TRP A   2       1.071   0.313  23.243  0.00  0.00    -0.020 A 
ATOM     22  CD2 TRP A   2       2.477   0.309  23.259  0.00  0.00    +0.003 A 
ATOM     24  CD1 TRP A   2       0.628  -0.048  22.010  0.00  0.00    +0.087 A 
ATOM     25  CE2 TRP A   2       2.879  -0.071  21.977  0.00  0.00    +0.047 A 
ATOM     26  CE3 TRP A   2       3.464   0.588  24.225  0.00  0.00    +0.010 A 
ATOM     27  CZ2 TRP A   2       4.225  -0.187  21.612  0.00  0.00    +0.026 A 
ATOM     29  CZ3 TRP A   2       4.814   0.476  23.873  0.00  0.00    +0.001 A 
ATOM     30  CH2 TRP A   2       5.187   0.094  22.586  0.00  0.00    +0.002 A 
ATOM     38  HE1 TRP A   2       1.718  -0.564  20.270  0.00  0.00    +0.165 HD
ENDBRANCH  19  20
ENDBRANCH  16  19
TORSDOF 6
ENDMDL
