MODEL 1
REMARK VINA RESULT:      -2.5      0.000      0.000
REMARK  Name = 25338976
REMARK  10 active torsions:
REMARK  status: ('A' for Active; 'I' for Inactive)
REMARK    1  A    between atoms: S_1  and  N_10
REMARK    2  A    between atoms: S_1  and  C_21
REMARK    3  A    between atoms: O_7  and  C_18
REMARK    4  A    between atoms: O_7  and  C_30
REMARK    5  A    between atoms: O_9  and  C_34
REMARK    6  A    between atoms: O_9  and  C_35
REMARK    7  A    between atoms: N_11  and  C_19
REMARK    8  A    between atoms: C_13  and  C_18
REMARK    9  A    between atoms: C_19  and  C_22
REMARK   10  A    between atoms: C_25  and  C_31
REMARK                            x       y       z     vdW  Elec       q    Type
REMARK                         _______ _______ _______ _____ _____    ______ ____
ROOT
ATOM     10  N   UNL     1      -1.489   2.781  23.675  0.00  0.00    -0.157 NA
ATOM     11  N   UNL     1       0.340  -0.485  23.823  0.00  0.00    -0.328 N 
ATOM     12  N   UNL     1      -0.742  -0.749  25.760  0.00  0.00    -0.240 NA
ATOM     13  C   UNL     1      -1.657   2.890  25.172  0.00  0.00    +0.194 C 
ATOM     14  C   UNL     1      -0.362   1.887  23.206  0.00  0.00    +0.165 C 
ATOM     15  C   UNL     1      -1.864   1.520  25.850  0.00  0.00    +0.089 C 
ATOM     16  C   UNL     1      -0.340   0.675  24.045  0.00  0.00    +0.057 A 
ATOM     17  C   UNL     1      -0.990   0.491  25.241  0.00  0.00    +0.066 A 
ATOM     20  C   UNL     1       0.065  -1.313  24.883  0.00  0.00    +0.200 A 
ENDROOT
BRANCH  10   1
ATOM      1  S   UNL     1      -2.944   2.683  22.770  0.00  0.00    +0.062 S 
ATOM      5  O   UNL     1      -2.659   2.095  21.480  0.00  0.00    -0.153 OA
ATOM      6  O   UNL     1      -3.650   3.942  22.878  0.00  0.00    -0.153 OA
BRANCH   1  21
ATOM     21  C   UNL     1      -3.820   1.486  23.728  0.00  0.00    +0.106 A 
ATOM     23  C   UNL     1      -3.481   0.137  23.637  0.00  0.00    +0.041 A 
ATOM     24  C   UNL     1      -4.851   1.891  24.576  0.00  0.00    +0.028 A 
ATOM     25  C   UNL     1      -4.174  -0.809  24.393  0.00  0.00    +0.057 A 
ATOM     28  C   UNL     1      -5.544   0.946  25.333  0.00  0.00    +0.002 A 
ATOM     29  C   UNL     1      -5.205  -0.405  25.241  0.00  0.00    +0.012 A 
BRANCH  25  31
ATOM      2  F   UNL     1      -4.704  -2.969  23.551  0.00  0.00    -0.166 F 
ATOM      3  F   UNL     1      -2.594  -2.474  23.719  0.00  0.00    -0.166 F 
ATOM      4  F   UNL     1      -3.753  -2.885  25.505  0.00  0.00    -0.166 F 
ATOM     31  C   UNL     1      -3.812  -2.253  24.296  0.00  0.00    +0.417 C 
ENDBRANCH  25  31
ENDBRANCH   1  21
ENDBRANCH  10   1
BRANCH  13  18
ATOM      8  O   UNL     1       0.376   3.109  26.440  0.00  0.00    -0.249 OA
ATOM     18  C   UNL     1      -0.450   3.609  25.689  0.00  0.00    +0.326 C 
BRANCH  18   7
ATOM      7  O   UNL     1      -0.430   4.880  25.195  0.00  0.00    -0.467 OA
ATOM     30  C   UNL     1      -1.691   5.556  25.185  0.00  0.00    +0.280 C 
ENDBRANCH  18   7
ENDBRANCH  13  18
BRANCH  11  19
ATOM     19  C   UNL     1       1.192  -0.797  22.701  0.00  0.00    +0.158 C 
BRANCH  19  22
ATOM     22  C   UNL     1       2.650  -0.508  22.958  0.00  0.00    -0.028 A 
ATOM     26  C   UNL     1       3.204   0.704  22.546  0.00  0.00    +0.009 A 
ATOM     27  C   UNL     1       3.443  -1.453  23.611  0.00  0.00    +0.009 A 
ATOM     32  C   UNL     1       4.552   0.970  22.784  0.00  0.00    +0.046 A 
ATOM     33  C   UNL     1       4.791  -1.185  23.848  0.00  0.00    +0.046 A 
ATOM     34  C   UNL     1       5.345   0.027  23.436  0.00  0.00    +0.120 A 
BRANCH  34   9
ATOM      9  O   UNL     1       6.661   0.287  23.669  0.00  0.00    -0.495 OA
ATOM     35  C   UNL     1       7.615  -0.499  22.955  0.00  0.00    +0.277 C 
ENDBRANCH  34   9
ENDBRANCH  19  22
ENDBRANCH  11  19
TORSDOF 8
ENDMDL
MODEL 2
REMARK VINA RESULT:      -0.2      2.191      3.074
REMARK  Name = 25338976
REMARK  10 active torsions:
REMARK  status: ('A' for Active; 'I' for Inactive)
REMARK    1  A    between atoms: S_1  and  N_10
REMARK    2  A    between atoms: S_1  and  C_21
REMARK    3  A    between atoms: O_7  and  C_18
REMARK    4  A    between atoms: O_7  and  C_30
REMARK    5  A    between atoms: O_9  and  C_34
REMARK    6  A    between atoms: O_9  and  C_35
REMARK    7  A    between atoms: N_11  and  C_19
REMARK    8  A    between atoms: C_13  and  C_18
REMARK    9  A    between atoms: C_19  and  C_22
REMARK   10  A    between atoms: C_25  and  C_31
REMARK                            x       y       z     vdW  Elec       q    Type
REMARK                         _______ _______ _______ _____ _____    ______ ____
ROOT
ATOM     10  N   UNL     1      -0.021   3.368  25.409  0.00  0.00    -0.157 NA
ATOM     11  N   UNL     1       0.276   0.012  23.768  0.00  0.00    -0.328 N 
ATOM     12  N   UNL     1      -1.197  -0.630  25.320  0.00  0.00    -0.240 NA
ATOM     13  C   UNL     1      -0.439   2.806  26.748  0.00  0.00    +0.194 C 
ATOM     14  C   UNL     1       0.725   2.412  24.504  0.00  0.00    +0.165 C 
ATOM     15  C   UNL     1      -1.312   1.541  26.618  0.00  0.00    +0.089 C 
ATOM     16  C   UNL     1       0.087   1.086  24.586  0.00  0.00    +0.057 A 
ATOM     17  C   UNL     1      -0.816   0.665  25.533  0.00  0.00    +0.066 A 
ATOM     20  C   UNL     1      -0.520  -0.996  24.250  0.00  0.00    +0.200 A 
ENDROOT
BRANCH  10   1
ATOM      1  S   UNL     1      -1.172   4.380  24.637  0.00  0.00    +0.062 S 
ATOM      5  O   UNL     1      -0.603   4.893  23.411  0.00  0.00    -0.153 OA
ATOM      6  O   UNL     1      -1.749   5.270  25.622  0.00  0.00    -0.153 OA
BRANCH   1  21
ATOM     21  C   UNL     1      -2.395   3.182  24.207  0.00  0.00    +0.106 A 
ATOM     23  C   UNL     1      -3.550   3.055  24.978  0.00  0.00    +0.041 A 
ATOM     24  C   UNL     1      -2.205   2.361  23.095  0.00  0.00    +0.028 A 
ATOM     25  C   UNL     1      -4.515   2.107  24.638  0.00  0.00    +0.057 A 
ATOM     28  C   UNL     1      -3.171   1.413  22.754  0.00  0.00    +0.002 A 
ATOM     29  C   UNL     1      -4.326   1.287  23.526  0.00  0.00    +0.012 A 
BRANCH  25  31
ATOM      2  F   UNL     1      -5.702   0.901  26.309  0.00  0.00    -0.166 F 
ATOM      3  F   UNL     1      -6.000   3.054  26.257  0.00  0.00    -0.166 F 
ATOM      4  F   UNL     1      -6.886   1.803  24.724  0.00  0.00    -0.166 F 
ATOM     31  C   UNL     1      -5.750   1.971  25.463  0.00  0.00    +0.417 C 
ENDBRANCH  25  31
ENDBRANCH   1  21
ENDBRANCH  10   1
BRANCH  13  18
ATOM      8  O   UNL     1       1.944   2.693  27.061  0.00  0.00    -0.249 OA
ATOM     18  C   UNL     1       0.818   2.559  27.522  0.00  0.00    +0.326 C 
BRANCH  18   7
ATOM      7  O   UNL     1       0.504   2.172  28.791  0.00  0.00    -0.467 OA
ATOM     30  C   UNL     1       1.550   2.321  29.756  0.00  0.00    +0.280 C 
ENDBRANCH  18   7
ENDBRANCH  13  18
BRANCH  11  19
ATOM     19  C   UNL     1       1.145  -0.067  22.619  0.00  0.00    +0.158 C 
BRANCH  19  22
ATOM     22  C   UNL     1       2.608  -0.143  22.979  0.00  0.00    -0.028 A 
ATOM     26  C   UNL     1       3.124  -1.302  23.560  0.00  0.00    +0.009 A 
ATOM     27  C   UNL     1       3.444   0.945  22.730  0.00  0.00    +0.009 A 
ATOM     32  C   UNL     1       4.476  -1.371  23.892  0.00  0.00    +0.046 A 
ATOM     33  C   UNL     1       4.797   0.875  23.063  0.00  0.00    +0.046 A 
ATOM     34  C   UNL     1       5.313  -0.284  23.644  0.00  0.00    +0.120 A 
BRANCH  34   9
ATOM      9  O   UNL     1       6.633  -0.352  23.968  0.00  0.00    -0.495 OA
ATOM     35  C   UNL     1       7.560  -0.495  22.892  0.00  0.00    +0.277 C 
ENDBRANCH  34   9
ENDBRANCH  19  22
ENDBRANCH  11  19
TORSDOF 8
ENDMDL
MODEL 3
REMARK VINA RESULT:       0.4      2.057      2.876
REMARK  Name = 25338976
REMARK  10 active torsions:
REMARK  status: ('A' for Active; 'I' for Inactive)
REMARK    1  A    between atoms: S_1  and  N_10
REMARK    2  A    between atoms: S_1  and  C_21
REMARK    3  A    between atoms: O_7  and  C_18
REMARK    4  A    between atoms: O_7  and  C_30
REMARK    5  A    between atoms: O_9  and  C_34
REMARK    6  A    between atoms: O_9  and  C_35
REMARK    7  A    between atoms: N_11  and  C_19
REMARK    8  A    between atoms: C_13  and  C_18
REMARK    9  A    between atoms: C_19  and  C_22
REMARK   10  A    between atoms: C_25  and  C_31
REMARK                            x       y       z     vdW  Elec       q    Type
REMARK                         _______ _______ _______ _____ _____    ______ ____
ROOT
ATOM     10  N   UNL     1      -4.101   2.733  24.542  0.00  0.00    -0.157 NA
ATOM     11  N   UNL     1      -0.564   1.504  24.431  0.00  0.00    -0.328 N 
ATOM     12  N   UNL     1      -0.373   2.547  26.397  0.00  0.00    -0.240 NA
ATOM     13  C   UNL     1      -3.789   3.905  25.443  0.00  0.00    +0.194 C 
ATOM     14  C   UNL     1      -2.930   2.179  23.762  0.00  0.00    +0.165 C 
ATOM     15  C   UNL     1      -2.680   3.591  26.467  0.00  0.00    +0.089 C 
ATOM     16  C   UNL     1      -1.748   2.145  24.642  0.00  0.00    +0.057 A 
ATOM     17  C   UNL     1      -1.605   2.781  25.851  0.00  0.00    +0.066 A 
ATOM     20  C   UNL     1       0.231   1.775  25.516  0.00  0.00    +0.200 A 
ENDROOT
BRANCH  10   1
ATOM      1  S   UNL     1      -5.185   1.569  25.188  0.00  0.00    +0.062 S 
ATOM      5  O   UNL     1      -6.408   1.585  24.416  0.00  0.00    -0.153 OA
ATOM      6  O   UNL     1      -5.209   1.699  26.628  0.00  0.00    -0.153 OA
BRANCH   1  21
ATOM     21  C   UNL     1      -4.313   0.086  24.790  0.00  0.00    +0.106 A 
ATOM     23  C   UNL     1      -3.125  -0.222  25.451  0.00  0.00    +0.041 A 
ATOM     24  C   UNL     1      -4.813  -0.776  23.815  0.00  0.00    +0.028 A 
ATOM     25  C   UNL     1      -2.436  -1.394  25.136  0.00  0.00    +0.057 A 
ATOM     28  C   UNL     1      -4.125  -1.948  23.501  0.00  0.00    +0.002 A 
ATOM     29  C   UNL     1      -2.936  -2.257  24.162  0.00  0.00    +0.012 A 
BRANCH  25  31
ATOM      2  F   UNL     1      -1.026  -3.062  26.076  0.00  0.00    -0.166 F 
ATOM      3  F   UNL     1      -0.044  -1.356  25.154  0.00  0.00    -0.166 F 
ATOM      4  F   UNL     1      -1.044  -1.125  27.064  0.00  0.00    -0.166 F 
ATOM     31  C   UNL     1      -1.164  -1.724  25.843  0.00  0.00    +0.417 C 
ENDBRANCH  25  31
ENDBRANCH   1  21
ENDBRANCH  10   1
BRANCH  13  18
ATOM      8  O   UNL     1      -3.976   5.273  23.473  0.00  0.00    -0.249 OA
ATOM     18  C   UNL     1      -3.438   5.053  24.549  0.00  0.00    +0.326 C 
BRANCH  18   7
ATOM      7  O   UNL     1      -2.445   5.790  25.123  0.00  0.00    -0.467 OA
ATOM     30  C   UNL     1      -1.147   5.634  24.540  0.00  0.00    +0.280 C 
ENDBRANCH  18   7
ENDBRANCH  13  18
BRANCH  11  19
ATOM     19  C   UNL     1      -0.198   0.698  23.291  0.00  0.00    +0.158 C 
BRANCH  19  22
ATOM     22  C   UNL     1       1.292   0.528  23.132  0.00  0.00    -0.028 A 
ATOM     26  C   UNL     1       2.120   1.650  23.078  0.00  0.00    +0.009 A 
ATOM     27  C   UNL     1       1.842  -0.751  23.040  0.00  0.00    +0.009 A 
ATOM     32  C   UNL     1       3.498   1.492  22.931  0.00  0.00    +0.046 A 
ATOM     33  C   UNL     1       3.220  -0.907  22.893  0.00  0.00    +0.046 A 
ATOM     34  C   UNL     1       4.049   0.214  22.839  0.00  0.00    +0.120 A 
BRANCH  34   9
ATOM      9  O   UNL     1       5.393   0.060  22.697  0.00  0.00    -0.495 OA
ATOM     35  C   UNL     1       6.136  -0.280  23.868  0.00  0.00    +0.277 C 
ENDBRANCH  34   9
ENDBRANCH  19  22
ENDBRANCH  11  19
TORSDOF 8
ENDMDL
MODEL 4
REMARK VINA RESULT:       1.3      1.889      2.785
REMARK  Name = 25338976
REMARK  10 active torsions:
REMARK  status: ('A' for Active; 'I' for Inactive)
REMARK    1  A    between atoms: S_1  and  N_10
REMARK    2  A    between atoms: S_1  and  C_21
REMARK    3  A    between atoms: O_7  and  C_18
REMARK    4  A    between atoms: O_7  and  C_30
REMARK    5  A    between atoms: O_9  and  C_34
REMARK    6  A    between atoms: O_9  and  C_35
REMARK    7  A    between atoms: N_11  and  C_19
REMARK    8  A    between atoms: C_13  and  C_18
REMARK    9  A    between atoms: C_19  and  C_22
REMARK   10  A    between atoms: C_25  and  C_31
REMARK                            x       y       z     vdW  Elec       q    Type
REMARK                         _______ _______ _______ _____ _____    ______ ____
ROOT
ATOM     10  N   UNL     1      -4.131   2.761  24.470  0.00  0.00    -0.157 NA
ATOM     11  N   UNL     1      -0.674   1.322  24.591  0.00  0.00    -0.328 N 
ATOM     12  N   UNL     1      -0.518   2.434  26.523  0.00  0.00    -0.240 NA
ATOM     13  C   UNL     1      -3.793   3.949  25.340  0.00  0.00    +0.194 C 
ATOM     14  C   UNL     1      -2.958   2.107  23.774  0.00  0.00    +0.165 C 
ATOM     15  C   UNL     1      -2.757   3.614  26.432  0.00  0.00    +0.089 C 
ATOM     16  C   UNL     1      -1.826   2.040  24.715  0.00  0.00    +0.057 A 
ATOM     17  C   UNL     1      -1.704   2.717  25.904  0.00  0.00    +0.066 A 
ATOM     20  C   UNL     1       0.081   1.591  25.705  0.00  0.00    +0.200 A 
ENDROOT
BRANCH  10   1
ATOM      1  S   UNL     1      -5.314   1.691  25.102  0.00  0.00    +0.062 S 
ATOM      5  O   UNL     1      -6.298   1.418  24.079  0.00  0.00    -0.153 OA
ATOM      6  O   UNL     1      -5.710   2.153  26.415  0.00  0.00    -0.153 OA
BRANCH   1  21
ATOM     21  C   UNL     1      -4.333   0.238  25.311  0.00  0.00    +0.106 A 
ATOM     23  C   UNL     1      -4.443  -0.814  24.403  0.00  0.00    +0.041 A 
ATOM     24  C   UNL     1      -3.448   0.143  26.385  0.00  0.00    +0.028 A 
ATOM     25  C   UNL     1      -3.669  -1.962  24.569  0.00  0.00    +0.057 A 
ATOM     28  C   UNL     1      -2.673  -1.005  26.551  0.00  0.00    +0.002 A 
ATOM     29  C   UNL     1      -2.783  -2.058  25.642  0.00  0.00    +0.012 A 
BRANCH  25  31
ATOM      2  F   UNL     1      -2.573  -3.523  23.148  0.00  0.00    -0.166 F 
ATOM      3  F   UNL     1      -4.403  -4.193  24.113  0.00  0.00    -0.166 F 
ATOM      4  F   UNL     1      -4.501  -2.773  22.477  0.00  0.00    -0.166 F 
ATOM     31  C   UNL     1      -3.786  -3.089  23.598  0.00  0.00    +0.417 C 
ENDBRANCH  25  31
ENDBRANCH   1  21
ENDBRANCH  10   1
BRANCH  13  18
ATOM      8  O   UNL     1      -3.789   5.234  23.306  0.00  0.00    -0.249 OA
ATOM     18  C   UNL     1      -3.328   5.036  24.421  0.00  0.00    +0.326 C 
BRANCH  18   7
ATOM      7  O   UNL     1      -2.333   5.748  25.024  0.00  0.00    -0.467 OA
ATOM     30  C   UNL     1      -1.021   5.544  24.490  0.00  0.00    +0.280 C 
ENDBRANCH  18   7
ENDBRANCH  13  18
BRANCH  11  19
ATOM     19  C   UNL     1      -0.301   0.449  23.504  0.00  0.00    +0.158 C 
BRANCH  19  22
ATOM     22  C   UNL     1       1.189   0.366  23.287  0.00  0.00    -0.028 A 
ATOM     26  C   UNL     1       1.819  -0.878  23.239  0.00  0.00    +0.009 A 
ATOM     27  C   UNL     1       1.937   1.534  23.131  0.00  0.00    +0.009 A 
ATOM     32  C   UNL     1       3.196  -0.954  23.038  0.00  0.00    +0.046 A 
ATOM     33  C   UNL     1       3.315   1.457  22.931  0.00  0.00    +0.046 A 
ATOM     34  C   UNL     1       3.945   0.213  22.884  0.00  0.00    +0.120 A 
BRANCH  34   9
ATOM      9  O   UNL     1       5.290   0.139  22.687  0.00  0.00    -0.495 OA
ATOM     35  C   UNL     1       6.093  -0.204  23.816  0.00  0.00    +0.277 C 
ENDBRANCH  34   9
ENDBRANCH  19  22
ENDBRANCH  11  19
TORSDOF 8
ENDMDL
