MODEL 1
REMARK VINA RESULT:      -4.9      0.000      0.000
REMARK  Name = 75536900
REMARK  4 active torsions:
REMARK  status: ('A' for Active; 'I' for Inactive)
REMARK    1  A    between atoms: S_1  and  N_7
REMARK    2  A    between atoms: S_1  and  C_15
REMARK    3  A    between atoms: O_4  and  C_11
REMARK    4  A    between atoms: O_4  and  C_18
REMARK                            x       y       z     vdW  Elec       q    Type
REMARK                         _______ _______ _______ _____ _____    ______ ____
ROOT
ATOM      3  O   UNL     1      -3.880  -2.862  24.564  0.00  0.00    -0.375 OA
ATOM      7  N   UNL     1      -1.502  -1.184  24.227  0.00  0.00    -0.171 NA
ATOM     10  C   UNL     1      -2.358  -0.510  25.251  0.00  0.00    +0.156 C 
ATOM     11  C   UNL     1      -3.804  -0.412  24.769  0.00  0.00    +0.216 C 
ATOM     12  C   UNL     1      -1.440  -2.663  24.434  0.00  0.00    +0.137 C 
ATOM     13  C   UNL     1      -4.353  -1.630  24.030  0.00  0.00    +0.205 C 
ATOM     14  C   UNL     1      -2.702  -3.330  23.907  0.00  0.00    +0.177 C 
ENDROOT
BRANCH   7   1
ATOM      1  S   UNL     1      -0.006  -0.420  23.887  0.00  0.00    +0.061 S 
ATOM      5  O   UNL     1       0.190  -0.392  22.456  0.00  0.00    -0.153 OA
ATOM      6  O   UNL     1       1.002  -0.959  24.772  0.00  0.00    -0.153 OA
BRANCH   1  15
ATOM      2  F   UNL     1      -1.243   5.064  25.657  0.00  0.00    -0.205 F 
ATOM     15  C   UNL     1      -0.376   1.222  24.418  0.00  0.00    +0.106 A 
ATOM     16  C   UNL     1      -0.492   1.506  25.779  0.00  0.00    +0.031 A 
ATOM     17  C   UNL     1      -0.551   2.235  23.476  0.00  0.00    +0.031 A 
ATOM     19  C   UNL     1      -0.785   2.804  26.197  0.00  0.00    +0.040 A 
ATOM     20  C   UNL     1      -0.845   3.533  23.895  0.00  0.00    +0.040 A 
ATOM     21  C   UNL     1      -0.961   3.817  25.255  0.00  0.00    +0.124 A 
ENDBRANCH   1  15
ENDBRANCH   7   1
BRANCH  11   4
ATOM      4  O   UNL     1      -3.954   0.719  23.911  0.00  0.00    -0.468 OA
BRANCH   4  18
ATOM      8  N   UNL     1      -4.045   3.042  23.989  0.00  0.00    -0.219 NA
ATOM      9  N   UNL     1      -5.871   2.869  26.110  0.00  0.00    -0.256 NA
ATOM     18  C   UNL     1      -4.457   1.856  24.480  0.00  0.00    +0.234 A 
ATOM     22  C   UNL     1      -5.354   1.772  25.523  0.00  0.00    +0.177 A 
ATOM     23  C   UNL     1      -4.561   4.139  24.576  0.00  0.00    +0.134 A 
ATOM     24  C   UNL     1      -5.459   4.055  25.617  0.00  0.00    +0.130 A 
ENDBRANCH   4  18
ENDBRANCH  11   4
TORSDOF 4
ENDMDL
MODEL 2
REMARK VINA RESULT:      -4.4      3.215      6.444
REMARK  Name = 75536900
REMARK  4 active torsions:
REMARK  status: ('A' for Active; 'I' for Inactive)
REMARK    1  A    between atoms: S_1  and  N_7
REMARK    2  A    between atoms: S_1  and  C_15
REMARK    3  A    between atoms: O_4  and  C_11
REMARK    4  A    between atoms: O_4  and  C_18
REMARK                            x       y       z     vdW  Elec       q    Type
REMARK                         _______ _______ _______ _____ _____    ______ ____
ROOT
ATOM      3  O   UNL     1      -0.263   4.320  25.341  0.00  0.00    -0.375 OA
ATOM      7  N   UNL     1      -2.791   2.858  25.102  0.00  0.00    -0.171 NA
ATOM     10  C   UNL     1      -1.826   1.934  25.776  0.00  0.00    +0.156 C 
ATOM     11  C   UNL     1      -0.499   1.893  25.020  0.00  0.00    +0.216 C 
ATOM     12  C   UNL     1      -2.696   4.252  25.634  0.00  0.00    +0.137 C 
ATOM     13  C   UNL     1       0.008   3.224  24.474  0.00  0.00    +0.205 C 
ATOM     14  C   UNL     1      -1.496   4.972  25.036  0.00  0.00    +0.177 C 
ENDROOT
BRANCH   7   1
ATOM      1  S   UNL     1      -4.380   2.251  24.893  0.00  0.00    +0.061 S 
ATOM      5  O   UNL     1      -4.859   2.635  23.584  0.00  0.00    -0.153 OA
ATOM      6  O   UNL     1      -5.147   2.536  26.085  0.00  0.00    -0.153 OA
BRANCH   1  15
ATOM      2  F   UNL     1      -3.252  -3.532  24.788  0.00  0.00    -0.205 F 
ATOM     15  C   UNL     1      -4.042   0.519  24.863  0.00  0.00    +0.106 A 
ATOM     16  C   UNL     1      -3.767  -0.159  26.050  0.00  0.00    +0.031 A 
ATOM     17  C   UNL     1      -4.053  -0.171  23.650  0.00  0.00    +0.031 A 
ATOM     19  C   UNL     1      -3.500  -1.528  26.025  0.00  0.00    +0.040 A 
ATOM     20  C   UNL     1      -3.785  -1.540  23.625  0.00  0.00    +0.040 A 
ATOM     21  C   UNL     1      -3.509  -2.218  24.812  0.00  0.00    +0.124 A 
ENDBRANCH   1  15
ENDBRANCH   7   1
BRANCH  11   4
ATOM      4  O   UNL     1      -0.594   0.982  23.924  0.00  0.00    -0.468 OA
BRANCH   4  18
ATOM      8  N   UNL     1       1.713   1.220  23.755  0.00  0.00    -0.219 NA
ATOM      9  N   UNL     1       1.704  -0.543  21.574  0.00  0.00    -0.256 NA
ATOM     18  C   UNL     1       0.577   0.662  23.293  0.00  0.00    +0.234 A 
ATOM     22  C   UNL     1       0.572  -0.204  22.221  0.00  0.00    +0.177 A 
ATOM     23  C   UNL     1       2.846   0.881  23.107  0.00  0.00    +0.134 A 
ATOM     24  C   UNL     1       2.842   0.015  22.036  0.00  0.00    +0.130 A 
ENDBRANCH   4  18
ENDBRANCH  11   4
TORSDOF 4
ENDMDL
MODEL 3
REMARK VINA RESULT:      -4.3      2.648      4.691
REMARK  Name = 75536900
REMARK  4 active torsions:
REMARK  status: ('A' for Active; 'I' for Inactive)
REMARK    1  A    between atoms: S_1  and  N_7
REMARK    2  A    between atoms: S_1  and  C_15
REMARK    3  A    between atoms: O_4  and  C_11
REMARK    4  A    between atoms: O_4  and  C_18
REMARK                            x       y       z     vdW  Elec       q    Type
REMARK                         _______ _______ _______ _____ _____    ______ ____
ROOT
ATOM      3  O   UNL     1       0.843  -0.697  23.963  0.00  0.00    -0.375 OA
ATOM      7  N   UNL     1      -0.258   1.951  24.563  0.00  0.00    -0.171 NA
ATOM     10  C   UNL     1      -0.261   1.187  25.849  0.00  0.00    +0.156 C 
ATOM     11  C   UNL     1      -0.873  -0.199  25.653  0.00  0.00    +0.216 C 
ATOM     12  C   UNL     1       1.005   1.744  23.791  0.00  0.00    +0.137 C 
ATOM     13  C   UNL     1      -0.505  -0.923  24.361  0.00  0.00    +0.205 C 
ATOM     14  C   UNL     1       0.975   0.406  23.066  0.00  0.00    +0.177 C 
ENDROOT
BRANCH   7   1
ATOM      1  S   UNL     1      -0.810   3.571  24.659  0.00  0.00    +0.061 S 
ATOM      5  O   UNL     1      -0.560   4.225  23.394  0.00  0.00    -0.153 OA
ATOM      6  O   UNL     1      -0.352   4.145  25.904  0.00  0.00    -0.153 OA
BRANCH   1  15
ATOM      2  F   UNL     1      -6.612   2.642  25.111  0.00  0.00    -0.205 F 
ATOM     15  C   UNL     1      -2.547   3.292  24.793  0.00  0.00    +0.106 A 
ATOM     16  C   UNL     1      -3.230   2.635  23.770  0.00  0.00    +0.031 A 
ATOM     17  C   UNL     1      -3.237   3.729  25.925  0.00  0.00    +0.031 A 
ATOM     19  C   UNL     1      -4.603   2.415  23.877  0.00  0.00    +0.040 A 
ATOM     20  C   UNL     1      -4.610   3.509  26.031  0.00  0.00    +0.040 A 
ATOM     21  C   UNL     1      -5.293   2.852  25.008  0.00  0.00    +0.124 A 
ENDBRANCH   1  15
ENDBRANCH   7   1
BRANCH  11   4
ATOM      4  O   UNL     1      -2.298  -0.112  25.710  0.00  0.00    -0.468 OA
BRANCH   4  18
ATOM      8  N   UNL     1      -2.712  -2.381  25.409  0.00  0.00    -0.219 NA
ATOM      9  N   UNL     1      -4.662  -1.740  23.498  0.00  0.00    -0.256 NA
ATOM     18  C   UNL     1      -2.996  -1.105  25.080  0.00  0.00    +0.234 A 
ATOM     22  C   UNL     1      -3.954  -0.790  24.140  0.00  0.00    +0.177 A 
ATOM     23  C   UNL     1      -3.420  -3.331  24.766  0.00  0.00    +0.134 A 
ATOM     24  C   UNL     1      -4.378  -3.017  23.828  0.00  0.00    +0.130 A 
ENDBRANCH   4  18
ENDBRANCH  11   4
TORSDOF 4
ENDMDL
MODEL 4
REMARK VINA RESULT:      -3.9      2.754      5.158
REMARK  Name = 75536900
REMARK  4 active torsions:
REMARK  status: ('A' for Active; 'I' for Inactive)
REMARK    1  A    between atoms: S_1  and  N_7
REMARK    2  A    between atoms: S_1  and  C_15
REMARK    3  A    between atoms: O_4  and  C_11
REMARK    4  A    between atoms: O_4  and  C_18
REMARK                            x       y       z     vdW  Elec       q    Type
REMARK                         _______ _______ _______ _____ _____    ______ ____
ROOT
ATOM      3  O   UNL     1      -5.756   3.559  25.202  0.00  0.00    -0.375 OA
ATOM      7  N   UNL     1      -2.897   3.083  24.777  0.00  0.00    -0.171 NA
ATOM     10  C   UNL     1      -3.624   2.030  24.003  0.00  0.00    +0.156 C 
ATOM     11  C   UNL     1      -4.694   1.366  24.866  0.00  0.00    +0.216 C 
ATOM     12  C   UNL     1      -3.535   4.427  24.633  0.00  0.00    +0.137 C 
ATOM     13  C   UNL     1      -5.488   2.289  25.787  0.00  0.00    +0.205 C 
ATOM     14  C   UNL     1      -4.764   4.534  25.524  0.00  0.00    +0.177 C 
ENDROOT
BRANCH   7   1
ATOM      1  S   UNL     1      -1.188   3.057  24.646  0.00  0.00    +0.061 S 
ATOM      5  O   UNL     1      -0.621   3.753  25.780  0.00  0.00    -0.153 OA
ATOM      6  O   UNL     1      -0.820   3.406  23.292  0.00  0.00    -0.153 OA
BRANCH   1  15
ATOM      2  F   UNL     1      -0.205  -2.708  25.377  0.00  0.00    -0.205 F 
ATOM     15  C   UNL     1      -0.893   1.331  24.864  0.00  0.00    +0.106 A 
ATOM     16  C   UNL     1      -0.563   0.535  23.767  0.00  0.00    +0.031 A 
ATOM     17  C   UNL     1      -0.989   0.763  26.135  0.00  0.00    +0.031 A 
ATOM     19  C   UNL     1      -0.330  -0.829  23.940  0.00  0.00    +0.040 A 
ATOM     20  C   UNL     1      -0.757  -0.601  26.308  0.00  0.00    +0.040 A 
ATOM     21  C   UNL     1      -0.427  -1.397  25.211  0.00  0.00    +0.124 A 
ENDBRANCH   1  15
ENDBRANCH   7   1
BRANCH  11   4
ATOM      4  O   UNL     1      -4.102   0.350  25.676  0.00  0.00    -0.468 OA
BRANCH   4  18
ATOM      8  N   UNL     1      -3.510  -1.890  25.882  0.00  0.00    -0.219 NA
ATOM      9  N   UNL     1      -4.256  -2.302  23.210  0.00  0.00    -0.256 NA
ATOM     18  C   UNL     1      -3.988  -0.892  25.113  0.00  0.00    +0.234 A 
ATOM     22  C   UNL     1      -4.354  -1.095  23.800  0.00  0.00    +0.177 A 
ATOM     23  C   UNL     1      -3.411  -3.097  25.293  0.00  0.00    +0.134 A 
ATOM     24  C   UNL     1      -3.778  -3.301  23.981  0.00  0.00    +0.130 A 
ENDBRANCH   4  18
ENDBRANCH  11   4
TORSDOF 4
ENDMDL
MODEL 5
REMARK VINA RESULT:      -3.6      2.765      4.930
REMARK  Name = 75536900
REMARK  4 active torsions:
REMARK  status: ('A' for Active; 'I' for Inactive)
REMARK    1  A    between atoms: S_1  and  N_7
REMARK    2  A    between atoms: S_1  and  C_15
REMARK    3  A    between atoms: O_4  and  C_11
REMARK    4  A    between atoms: O_4  and  C_18
REMARK                            x       y       z     vdW  Elec       q    Type
REMARK                         _______ _______ _______ _____ _____    ______ ____
ROOT
ATOM      3  O   UNL     1      -3.772   4.387  24.414  0.00  0.00    -0.375 OA
ATOM      7  N   UNL     1      -1.732   2.494  25.330  0.00  0.00    -0.171 NA
ATOM     10  C   UNL     1      -2.494   1.806  24.242  0.00  0.00    +0.156 C 
ATOM     11  C   UNL     1      -3.999   1.938  24.469  0.00  0.00    +0.216 C 
ATOM     12  C   UNL     1      -1.436   3.919  24.992  0.00  0.00    +0.137 C 
ATOM     13  C   UNL     1      -4.489   3.292  24.975  0.00  0.00    +0.205 C 
ATOM     14  C   UNL     1      -2.663   4.789  25.219  0.00  0.00    +0.177 C 
ENDROOT
BRANCH   7   1
ATOM      1  S   UNL     1      -0.429   1.606  26.003  0.00  0.00    +0.061 S 
ATOM      5  O   UNL     1      -0.961   0.499  26.764  0.00  0.00    -0.153 OA
ATOM      6  O   UNL     1       0.513   2.534  26.587  0.00  0.00    -0.153 OA
BRANCH   1  15
ATOM      2  F   UNL     1       1.967  -0.565  21.075  0.00  0.00    -0.205 F 
ATOM     15  C   UNL     1       0.290   0.957  24.527  0.00  0.00    +0.106 A 
ATOM     16  C   UNL     1       1.418   1.563  23.975  0.00  0.00    +0.031 A 
ATOM     17  C   UNL     1      -0.271  -0.165  23.915  0.00  0.00    +0.031 A 
ATOM     19  C   UNL     1       1.985   1.049  22.809  0.00  0.00    +0.040 A 
ATOM     20  C   UNL     1       0.295  -0.677  22.748  0.00  0.00    +0.040 A 
ATOM     21  C   UNL     1       1.424  -0.071  22.195  0.00  0.00    +0.124 A 
ENDBRANCH   1  15
ENDBRANCH   7   1
BRANCH  11   4
ATOM      4  O   UNL     1      -4.439   0.944  25.395  0.00  0.00    -0.468 OA
BRANCH   4  18
ATOM      8  N   UNL     1      -3.482  -1.080  26.026  0.00  0.00    -0.219 NA
ATOM      9  N   UNL     1      -4.185  -2.155  23.533  0.00  0.00    -0.256 NA
ATOM     18  C   UNL     1      -4.129  -0.353  25.093  0.00  0.00    +0.234 A 
ATOM     22  C   UNL     1      -4.473  -0.882  23.868  0.00  0.00    +0.177 A 
ATOM     23  C   UNL     1      -3.192  -2.352  25.691  0.00  0.00    +0.134 A 
ATOM     24  C   UNL     1      -3.538  -2.882  24.467  0.00  0.00    +0.130 A 
ENDBRANCH   4  18
ENDBRANCH  11   4
TORSDOF 4
ENDMDL
MODEL 6
REMARK VINA RESULT:      -3.5      2.644      5.093
REMARK  Name = 75536900
REMARK  4 active torsions:
REMARK  status: ('A' for Active; 'I' for Inactive)
REMARK    1  A    between atoms: S_1  and  N_7
REMARK    2  A    between atoms: S_1  and  C_15
REMARK    3  A    between atoms: O_4  and  C_11
REMARK    4  A    between atoms: O_4  and  C_18
REMARK                            x       y       z     vdW  Elec       q    Type
REMARK                         _______ _______ _______ _____ _____    ______ ____
ROOT
ATOM      3  O   UNL     1      -6.446   2.680  25.090  0.00  0.00    -0.375 OA
ATOM      7  N   UNL     1      -3.565   3.161  25.315  0.00  0.00    -0.171 NA
ATOM     10  C   UNL     1      -3.731   1.984  24.408  0.00  0.00    +0.156 C 
ATOM     11  C   UNL     1      -4.688   0.961  25.018  0.00  0.00    +0.216 C 
ATOM     12  C   UNL     1      -4.556   4.240  25.020  0.00  0.00    +0.137 C 
ATOM     13  C   UNL     1      -5.914   1.526  25.731  0.00  0.00    +0.205 C 
ATOM     14  C   UNL     1      -5.914   3.896  25.615  0.00  0.00    +0.177 C 
ENDROOT
BRANCH   7   1
ATOM      1  S   UNL     1      -1.952   3.686  25.568  0.00  0.00    +0.061 S 
ATOM      5  O   UNL     1      -1.603   3.472  26.954  0.00  0.00    -0.153 OA
ATOM      6  O   UNL     1      -1.780   4.977  24.941  0.00  0.00    -0.153 OA
BRANCH   1  15
ATOM      2  F   UNL     1       0.933  -0.310  22.335  0.00  0.00    -0.205 F 
ATOM     15  C   UNL     1      -1.089   2.489  24.599  0.00  0.00    +0.106 A 
ATOM     16  C   UNL     1      -1.672   1.978  23.439  0.00  0.00    +0.031 A 
ATOM     17  C   UNL     1       0.177   2.057  24.993  0.00  0.00    +0.031 A 
ATOM     19  C   UNL     1      -0.989   1.033  22.674  0.00  0.00    +0.040 A 
ATOM     20  C   UNL     1       0.860   1.110  24.228  0.00  0.00    +0.040 A 
ATOM     21  C   UNL     1       0.277   0.599  23.069  0.00  0.00    +0.124 A 
ENDBRANCH   1  15
ENDBRANCH   7   1
BRANCH  11   4
ATOM      4  O   UNL     1      -3.987   0.136  25.949  0.00  0.00    -0.468 OA
BRANCH   4  18
ATOM      8  N   UNL     1      -1.883  -0.834  25.747  0.00  0.00    -0.219 NA
ATOM      9  N   UNL     1      -2.972  -2.772  24.038  0.00  0.00    -0.256 NA
ATOM     18  C   UNL     1      -3.190  -0.842  25.419  0.00  0.00    +0.234 A 
ATOM     22  C   UNL     1      -3.725  -1.794  24.579  0.00  0.00    +0.177 A 
ATOM     23  C   UNL     1      -1.130  -1.811  25.206  0.00  0.00    +0.134 A 
ATOM     24  C   UNL     1      -1.664  -2.764  24.367  0.00  0.00    +0.130 A 
ENDBRANCH   4  18
ENDBRANCH  11   4
TORSDOF 4
ENDMDL
MODEL 7
REMARK VINA RESULT:      -3.2      2.504      4.956
REMARK  Name = 75536900
REMARK  4 active torsions:
REMARK  status: ('A' for Active; 'I' for Inactive)
REMARK    1  A    between atoms: S_1  and  N_7
REMARK    2  A    between atoms: S_1  and  C_15
REMARK    3  A    between atoms: O_4  and  C_11
REMARK    4  A    between atoms: O_4  and  C_18
REMARK                            x       y       z     vdW  Elec       q    Type
REMARK                         _______ _______ _______ _____ _____    ______ ____
ROOT
ATOM      3  O   UNL     1      -2.423  -2.145  25.123  0.00  0.00    -0.375 OA
ATOM      7  N   UNL     1      -3.728   0.468  24.901  0.00  0.00    -0.171 NA
ATOM     10  C   UNL     1      -3.170   0.154  23.550  0.00  0.00    +0.156 C 
ATOM     11  C   UNL     1      -1.717  -0.302  23.656  0.00  0.00    +0.216 C 
ATOM     12  C   UNL     1      -4.377  -0.722  25.531  0.00  0.00    +0.137 C 
ATOM     13  C   UNL     1      -1.381  -1.221  24.828  0.00  0.00    +0.205 C 
ATOM     14  C   UNL     1      -3.328  -1.657  26.114  0.00  0.00    +0.177 C 
ENDROOT
BRANCH   7   1
ATOM      1  S   UNL     1      -4.600   1.939  25.024  0.00  0.00    +0.061 S 
ATOM      5  O   UNL     1      -5.242   1.995  26.318  0.00  0.00    -0.153 OA
ATOM      6  O   UNL     1      -5.351   2.136  23.805  0.00  0.00    -0.153 OA
BRANCH   1  15
ATOM      2  F   UNL     1      -0.126   5.775  25.046  0.00  0.00    -0.205 F 
ATOM     15  C   UNL     1      -3.260   3.087  25.031  0.00  0.00    +0.106 A 
ATOM     16  C   UNL     1      -2.052   2.746  25.639  0.00  0.00    +0.031 A 
ATOM     17  C   UNL     1      -3.409   4.335  24.426  0.00  0.00    +0.031 A 
ATOM     19  C   UNL     1      -0.993   3.654  25.644  0.00  0.00    +0.040 A 
ATOM     20  C   UNL     1      -2.350   5.243  24.432  0.00  0.00    +0.040 A 
ATOM     21  C   UNL     1      -1.143   4.903  25.040  0.00  0.00    +0.124 A 
ENDBRANCH   1  15
ENDBRANCH   7   1
BRANCH  11   4
ATOM      4  O   UNL     1      -0.857   0.835  23.737  0.00  0.00    -0.468 OA
BRANCH   4  18
ATOM      8  N   UNL     1       0.645  -0.271  22.349  0.00  0.00    -0.219 NA
ATOM      9  N   UNL     1       2.722   1.297  23.393  0.00  0.00    -0.256 NA
ATOM     18  C   UNL     1       0.426   0.665  23.293  0.00  0.00    +0.234 A 
ATOM     22  C   UNL     1       1.446   1.436  23.806  0.00  0.00    +0.177 A 
ATOM     23  C   UNL     1       1.920  -0.411  21.936  0.00  0.00    +0.134 A 
ATOM     24  C   UNL     1       2.941   0.360  22.449  0.00  0.00    +0.130 A 
ENDBRANCH   4  18
ENDBRANCH  11   4
TORSDOF 4
ENDMDL
MODEL 8
REMARK VINA RESULT:      -3.2      2.571      3.142
REMARK  Name = 75536900
REMARK  4 active torsions:
REMARK  status: ('A' for Active; 'I' for Inactive)
REMARK    1  A    between atoms: S_1  and  N_7
REMARK    2  A    between atoms: S_1  and  C_15
REMARK    3  A    between atoms: O_4  and  C_11
REMARK    4  A    between atoms: O_4  and  C_18
REMARK                            x       y       z     vdW  Elec       q    Type
REMARK                         _______ _______ _______ _____ _____    ______ ____
ROOT
ATOM      3  O   UNL     1      -2.622  -2.776  24.841  0.00  0.00    -0.375 OA
ATOM      7  N   UNL     1      -1.585  -0.036  24.846  0.00  0.00    -0.171 NA
ATOM     10  C   UNL     1      -2.793  -0.036  25.728  0.00  0.00    +0.156 C 
ATOM     11  C   UNL     1      -3.967  -0.726  25.036  0.00  0.00    +0.216 C 
ATOM     12  C   UNL     1      -0.726  -1.239  25.071  0.00  0.00    +0.137 C 
ATOM     13  C   UNL     1      -3.636  -1.981  24.234  0.00  0.00    +0.205 C 
ATOM     14  C   UNL     1      -1.314  -2.454  24.369  0.00  0.00    +0.177 C 
ENDROOT
BRANCH   7   1
ATOM      1  S   UNL     1      -0.751   1.457  24.725  0.00  0.00    +0.061 S 
ATOM      5  O   UNL     1      -0.237   1.812  26.029  0.00  0.00    -0.153 OA
ATOM      6  O   UNL     1      -1.559   2.379  23.960  0.00  0.00    -0.153 OA
BRANCH   1  15
ATOM      2  F   UNL     1       3.804  -0.192  21.368  0.00  0.00    -0.205 F 
ATOM     15  C   UNL     1       0.612   0.962  23.719  0.00  0.00    +0.106 A 
ATOM     16  C   UNL     1       0.436  -0.006  22.731  0.00  0.00    +0.031 A 
ATOM     17  C   UNL     1       1.866   1.543  23.912  0.00  0.00    +0.031 A 
ATOM     19  C   UNL     1       1.514  -0.396  21.937  0.00  0.00    +0.040 A 
ATOM     20  C   UNL     1       2.945   1.151  23.118  0.00  0.00    +0.040 A 
ATOM     21  C   UNL     1       2.768   0.183  22.130  0.00  0.00    +0.124 A 
ENDBRANCH   1  15
ENDBRANCH   7   1
BRANCH  11   4
ATOM      4  O   UNL     1      -4.619   0.191  24.157  0.00  0.00    -0.468 OA
BRANCH   4  18
ATOM      8  N   UNL     1      -4.306   2.493  24.052  0.00  0.00    -0.219 NA
ATOM      9  N   UNL     1      -5.997   2.793  26.270  0.00  0.00    -0.256 NA
ATOM     18  C   UNL     1      -4.883   1.436  24.658  0.00  0.00    +0.234 A 
ATOM     22  C   UNL     1      -5.713   1.584  25.747  0.00  0.00    +0.177 A 
ATOM     23  C   UNL     1      -4.589   3.703  24.575  0.00  0.00    +0.134 A 
ATOM     24  C   UNL     1      -5.420   3.851  25.663  0.00  0.00    +0.130 A 
ENDBRANCH   4  18
ENDBRANCH  11   4
TORSDOF 4
ENDMDL
MODEL 9
REMARK VINA RESULT:      -2.9      3.003      6.124
REMARK  Name = 75536900
REMARK  4 active torsions:
REMARK  status: ('A' for Active; 'I' for Inactive)
REMARK    1  A    between atoms: S_1  and  N_7
REMARK    2  A    between atoms: S_1  and  C_15
REMARK    3  A    between atoms: O_4  and  C_11
REMARK    4  A    between atoms: O_4  and  C_18
REMARK                            x       y       z     vdW  Elec       q    Type
REMARK                         _______ _______ _______ _____ _____    ______ ____
ROOT
ATOM      3  O   UNL     1      -2.164   4.721  24.142  0.00  0.00    -0.375 OA
ATOM      7  N   UNL     1      -4.153   2.792  25.096  0.00  0.00    -0.171 NA
ATOM     10  C   UNL     1      -3.314   3.160  26.278  0.00  0.00    +0.156 C 
ATOM     11  C   UNL     1      -1.828   3.073  25.936  0.00  0.00    +0.216 C 
ATOM     12  C   UNL     1      -4.499   3.983  24.262  0.00  0.00    +0.137 C 
ATOM     13  C   UNL     1      -1.422   3.578  24.554  0.00  0.00    +0.205 C 
ATOM     14  C   UNL     1      -3.323   4.380  23.381  0.00  0.00    +0.177 C 
ENDROOT
BRANCH   7   1
ATOM      1  S   UNL     1      -5.441   1.704  25.405  0.00  0.00    +0.061 S 
ATOM      5  O   UNL     1      -6.437   1.852  24.368  0.00  0.00    -0.153 OA
ATOM      6  O   UNL     1      -5.795   1.791  26.804  0.00  0.00    -0.153 OA
BRANCH   1  15
ATOM      2  F   UNL     1      -2.667  -3.423  24.541  0.00  0.00    -0.205 F 
ATOM     15  C   UNL     1      -4.610   0.169  25.147  0.00  0.00    +0.106 A 
ATOM     16  C   UNL     1      -3.963  -0.462  26.210  0.00  0.00    +0.031 A 
ATOM     17  C   UNL     1      -4.603  -0.415  23.880  0.00  0.00    +0.031 A 
ATOM     19  C   UNL     1      -3.307  -1.675  26.005  0.00  0.00    +0.040 A 
ATOM     20  C   UNL     1      -3.945  -1.628  23.675  0.00  0.00    +0.040 A 
ATOM     21  C   UNL     1      -3.298  -2.258  24.738  0.00  0.00    +0.124 A 
ENDBRANCH   1  15
ENDBRANCH   7   1
BRANCH  11   4
ATOM      4  O   UNL     1      -1.383   1.721  26.051  0.00  0.00    -0.468 OA
BRANCH   4  18
ATOM      8  N   UNL     1      -0.922   0.153  24.396  0.00  0.00    -0.219 NA
ATOM      9  N   UNL     1       1.459   1.514  23.811  0.00  0.00    -0.256 NA
ATOM     18  C   UNL     1      -0.554   1.264  25.064  0.00  0.00    +0.234 A 
ATOM     22  C   UNL     1       0.617   1.933  24.776  0.00  0.00    +0.177 A 
ATOM     23  C   UNL     1      -0.080  -0.267  23.432  0.00  0.00    +0.134 A 
ATOM     24  C   UNL     1       1.090   0.402  23.143  0.00  0.00    +0.130 A 
ENDBRANCH   4  18
ENDBRANCH  11   4
TORSDOF 4
ENDMDL
MODEL 10
REMARK VINA RESULT:      -2.8      2.588      4.565
REMARK  Name = 75536900
REMARK  4 active torsions:
REMARK  status: ('A' for Active; 'I' for Inactive)
REMARK    1  A    between atoms: S_1  and  N_7
REMARK    2  A    between atoms: S_1  and  C_15
REMARK    3  A    between atoms: O_4  and  C_11
REMARK    4  A    between atoms: O_4  and  C_18
REMARK                            x       y       z     vdW  Elec       q    Type
REMARK                         _______ _______ _______ _____ _____    ______ ____
ROOT
ATOM      3  O   UNL     1      -1.146   3.629  26.791  0.00  0.00    -0.375 OA
ATOM      7  N   UNL     1      -1.114   2.091  24.297  0.00  0.00    -0.171 NA
ATOM     10  C   UNL     1      -1.127   3.535  23.908  0.00  0.00    +0.156 C 
ATOM     11  C   UNL     1      -2.209   4.293  24.674  0.00  0.00    +0.216 C 
ATOM     12  C   UNL     1      -0.183   1.826  25.437  0.00  0.00    +0.137 C 
ATOM     13  C   UNL     1      -2.381   3.921  26.145  0.00  0.00    +0.205 C 
ATOM     14  C   UNL     1      -0.821   2.239  26.755  0.00  0.00    +0.177 C 
ENDROOT
BRANCH   7   1
ATOM      1  S   UNL     1      -1.037   0.971  23.002  0.00  0.00    +0.061 S 
ATOM      5  O   UNL     1       0.345   0.615  22.773  0.00  0.00    -0.153 OA
ATOM      6  O   UNL     1      -1.878   1.446  21.927  0.00  0.00    -0.153 OA
BRANCH   1  15
ATOM      2  F   UNL     1      -3.714  -3.649  25.497  0.00  0.00    -0.205 F 
ATOM     15  C   UNL     1      -1.838  -0.413  23.750  0.00  0.00    +0.106 A 
ATOM     16  C   UNL     1      -1.098  -1.325  24.503  0.00  0.00    +0.031 A 
ATOM     17  C   UNL     1      -3.212  -0.593  23.588  0.00  0.00    +0.031 A 
ATOM     19  C   UNL     1      -1.732  -2.418  25.093  0.00  0.00    +0.040 A 
ATOM     20  C   UNL     1      -3.845  -1.687  24.178  0.00  0.00    +0.040 A 
ATOM     21  C   UNL     1      -3.105  -2.599  24.931  0.00  0.00    +0.124 A 
ENDBRANCH   1  15
ENDBRANCH   7   1
BRANCH  11   4
ATOM      4  O   UNL     1      -3.472   4.117  24.032  0.00  0.00    -0.468 OA
BRANCH   4  18
ATOM      8  N   UNL     1      -4.484   2.059  24.422  0.00  0.00    -0.219 NA
ATOM      9  N   UNL     1      -6.148   3.272  26.326  0.00  0.00    -0.256 NA
ATOM     18  C   UNL     1      -4.402   3.374  24.706  0.00  0.00    +0.234 A 
ATOM     22  C   UNL     1      -5.220   3.970  25.642  0.00  0.00    +0.177 A 
ATOM     23  C   UNL     1      -5.412   1.362  25.105  0.00  0.00    +0.134 A 
ATOM     24  C   UNL     1      -6.230   1.957  26.041  0.00  0.00    +0.130 A 
ENDBRANCH   4  18
ENDBRANCH  11   4
TORSDOF 4
ENDMDL
