MODEL 1
REMARK VINA RESULT:      -3.6      0.000      0.000
REMARK  Name = 75368646
REMARK  3 active torsions:
REMARK  status: ('A' for Active; 'I' for Inactive)
REMARK    1  A    between atoms: N_3  and  C_12
REMARK    2  A    between atoms: N_4  and  C_13
REMARK    3  A    between atoms: C_12  and  C_14
REMARK                            x       y       z     vdW  Elec       q    Type
REMARK                         _______ _______ _______ _____ _____    ______ ____
ROOT
ATOM      1  O   UNL     1      -0.841  -9.979  11.853  0.00  0.00    -0.252 OA
ATOM      2  N   UNL     1      -3.148 -10.108  11.433  0.00  0.00    -0.278 N 
ATOM      3  N   UNL     1      -5.668  -9.422  10.387  0.00  0.00    -0.295 NA
ATOM      4  N   UNL     1      -2.430 -10.431  13.537  0.00  0.00    -0.287 N 
ATOM      6  C   UNL     1      -4.338 -10.477  12.170  0.00  0.00    +0.109 C 
ATOM      7  C   UNL     1      -5.482  -9.516  11.849  0.00  0.00    +0.109 C 
ATOM      8  C   UNL     1      -3.880 -10.468  13.626  0.00  0.00    +0.132 C 
ATOM      9  C   UNL     1      -3.248  -9.845  10.012  0.00  0.00    +0.125 C 
ATOM     10  C   UNL     1      -4.440  -8.927   9.731  0.00  0.00    +0.104 C 
ATOM     11  C   UNL     1      -1.994 -10.154  12.225  0.00  0.00    +0.305 C 
ATOM     13  C   UNL     1      -1.587 -10.520  14.707  0.00  0.00    +0.133 C 
ENDROOT
BRANCH   3  12
ATOM     12  C   UNL     1      -6.800  -8.551  10.072  0.00  0.00    +0.120 C 
BRANCH  12  14
ATOM      5  N   UNL     1     -10.474 -10.736   9.752  0.00  0.00    -0.255 NA
ATOM     14  C   UNL     1      -8.093  -9.318   9.998  0.00  0.00    -0.023 A 
ATOM     15  C   UNL     1      -8.807  -9.692  11.144  0.00  0.00    +0.005 A 
ATOM     16  C   UNL     1      -8.569  -9.654   8.738  0.00  0.00    +0.025 A 
ATOM     17  C   UNL     1     -10.010 -10.409  10.973  0.00  0.00    +0.071 A 
ATOM     18  C   UNL     1      -8.351  -9.367  12.433  0.00  0.00    +0.010 A 
ATOM     19  C   UNL     1      -9.755 -10.357   8.672  0.00  0.00    +0.112 A 
ATOM     20  C   UNL     1     -10.719 -10.780  12.113  0.00  0.00    +0.028 A 
ATOM     21  C   UNL     1      -9.081  -9.751  13.555  0.00  0.00    +0.001 A 
ATOM     22  C   UNL     1     -10.266 -10.457  13.394  0.00  0.00    +0.002 A 
ENDBRANCH  12  14
ENDBRANCH   3  12
TORSDOF 2
ENDMDL
MODEL 2
REMARK VINA RESULT:      -1.4     15.910     18.308
REMARK  Name = 75368646
REMARK  3 active torsions:
REMARK  status: ('A' for Active; 'I' for Inactive)
REMARK    1  A    between atoms: N_3  and  C_12
REMARK    2  A    between atoms: N_4  and  C_13
REMARK    3  A    between atoms: C_12  and  C_14
REMARK                            x       y       z     vdW  Elec       q    Type
REMARK                         _______ _______ _______ _____ _____    ______ ____
ROOT
ATOM      1  O   UNL     1      -1.616  -3.466  23.571  0.00  0.00    -0.252 OA
ATOM      2  N   UNL     1      -2.908  -1.798  24.604  0.00  0.00    -0.278 N 
ATOM      3  N   UNL     1      -4.646   0.400  24.850  0.00  0.00    -0.295 NA
ATOM      4  N   UNL     1      -0.833  -2.169  25.379  0.00  0.00    -0.287 N 
ATOM      6  C   UNL     1      -2.796  -0.941  25.766  0.00  0.00    +0.109 C 
ATOM      7  C   UNL     1      -3.293   0.466  25.438  0.00  0.00    +0.109 C 
ATOM      8  C   UNL     1      -1.319  -1.030  26.141  0.00  0.00    +0.132 C 
ATOM      9  C   UNL     1      -4.151  -1.826  23.861  0.00  0.00    +0.125 C 
ATOM     10  C   UNL     1      -4.642  -0.398  23.607  0.00  0.00    +0.104 C 
ATOM     11  C   UNL     1      -1.769  -2.591  24.414  0.00  0.00    +0.305 C 
ATOM     13  C   UNL     1       0.514  -2.671  25.527  0.00  0.00    +0.133 C 
ENDROOT
BRANCH   3  12
ATOM     12  C   UNL     1      -5.155   1.746  24.589  0.00  0.00    +0.120 C 
BRANCH  12  14
ATOM      5  N   UNL     1      -2.661   4.795  26.283  0.00  0.00    -0.255 NA
ATOM     14  C   UNL     1      -4.251   2.806  25.160  0.00  0.00    -0.023 A 
ATOM     15  C   UNL     1      -2.937   2.989  24.710  0.00  0.00    +0.005 A 
ATOM     16  C   UNL     1      -4.764   3.614  26.166  0.00  0.00    +0.025 A 
ATOM     17  C   UNL     1      -2.167   4.010  25.307  0.00  0.00    +0.071 A 
ATOM     18  C   UNL     1      -2.389   2.188  23.694  0.00  0.00    +0.010 A 
ATOM     19  C   UNL     1      -3.934   4.585  26.688  0.00  0.00    +0.112 A 
ATOM     20  C   UNL     1      -0.860   4.192  24.858  0.00  0.00    +0.028 A 
ATOM     21  C   UNL     1      -1.080   2.392  23.266  0.00  0.00    +0.001 A 
ATOM     22  C   UNL     1      -0.316   3.396  23.848  0.00  0.00    +0.002 A 
ENDBRANCH  12  14
ENDBRANCH   3  12
TORSDOF 2
ENDMDL
MODEL 3
REMARK VINA RESULT:      -1.1     16.560     18.209
REMARK  Name = 75368646
REMARK  3 active torsions:
REMARK  status: ('A' for Active; 'I' for Inactive)
REMARK    1  A    between atoms: N_3  and  C_12
REMARK    2  A    between atoms: N_4  and  C_13
REMARK    3  A    between atoms: C_12  and  C_14
REMARK                            x       y       z     vdW  Elec       q    Type
REMARK                         _______ _______ _______ _____ _____    ______ ____
ROOT
ATOM      1  O   UNL     1       2.829  -1.698  23.540  0.00  0.00    -0.252 OA
ATOM      2  N   UNL     1       0.904  -0.435  24.007  0.00  0.00    -0.278 N 
ATOM      3  N   UNL     1      -1.824   0.236  24.148  0.00  0.00    -0.295 NA
ATOM      4  N   UNL     1       2.665   0.611  23.086  0.00  0.00    -0.287 N 
ATOM      6  C   UNL     1       0.522   0.961  23.980  0.00  0.00    +0.109 C 
ATOM      7  C   UNL     1      -0.890   1.116  23.417  0.00  0.00    +0.109 C 
ATOM      8  C   UNL     1       1.621   1.620  23.149  0.00  0.00    +0.132 C 
ATOM      9  C   UNL     1      -0.009  -1.408  24.570  0.00  0.00    +0.125 C 
ATOM     10  C   UNL     1      -1.421  -1.179  24.025  0.00  0.00    +0.104 C 
ATOM     11  C   UNL     1       2.211  -0.641  23.548  0.00  0.00    +0.305 C 
ATOM     13  C   UNL     1       3.947   0.872  22.472  0.00  0.00    +0.133 C 
ENDROOT
BRANCH   3  12
ATOM     12  C   UNL     1      -3.189   0.422  23.657  0.00  0.00    +0.120 C 
BRANCH  12  14
ATOM      5  N   UNL     1      -5.509   3.039  26.137  0.00  0.00    -0.255 NA
ATOM     14  C   UNL     1      -3.975   1.366  24.528  0.00  0.00    -0.023 A 
ATOM     15  C   UNL     1      -3.452   2.591  24.962  0.00  0.00    +0.005 A 
ATOM     16  C   UNL     1      -5.256   0.982  24.898  0.00  0.00    +0.025 A 
ATOM     17  C   UNL     1      -4.265   3.409  25.776  0.00  0.00    +0.071 A 
ATOM     18  C   UNL     1      -2.159   3.008  24.604  0.00  0.00    +0.010 A 
ATOM     19  C   UNL     1      -5.974   1.848  25.697  0.00  0.00    +0.112 A 
ATOM     20  C   UNL     1      -3.745   4.627  26.207  0.00  0.00    +0.028 A 
ATOM     21  C   UNL     1      -1.665   4.231  25.050  0.00  0.00    +0.001 A 
ATOM     22  C   UNL     1      -2.459   5.041  25.851  0.00  0.00    +0.002 A 
ENDBRANCH  12  14
ENDBRANCH   3  12
TORSDOF 2
ENDMDL
MODEL 4
REMARK VINA RESULT:      -0.8     16.034     17.675
REMARK  Name = 75368646
REMARK  3 active torsions:
REMARK  status: ('A' for Active; 'I' for Inactive)
REMARK    1  A    between atoms: N_3  and  C_12
REMARK    2  A    between atoms: N_4  and  C_13
REMARK    3  A    between atoms: C_12  and  C_14
REMARK                            x       y       z     vdW  Elec       q    Type
REMARK                         _______ _______ _______ _____ _____    ______ ____
ROOT
ATOM      1  O   UNL     1       4.043   2.298  22.809  0.00  0.00    -0.252 OA
ATOM      2  N   UNL     1       2.133   0.994  23.224  0.00  0.00    -0.278 N 
ATOM      3  N   UNL     1      -0.281   0.181  24.416  0.00  0.00    -0.295 NA
ATOM      4  N   UNL     1       4.097  -0.057  22.936  0.00  0.00    -0.287 N 
ATOM      6  C   UNL     1       1.797  -0.414  23.239  0.00  0.00    +0.109 C 
ATOM      7  C   UNL     1       0.881  -0.730  24.421  0.00  0.00    +0.109 C 
ATOM      8  C   UNL     1       3.155  -1.111  23.274  0.00  0.00    +0.132 C 
ATOM      9  C   UNL     1       1.078   1.976  23.364  0.00  0.00    +0.125 C 
ATOM     10  C   UNL     1       0.152   1.589  24.520  0.00  0.00    +0.104 C 
ATOM     11  C   UNL     1       3.492   1.216  22.966  0.00  0.00    +0.305 C 
ATOM     13  C   UNL     1       5.507  -0.320  22.753  0.00  0.00    +0.133 C 
ENDROOT
BRANCH   3  12
ATOM     12  C   UNL     1      -1.194  -0.153  25.509  0.00  0.00    +0.120 C 
BRANCH  12  14
ATOM      5  N   UNL     1      -5.271  -0.303  24.191  0.00  0.00    -0.255 NA
ATOM     14  C   UNL     1      -2.630  -0.169  25.055  0.00  0.00    -0.023 A 
ATOM     15  C   UNL     1      -3.443   0.971  25.110  0.00  0.00    +0.005 A 
ATOM     16  C   UNL     1      -3.137  -1.366  24.571  0.00  0.00    +0.025 A 
ATOM     17  C   UNL     1      -4.776   0.858  24.661  0.00  0.00    +0.071 A 
ATOM     18  C   UNL     1      -2.959   2.198  25.595  0.00  0.00    +0.010 A 
ATOM     19  C   UNL     1      -4.453  -1.379  24.155  0.00  0.00    +0.112 A 
ATOM     20  C   UNL     1      -5.584   1.991  24.716  0.00  0.00    +0.028 A 
ATOM     21  C   UNL     1      -3.789   3.314  25.638  0.00  0.00    +0.001 A 
ATOM     22  C   UNL     1      -5.102   3.211  25.198  0.00  0.00    +0.002 A 
ENDBRANCH  12  14
ENDBRANCH   3  12
TORSDOF 2
ENDMDL
MODEL 5
REMARK VINA RESULT:      -0.5     15.848     18.203
REMARK  Name = 75368646
REMARK  3 active torsions:
REMARK  status: ('A' for Active; 'I' for Inactive)
REMARK    1  A    between atoms: N_3  and  C_12
REMARK    2  A    between atoms: N_4  and  C_13
REMARK    3  A    between atoms: C_12  and  C_14
REMARK                            x       y       z     vdW  Elec       q    Type
REMARK                         _______ _______ _______ _____ _____    ______ ____
ROOT
ATOM      1  O   UNL     1      -2.399   5.850  25.575  0.00  0.00    -0.252 OA
ATOM      2  N   UNL     1      -3.215   3.788  24.800  0.00  0.00    -0.278 N 
ATOM      3  N   UNL     1      -4.611   1.346  24.811  0.00  0.00    -0.295 NA
ATOM      4  N   UNL     1      -1.055   4.284  24.432  0.00  0.00    -0.287 N 
ATOM      6  C   UNL     1      -2.725   2.696  23.986  0.00  0.00    +0.109 C 
ATOM      7  C   UNL     1      -3.152   1.355  24.581  0.00  0.00    +0.109 C 
ATOM      8  C   UNL     1      -1.217   2.927  23.938  0.00  0.00    +0.132 C 
ATOM      9  C   UNL     1      -4.604   3.799  25.209  0.00  0.00    +0.125 C 
ATOM     10  C   UNL     1      -5.004   2.422  25.744  0.00  0.00    +0.104 C 
ATOM     11  C   UNL     1      -2.245   4.778  25.005  0.00  0.00    +0.305 C 
ATOM     13  C   UNL     1       0.230   4.946  24.450  0.00  0.00    +0.133 C 
ENDROOT
BRANCH   3  12
ATOM     12  C   UNL     1      -5.038   0.045  25.325  0.00  0.00    +0.120 C 
BRANCH  12  14
ATOM      5  N   UNL     1      -2.824  -3.193  23.593  0.00  0.00    -0.255 NA
ATOM     14  C   UNL     1      -4.230  -1.082  24.737  0.00  0.00    -0.023 A 
ATOM     15  C   UNL     1      -2.890  -1.299  25.082  0.00  0.00    +0.005 A 
ATOM     16  C   UNL     1      -4.860  -1.916  23.824  0.00  0.00    +0.025 A 
ATOM     17  C   UNL     1      -2.216  -2.382  24.478  0.00  0.00    +0.071 A 
ATOM     18  C   UNL     1      -2.223  -0.472  26.002  0.00  0.00    +0.010 A 
ATOM     19  C   UNL     1      -4.119  -2.948  23.287  0.00  0.00    +0.112 A 
ATOM     20  C   UNL     1      -0.883  -2.598  24.823  0.00  0.00    +0.028 A 
ATOM     21  C   UNL     1      -0.891  -0.711  26.328  0.00  0.00    +0.001 A 
ATOM     22  C   UNL     1      -0.221  -1.775  25.737  0.00  0.00    +0.002 A 
ENDBRANCH  12  14
ENDBRANCH   3  12
TORSDOF 2
ENDMDL
MODEL 6
REMARK VINA RESULT:      -0.3     16.695     18.961
REMARK  Name = 75368646
REMARK  3 active torsions:
REMARK  status: ('A' for Active; 'I' for Inactive)
REMARK    1  A    between atoms: N_3  and  C_12
REMARK    2  A    between atoms: N_4  and  C_13
REMARK    3  A    between atoms: C_12  and  C_14
REMARK                            x       y       z     vdW  Elec       q    Type
REMARK                         _______ _______ _______ _____ _____    ______ ____
ROOT
ATOM      1  O   UNL     1      -6.602   2.313  26.865  0.00  0.00    -0.252 OA
ATOM      2  N   UNL     1      -5.144   1.428  25.251  0.00  0.00    -0.278 N 
ATOM      3  N   UNL     1      -3.098  -0.157  24.149  0.00  0.00    -0.295 NA
ATOM      4  N   UNL     1      -5.471   3.650  25.285  0.00  0.00    -0.287 N 
ATOM      6  C   UNL     1      -4.417   1.920  24.099  0.00  0.00    +0.109 C 
ATOM      7  C   UNL     1      -3.015   1.315  24.056  0.00  0.00    +0.109 C 
ATOM      8  C   UNL     1      -4.457   3.437  24.266  0.00  0.00    +0.132 C 
ATOM      9  C   UNL     1      -5.164   0.006  25.521  0.00  0.00    +0.125 C 
ATOM     10  C   UNL     1      -3.749  -0.569  25.409  0.00  0.00    +0.104 C 
ATOM     11  C   UNL     1      -5.839   2.445  25.918  0.00  0.00    +0.305 C 
ATOM     13  C   UNL     1      -5.903   4.974  25.672  0.00  0.00    +0.133 C 
ENDROOT
BRANCH   3  12
ATOM     12  C   UNL     1      -1.764  -0.749  24.048  0.00  0.00    +0.120 C 
BRANCH  12  14
ATOM      5  N   UNL     1       1.263   2.183  24.834  0.00  0.00    -0.255 NA
ATOM     14  C   UNL     1      -0.680   0.266  24.296  0.00  0.00    -0.023 A 
ATOM     15  C   UNL     1       0.500   0.297  23.542  0.00  0.00    +0.005 A 
ATOM     16  C   UNL     1      -0.884   1.188  25.312  0.00  0.00    +0.025 A 
ATOM     17  C   UNL     1       1.458   1.287  23.849  0.00  0.00    +0.071 A 
ATOM     18  C   UNL     1       0.737  -0.623  22.507  0.00  0.00    +0.010 A 
ATOM     19  C   UNL     1       0.110   2.118  25.538  0.00  0.00    +0.112 A 
ATOM     20  C   UNL     1       2.631   1.318  23.098  0.00  0.00    +0.028 A 
ATOM     21  C   UNL     1       1.918  -0.569  21.773  0.00  0.00    +0.001 A 
ATOM     22  C   UNL     1       2.866   0.403  22.069  0.00  0.00    +0.002 A 
ENDBRANCH  12  14
ENDBRANCH   3  12
TORSDOF 2
ENDMDL
MODEL 7
REMARK VINA RESULT:      -0.3     15.986     18.066
REMARK  Name = 75368646
REMARK  3 active torsions:
REMARK  status: ('A' for Active; 'I' for Inactive)
REMARK    1  A    between atoms: N_3  and  C_12
REMARK    2  A    between atoms: N_4  and  C_13
REMARK    3  A    between atoms: C_12  and  C_14
REMARK                            x       y       z     vdW  Elec       q    Type
REMARK                         _______ _______ _______ _____ _____    ______ ____
ROOT
ATOM      1  O   UNL     1      -0.412  -2.460  25.709  0.00  0.00    -0.252 OA
ATOM      2  N   UNL     1      -1.266  -0.922  24.153  0.00  0.00    -0.278 N 
ATOM      3  N   UNL     1      -1.778   1.553  22.917  0.00  0.00    -0.295 NA
ATOM      4  N   UNL     1      -2.633  -2.533  24.918  0.00  0.00    -0.287 N 
ATOM      6  C   UNL     1      -2.485  -0.758  23.388  0.00  0.00    +0.109 C 
ATOM      7  C   UNL     1      -2.906   0.711  23.367  0.00  0.00    +0.109 C 
ATOM      8  C   UNL     1      -3.472  -1.700  24.073  0.00  0.00    +0.132 C 
ATOM      9  C   UNL     1      -0.144  -0.045  23.894  0.00  0.00    +0.125 C 
ATOM     10  C   UNL     1      -0.620   1.408  23.822  0.00  0.00    +0.104 C 
ATOM     11  C   UNL     1      -1.320  -2.028  25.011  0.00  0.00    +0.305 C 
ATOM     13  C   UNL     1      -3.167  -3.645  25.670  0.00  0.00    +0.133 C 
ENDROOT
BRANCH   3  12
ATOM     12  C   UNL     1      -2.190   2.954  22.837  0.00  0.00    +0.120 C 
BRANCH  12  14
ATOM      5  N   UNL     1      -3.397   4.514  26.643  0.00  0.00    -0.255 NA
ATOM     14  C   UNL     1      -2.646   3.482  24.171  0.00  0.00    -0.023 A 
ATOM     15  C   UNL     1      -3.872   3.113  24.740  0.00  0.00    +0.005 A 
ATOM     16  C   UNL     1      -1.803   4.361  24.836  0.00  0.00    +0.025 A 
ATOM     17  C   UNL     1      -4.213   3.661  25.995  0.00  0.00    +0.071 A 
ATOM     18  C   UNL     1      -4.747   2.226  24.092  0.00  0.00    +0.010 A 
ATOM     19  C   UNL     1      -2.223   4.844  26.058  0.00  0.00    +0.112 A 
ATOM     20  C   UNL     1      -5.432   3.294  26.561  0.00  0.00    +0.028 A 
ATOM     21  C   UNL     1      -5.959   1.877  24.680  0.00  0.00    +0.001 A 
ATOM     22  C   UNL     1      -6.301   2.411  25.916  0.00  0.00    +0.002 A 
ENDBRANCH  12  14
ENDBRANCH   3  12
TORSDOF 2
ENDMDL
MODEL 8
REMARK VINA RESULT:      -0.2     16.878     18.825
REMARK  Name = 75368646
REMARK  3 active torsions:
REMARK  status: ('A' for Active; 'I' for Inactive)
REMARK    1  A    between atoms: N_3  and  C_12
REMARK    2  A    between atoms: N_4  and  C_13
REMARK    3  A    between atoms: C_12  and  C_14
REMARK                            x       y       z     vdW  Elec       q    Type
REMARK                         _______ _______ _______ _____ _____    ______ ____
ROOT
ATOM      1  O   UNL     1      -6.175   1.577  24.028  0.00  0.00    -0.252 OA
ATOM      2  N   UNL     1      -4.163   2.726  24.413  0.00  0.00    -0.278 N 
ATOM      3  N   UNL     1      -1.402   3.263  24.396  0.00  0.00    -0.295 NA
ATOM      4  N   UNL     1      -5.664   2.621  26.081  0.00  0.00    -0.287 N 
ATOM      6  C   UNL     1      -3.602   3.555  25.459  0.00  0.00    +0.109 C 
ATOM      7  C   UNL     1      -2.129   3.211  25.680  0.00  0.00    +0.109 C 
ATOM      8  C   UNL     1      -4.510   3.290  26.658  0.00  0.00    +0.132 C 
ATOM      9  C   UNL     1      -3.450   2.588  23.161  0.00  0.00    +0.125 C 
ATOM     10  C   UNL     1      -1.970   2.302  23.429  0.00  0.00    +0.104 C 
ATOM     11  C   UNL     1      -5.429   2.229  24.747  0.00  0.00    +0.305 C 
ATOM     13  C   UNL     1      -6.828   2.284  26.869  0.00  0.00    +0.133 C 
ENDROOT
BRANCH   3  12
ATOM     12  C   UNL     1       0.021   2.994  24.606  0.00  0.00    +0.120 C 
BRANCH  12  14
ATOM      5  N   UNL     1       1.197  -0.879  23.193  0.00  0.00    -0.255 NA
ATOM     14  C   UNL     1       0.406   1.618  24.130  0.00  0.00    -0.023 A 
ATOM     15  C   UNL     1      -0.269   0.466  24.553  0.00  0.00    +0.005 A 
ATOM     16  C   UNL     1       1.470   1.519  23.245  0.00  0.00    +0.025 A 
ATOM     17  C   UNL     1       0.166  -0.780  24.052  0.00  0.00    +0.071 A 
ATOM     18  C   UNL     1      -1.349   0.532  25.449  0.00  0.00    +0.010 A 
ATOM     19  C   UNL     1       1.822   0.258  22.810  0.00  0.00    +0.112 A 
ATOM     20  C   UNL     1      -0.507  -1.926  24.472  0.00  0.00    +0.028 A 
ATOM     21  C   UNL     1      -2.002  -0.629  25.852  0.00  0.00    +0.001 A 
ATOM     22  C   UNL     1      -1.581  -1.859  25.363  0.00  0.00    +0.002 A 
ENDBRANCH  12  14
ENDBRANCH   3  12
TORSDOF 2
ENDMDL
MODEL 9
REMARK VINA RESULT:      -0.0     17.134     18.297
REMARK  Name = 75368646
REMARK  3 active torsions:
REMARK  status: ('A' for Active; 'I' for Inactive)
REMARK    1  A    between atoms: N_3  and  C_12
REMARK    2  A    between atoms: N_4  and  C_13
REMARK    3  A    between atoms: C_12  and  C_14
REMARK                            x       y       z     vdW  Elec       q    Type
REMARK                         _______ _______ _______ _____ _____    ______ ____
ROOT
ATOM      1  O   UNL     1       4.498   1.839  23.134  0.00  0.00    -0.252 OA
ATOM      2  N   UNL     1       2.357   0.874  23.182  0.00  0.00    -0.278 N 
ATOM      3  N   UNL     1      -0.329   0.481  23.919  0.00  0.00    -0.295 NA
ATOM      4  N   UNL     1       4.140  -0.491  23.215  0.00  0.00    -0.287 N 
ATOM      6  C   UNL     1       1.796  -0.458  23.106  0.00  0.00    +0.109 C 
ATOM      7  C   UNL     1       0.648  -0.610  24.104  0.00  0.00    +0.109 C 
ATOM      8  C   UNL     1       2.993  -1.371  23.360  0.00  0.00    +0.132 C 
ATOM      9  C   UNL     1       1.470   2.018  23.160  0.00  0.00    +0.125 C 
ATOM     10  C   UNL     1       0.306   1.798  24.129  0.00  0.00    +0.104 C 
ATOM     11  C   UNL     1       3.758   0.865  23.168  0.00  0.00    +0.305 C 
ATOM     13  C   UNL     1       5.497  -0.986  23.272  0.00  0.00    +0.133 C 
ENDROOT
BRANCH   3  12
ATOM     12  C   UNL     1      -1.461   0.311  24.829  0.00  0.00    +0.120 C 
BRANCH  12  14
ATOM      5  N   UNL     1      -3.199   4.100  25.828  0.00  0.00    -0.255 NA
ATOM     14  C   UNL     1      -2.106   1.626  25.174  0.00  0.00    -0.023 A 
ATOM     15  C   UNL     1      -3.496   1.804  25.157  0.00  0.00    +0.005 A 
ATOM     16  C   UNL     1      -1.271   2.681  25.515  0.00  0.00    +0.025 A 
ATOM     17  C   UNL     1      -4.007   3.075  25.496  0.00  0.00    +0.071 A 
ATOM     18  C   UNL     1      -4.368   0.757  24.816  0.00  0.00    +0.010 A 
ATOM     19  C   UNL     1      -1.864   3.886  25.831  0.00  0.00    +0.112 A 
ATOM     20  C   UNL     1      -5.389   3.251  25.479  0.00  0.00    +0.028 A 
ATOM     21  C   UNL     1      -5.745   0.961  24.807  0.00  0.00    +0.001 A 
ATOM     22  C   UNL     1      -6.255   2.209  25.140  0.00  0.00    +0.002 A 
ENDBRANCH  12  14
ENDBRANCH   3  12
TORSDOF 2
ENDMDL
