MODEL 1
REMARK VINA RESULT:      -7.3      0.000      0.000
REMARK  Name = 75536940
REMARK  6 active torsions:
REMARK  status: ('A' for Active; 'I' for Inactive)
REMARK    1  A    between atoms: O_2  and  C_7
REMARK    2  A    between atoms: O_2  and  C_15
REMARK    3  A    between atoms: N_4  and  C_9
REMARK    4  A    between atoms: C_9  and  C_12
REMARK    5  A    between atoms: C_13  and  C_16
REMARK    6  A    between atoms: C_14  and  C_17
REMARK                            x       y       z     vdW  Elec       q    Type
REMARK                         _______ _______ _______ _____ _____    ______ ____
ROOT
ATOM      1  O   UNL     1      -0.150  -1.061  24.688  0.00  0.00    -0.376 OA
ATOM      4  N   UNL     1      -2.291   0.957  23.654  0.00  0.00    -0.293 NA
ATOM      6  C   UNL     1      -3.165   0.085  24.446  0.00  0.00    +0.118 C 
ATOM      7  C   UNL     1      -2.512  -1.071  25.221  0.00  0.00    +0.157 C 
ATOM      8  C   UNL     1      -0.990   1.226  24.267  0.00  0.00    +0.113 C 
ATOM     10  C   UNL     1      -1.373  -1.759  24.481  0.00  0.00    +0.192 C 
ATOM     11  C   UNL     1      -0.003   0.115  23.903  0.00  0.00    +0.175 C 
ENDROOT
BRANCH   7   2
ATOM      2  O   UNL     1      -3.517  -2.048  25.491  0.00  0.00    -0.376 OA
ATOM     15  C   UNL     1      -3.887  -2.745  24.312  0.00  0.00    +0.194 C 
ENDBRANCH   7   2
BRANCH   4   9
ATOM      9  C   UNL     1      -2.991   2.198  23.319  0.00  0.00    +0.125 C 
BRANCH   9  12
ATOM      3  O   UNL     1      -3.560   4.276  26.321  0.00  0.00    -0.359 OA
ATOM      5  N   UNL     1      -4.779   3.612  26.277  0.00  0.00    -0.083 NA
ATOM     12  C   UNL     1      -3.463   2.926  24.549  0.00  0.00    +0.031 A 
ATOM     13  C   UNL     1      -2.784   3.859  25.287  0.00  0.00    +0.139 A 
ATOM     14  C   UNL     1      -4.698   2.812  25.210  0.00  0.00    +0.085 A 
ATOM     16  C   UNL     1      -1.451   4.467  25.185  0.00  0.00    +0.089 C 
ATOM     17  C   UNL     1      -5.838   1.948  24.861  0.00  0.00    +0.069 C 
ENDBRANCH   9  12
ENDBRANCH   4   9
TORSDOF 3
ENDMDL
MODEL 2
REMARK VINA RESULT:      -6.8      0.884      2.466
REMARK  Name = 75536940
REMARK  6 active torsions:
REMARK  status: ('A' for Active; 'I' for Inactive)
REMARK    1  A    between atoms: O_2  and  C_7
REMARK    2  A    between atoms: O_2  and  C_15
REMARK    3  A    between atoms: N_4  and  C_9
REMARK    4  A    between atoms: C_9  and  C_12
REMARK    5  A    between atoms: C_13  and  C_16
REMARK    6  A    between atoms: C_14  and  C_17
REMARK                            x       y       z     vdW  Elec       q    Type
REMARK                         _______ _______ _______ _____ _____    ______ ____
ROOT
ATOM      1  O   UNL     1      -2.062  -2.327  24.999  0.00  0.00    -0.376 OA
ATOM      4  N   UNL     1      -2.554   0.648  24.203  0.00  0.00    -0.293 NA
ATOM      6  C   UNL     1      -1.162   0.520  23.757  0.00  0.00    +0.118 C 
ATOM      7  C   UNL     1      -0.486  -0.852  23.902  0.00  0.00    +0.157 C 
ATOM      8  C   UNL     1      -3.383  -0.527  23.938  0.00  0.00    +0.113 C 
ATOM     10  C   UNL     1      -0.851  -1.601  25.176  0.00  0.00    +0.192 C 
ATOM     11  C   UNL     1      -3.240  -1.535  25.079  0.00  0.00    +0.175 C 
ENDROOT
BRANCH   7   2
ATOM      2  O   UNL     1       0.928  -0.654  23.896  0.00  0.00    -0.376 OA
ATOM     15  C   UNL     1       1.351   0.001  22.711  0.00  0.00    +0.194 C 
ENDBRANCH   7   2
BRANCH   4   9
ATOM      9  C   UNL     1      -3.150   1.863  23.645  0.00  0.00    +0.125 C 
BRANCH   9  12
ATOM      3  O   UNL     1      -3.903   4.364  26.259  0.00  0.00    -0.359 OA
ATOM      5  N   UNL     1      -5.118   3.691  26.239  0.00  0.00    -0.083 NA
ATOM     12  C   UNL     1      -3.697   2.764  24.720  0.00  0.00    +0.031 A 
ATOM     13  C   UNL     1      -3.065   3.802  25.350  0.00  0.00    +0.139 A 
ATOM     14  C   UNL     1      -4.971   2.740  25.312  0.00  0.00    +0.085 A 
ATOM     16  C   UNL     1      -1.727   4.399  25.241  0.00  0.00    +0.089 C 
ATOM     17  C   UNL     1      -6.089   1.824  25.027  0.00  0.00    +0.069 C 
ENDBRANCH   9  12
ENDBRANCH   4   9
TORSDOF 3
ENDMDL
MODEL 3
REMARK VINA RESULT:      -6.6      1.449      5.573
REMARK  Name = 75536940
REMARK  6 active torsions:
REMARK  status: ('A' for Active; 'I' for Inactive)
REMARK    1  A    between atoms: O_2  and  C_7
REMARK    2  A    between atoms: O_2  and  C_15
REMARK    3  A    between atoms: N_4  and  C_9
REMARK    4  A    between atoms: C_9  and  C_12
REMARK    5  A    between atoms: C_13  and  C_16
REMARK    6  A    between atoms: C_14  and  C_17
REMARK                            x       y       z     vdW  Elec       q    Type
REMARK                         _______ _______ _______ _____ _____    ______ ____
ROOT
ATOM      1  O   UNL     1      -5.663   3.026  26.168  0.00  0.00    -0.376 OA
ATOM      4  N   UNL     1      -3.783   1.743  24.037  0.00  0.00    -0.293 NA
ATOM      6  C   UNL     1      -2.851   2.726  24.600  0.00  0.00    +0.118 C 
ATOM      7  C   UNL     1      -3.342   3.590  25.772  0.00  0.00    +0.157 C 
ATOM      8  C   UNL     1      -4.640   1.088  25.025  0.00  0.00    +0.113 C 
ATOM     10  C   UNL     1      -4.795   4.033  25.661  0.00  0.00    +0.192 C 
ATOM     11  C   UNL     1      -5.885   1.938  25.281  0.00  0.00    +0.175 C 
ENDROOT
BRANCH   7   2
ATOM      2  O   UNL     1      -2.528   4.761  25.834  0.00  0.00    -0.376 OA
ATOM     15  C   UNL     1      -1.311   4.579  25.129  0.00  0.00    +0.194 C 
ENDBRANCH   7   2
BRANCH   4   9
ATOM      9  C   UNL     1      -3.053   0.765  23.229  0.00  0.00    +0.125 C 
BRANCH   9  12
ATOM      3  O   UNL     1      -1.870  -2.128  25.199  0.00  0.00    -0.359 OA
ATOM      5  N   UNL     1      -0.801  -1.266  25.408  0.00  0.00    -0.083 NA
ATOM     12  C   UNL     1      -2.357  -0.261  24.082  0.00  0.00    +0.031 A 
ATOM     13  C   UNL     1      -2.791  -1.518  24.409  0.00  0.00    +0.139 A 
ATOM     14  C   UNL     1      -1.114  -0.158  24.731  0.00  0.00    +0.085 A 
ATOM     16  C   UNL     1      -3.993  -2.298  24.087  0.00  0.00    +0.089 C 
ATOM     17  C   UNL     1      -0.184   0.984  24.735  0.00  0.00    +0.069 C 
ENDBRANCH   9  12
ENDBRANCH   4   9
TORSDOF 3
ENDMDL
MODEL 4
REMARK VINA RESULT:      -6.6      0.764      2.039
REMARK  Name = 75536940
REMARK  6 active torsions:
REMARK  status: ('A' for Active; 'I' for Inactive)
REMARK    1  A    between atoms: O_2  and  C_7
REMARK    2  A    between atoms: O_2  and  C_15
REMARK    3  A    between atoms: N_4  and  C_9
REMARK    4  A    between atoms: C_9  and  C_12
REMARK    5  A    between atoms: C_13  and  C_16
REMARK    6  A    between atoms: C_14  and  C_17
REMARK                            x       y       z     vdW  Elec       q    Type
REMARK                         _______ _______ _______ _____ _____    ______ ____
ROOT
ATOM      1  O   UNL     1      -0.467  -1.442  25.475  0.00  0.00    -0.376 OA
ATOM      4  N   UNL     1      -2.202   0.602  23.881  0.00  0.00    -0.293 NA
ATOM      6  C   UNL     1      -3.249  -0.367  24.223  0.00  0.00    +0.118 C 
ATOM      7  C   UNL     1      -2.855  -1.571  25.093  0.00  0.00    +0.157 C 
ATOM      8  C   UNL     1      -1.235   0.849  24.950  0.00  0.00    +0.113 C 
ATOM     10  C   UNL     1      -1.483  -2.153  24.776  0.00  0.00    +0.192 C 
ATOM     11  C   UNL     1      -0.117  -0.193  24.893  0.00  0.00    +0.175 C 
ENDROOT
BRANCH   7   2
ATOM      2  O   UNL     1      -3.825  -2.599  24.895  0.00  0.00    -0.376 OA
ATOM     15  C   UNL     1      -4.484  -2.453  23.648  0.00  0.00    +0.194 C 
ENDBRANCH   7   2
BRANCH   4   9
ATOM      9  C   UNL     1      -2.806   1.847  23.406  0.00  0.00    +0.125 C 
BRANCH   9  12
ATOM      3  O   UNL     1      -4.555   3.634  26.128  0.00  0.00    -0.359 OA
ATOM      5  N   UNL     1      -3.318   4.261  26.209  0.00  0.00    -0.083 NA
ATOM     12  C   UNL     1      -3.287   2.707  24.545  0.00  0.00    +0.031 A 
ATOM     13  C   UNL     1      -4.524   2.711  25.132  0.00  0.00    +0.139 A 
ATOM     14  C   UNL     1      -2.578   3.690  25.255  0.00  0.00    +0.085 A 
ATOM     16  C   UNL     1      -5.762   1.951  24.910  0.00  0.00    +0.089 C 
ATOM     17  C   UNL     1      -1.184   4.124  25.058  0.00  0.00    +0.069 C 
ENDBRANCH   9  12
ENDBRANCH   4   9
TORSDOF 3
ENDMDL
MODEL 5
REMARK VINA RESULT:      -6.4      1.551      5.293
REMARK  Name = 75536940
REMARK  6 active torsions:
REMARK  status: ('A' for Active; 'I' for Inactive)
REMARK    1  A    between atoms: O_2  and  C_7
REMARK    2  A    between atoms: O_2  and  C_15
REMARK    3  A    between atoms: N_4  and  C_9
REMARK    4  A    between atoms: C_9  and  C_12
REMARK    5  A    between atoms: C_13  and  C_16
REMARK    6  A    between atoms: C_14  and  C_17
REMARK                            x       y       z     vdW  Elec       q    Type
REMARK                         _______ _______ _______ _____ _____    ______ ____
ROOT
ATOM      1  O   UNL     1      -2.002   4.766  25.583  0.00  0.00    -0.376 OA
ATOM      4  N   UNL     1      -2.472   1.921  24.394  0.00  0.00    -0.293 NA
ATOM      6  C   UNL     1      -3.870   2.329  24.568  0.00  0.00    +0.118 C 
ATOM      7  C   UNL     1      -4.144   3.746  25.097  0.00  0.00    +0.157 C 
ATOM      8  C   UNL     1      -1.587   2.986  23.919  0.00  0.00    +0.113 C 
ATOM     10  C   UNL     1      -3.173   4.212  26.173  0.00  0.00    +0.192 C 
ATOM     11  C   UNL     1      -1.072   3.803  25.104  0.00  0.00    +0.175 C 
ENDROOT
BRANCH   7   2
ATOM      2  O   UNL     1      -5.459   3.767  25.651  0.00  0.00    -0.376 OA
ATOM     15  C   UNL     1      -5.970   2.455  25.817  0.00  0.00    +0.194 C 
ENDBRANCH   7   2
BRANCH   4   9
ATOM      9  C   UNL     1      -2.397   0.739  23.535  0.00  0.00    +0.125 C 
BRANCH   9  12
ATOM      3  O   UNL     1      -1.165  -2.211  25.390  0.00  0.00    -0.359 OA
ATOM      5  N   UNL     1       0.040  -1.758  24.867  0.00  0.00    -0.083 NA
ATOM     12  C   UNL     1      -1.654  -0.390  24.199  0.00  0.00    +0.031 A 
ATOM     13  C   UNL     1      -2.167  -1.387  24.986  0.00  0.00    +0.139 A 
ATOM     14  C   UNL     1      -0.278  -0.670  24.159  0.00  0.00    +0.085 A 
ATOM     16  C   UNL     1      -3.517  -1.726  25.453  0.00  0.00    +0.089 C 
ATOM     17  C   UNL     1       0.780   0.075  23.457  0.00  0.00    +0.069 C 
ENDBRANCH   9  12
ENDBRANCH   4   9
TORSDOF 3
ENDMDL
MODEL 6
REMARK VINA RESULT:      -6.1      1.961      3.477
REMARK  Name = 75536940
REMARK  6 active torsions:
REMARK  status: ('A' for Active; 'I' for Inactive)
REMARK    1  A    between atoms: O_2  and  C_7
REMARK    2  A    between atoms: O_2  and  C_15
REMARK    3  A    between atoms: N_4  and  C_9
REMARK    4  A    between atoms: C_9  and  C_12
REMARK    5  A    between atoms: C_13  and  C_16
REMARK    6  A    between atoms: C_14  and  C_17
REMARK                            x       y       z     vdW  Elec       q    Type
REMARK                         _______ _______ _______ _____ _____    ______ ____
ROOT
ATOM      1  O   UNL     1       0.533   2.338  25.570  0.00  0.00    -0.376 OA
ATOM      4  N   UNL     1      -2.044   2.389  23.815  0.00  0.00    -0.293 NA
ATOM      6  C   UNL     1      -1.487   1.110  23.364  0.00  0.00    +0.118 C 
ATOM      7  C   UNL     1      -0.189   0.620  24.025  0.00  0.00    +0.157 C 
ATOM      8  C   UNL     1      -1.900   2.639  25.250  0.00  0.00    +0.113 C 
ATOM     10  C   UNL     1       0.820   1.722  24.320  0.00  0.00    +0.192 C 
ATOM     11  C   UNL     1      -0.537   3.273  25.534  0.00  0.00    +0.175 C 
ENDROOT
BRANCH   7   2
ATOM      2  O   UNL     1       0.429  -0.320  23.147  0.00  0.00    -0.376 OA
ATOM     15  C   UNL     1       1.732   0.100  22.776  0.00  0.00    +0.194 C 
ENDBRANCH   7   2
BRANCH   4   9
ATOM      9  C   UNL     1      -3.439   2.508  23.389  0.00  0.00    +0.125 C 
BRANCH   9  12
ATOM      3  O   UNL     1      -5.598   0.747  25.817  0.00  0.00    -0.359 OA
ATOM      5  N   UNL     1      -5.923   2.058  26.141  0.00  0.00    -0.083 NA
ATOM     12  C   UNL     1      -4.393   2.036  24.454  0.00  0.00    +0.031 A 
ATOM     13  C   UNL     1      -4.686   0.746  24.811  0.00  0.00    +0.139 A 
ATOM     14  C   UNL     1      -5.192   2.809  25.314  0.00  0.00    +0.085 A 
ATOM     16  C   UNL     1      -4.230  -0.570  24.344  0.00  0.00    +0.089 C 
ATOM     17  C   UNL     1      -5.292   4.277  25.385  0.00  0.00    +0.069 C 
ENDBRANCH   9  12
ENDBRANCH   4   9
TORSDOF 3
ENDMDL
MODEL 7
REMARK VINA RESULT:      -5.9      2.119      3.301
REMARK  Name = 75536940
REMARK  6 active torsions:
REMARK  status: ('A' for Active; 'I' for Inactive)
REMARK    1  A    between atoms: O_2  and  C_7
REMARK    2  A    between atoms: O_2  and  C_15
REMARK    3  A    between atoms: N_4  and  C_9
REMARK    4  A    between atoms: C_9  and  C_12
REMARK    5  A    between atoms: C_13  and  C_16
REMARK    6  A    between atoms: C_14  and  C_17
REMARK                            x       y       z     vdW  Elec       q    Type
REMARK                         _______ _______ _______ _____ _____    ______ ____
ROOT
ATOM      1  O   UNL     1       0.513   2.323  25.579  0.00  0.00    -0.376 OA
ATOM      4  N   UNL     1      -2.052   2.411  23.808  0.00  0.00    -0.293 NA
ATOM      6  C   UNL     1      -1.490   1.144  23.331  0.00  0.00    +0.118 C 
ATOM      7  C   UNL     1      -0.196   0.640  23.989  0.00  0.00    +0.157 C 
ATOM      8  C   UNL     1      -1.918   2.627  25.249  0.00  0.00    +0.113 C 
ATOM     10  C   UNL     1       0.809   1.736  24.317  0.00  0.00    +0.192 C 
ATOM     11  C   UNL     1      -0.559   3.256  25.557  0.00  0.00    +0.175 C 
ENDROOT
BRANCH   7   2
ATOM      2  O   UNL     1       0.430  -0.278  23.093  0.00  0.00    -0.376 OA
ATOM     15  C   UNL     1       1.760   0.116  22.797  0.00  0.00    +0.194 C 
ENDBRANCH   7   2
BRANCH   4   9
ATOM      9  C   UNL     1      -3.445   2.538  23.375  0.00  0.00    +0.125 C 
BRANCH   9  12
ATOM      3  O   UNL     1      -5.900   2.151  26.110  0.00  0.00    -0.359 OA
ATOM      5  N   UNL     1      -5.644   0.811  25.850  0.00  0.00    -0.083 NA
ATOM     12  C   UNL     1      -4.408   2.117  24.453  0.00  0.00    +0.031 A 
ATOM     13  C   UNL     1      -5.157   2.920  25.272  0.00  0.00    +0.139 A 
ATOM     14  C   UNL     1      -4.751   0.816  24.857  0.00  0.00    +0.085 A 
ATOM     16  C   UNL     1      -5.309   4.374  25.414  0.00  0.00    +0.089 C 
ATOM     17  C   UNL     1      -4.250  -0.462  24.323  0.00  0.00    +0.069 C 
ENDBRANCH   9  12
ENDBRANCH   4   9
TORSDOF 3
ENDMDL
MODEL 8
REMARK VINA RESULT:      -5.4      1.641      4.860
REMARK  Name = 75536940
REMARK  6 active torsions:
REMARK  status: ('A' for Active; 'I' for Inactive)
REMARK    1  A    between atoms: O_2  and  C_7
REMARK    2  A    between atoms: O_2  and  C_15
REMARK    3  A    between atoms: N_4  and  C_9
REMARK    4  A    between atoms: C_9  and  C_12
REMARK    5  A    between atoms: C_13  and  C_16
REMARK    6  A    between atoms: C_14  and  C_17
REMARK                            x       y       z     vdW  Elec       q    Type
REMARK                         _______ _______ _______ _____ _____    ______ ____
ROOT
ATOM      1  O   UNL     1      -1.851   4.459  25.362  0.00  0.00    -0.376 OA
ATOM      4  N   UNL     1      -2.782   1.670  24.323  0.00  0.00    -0.293 NA
ATOM      6  C   UNL     1      -4.097   2.283  24.536  0.00  0.00    +0.118 C 
ATOM      7  C   UNL     1      -4.138   3.744  25.012  0.00  0.00    +0.157 C 
ATOM      8  C   UNL     1      -1.777   2.574  23.764  0.00  0.00    +0.113 C 
ATOM     10  C   UNL     1      -3.060   4.104  26.025  0.00  0.00    +0.192 C 
ATOM     11  C   UNL     1      -1.094   3.353  24.888  0.00  0.00    +0.175 C 
ENDROOT
BRANCH   7   2
ATOM      2  O   UNL     1      -5.409   3.977  25.620  0.00  0.00    -0.376 OA
ATOM     15  C   UNL     1      -6.053   2.758  25.951  0.00  0.00    +0.194 C 
ENDBRANCH   7   2
BRANCH   4   9
ATOM      9  C   UNL     1      -2.919   0.456  23.516  0.00  0.00    +0.125 C 
BRANCH   9  12
ATOM      3  O   UNL     1      -2.154  -2.295  25.861  0.00  0.00    -0.359 OA
ATOM      5  N   UNL     1      -3.232  -2.864  25.195  0.00  0.00    -0.083 NA
ATOM     12  C   UNL     1      -2.813  -0.790  24.354  0.00  0.00    +0.031 A 
ATOM     13  C   UNL     1      -1.913  -1.060  25.350  0.00  0.00    +0.139 A 
ATOM     14  C   UNL     1      -3.609  -1.947  24.301  0.00  0.00    +0.085 A 
ATOM     16  C   UNL     1      -0.797  -0.314  25.947  0.00  0.00    +0.089 C 
ATOM     17  C   UNL     1      -4.747  -2.225  23.408  0.00  0.00    +0.069 C 
ENDBRANCH   9  12
ENDBRANCH   4   9
TORSDOF 3
ENDMDL
MODEL 9
REMARK VINA RESULT:      -5.1      1.881      4.859
REMARK  Name = 75536940
REMARK  6 active torsions:
REMARK  status: ('A' for Active; 'I' for Inactive)
REMARK    1  A    between atoms: O_2  and  C_7
REMARK    2  A    between atoms: O_2  and  C_15
REMARK    3  A    between atoms: N_4  and  C_9
REMARK    4  A    between atoms: C_9  and  C_12
REMARK    5  A    between atoms: C_13  and  C_16
REMARK    6  A    between atoms: C_14  and  C_17
REMARK                            x       y       z     vdW  Elec       q    Type
REMARK                         _______ _______ _______ _____ _____    ______ ____
ROOT
ATOM      1  O   UNL     1      -2.085   4.834  24.398  0.00  0.00    -0.376 OA
ATOM      4  N   UNL     1      -1.411   2.057  25.646  0.00  0.00    -0.293 NA
ATOM      6  C   UNL     1      -2.683   1.714  25.001  0.00  0.00    +0.118 C 
ATOM      7  C   UNL     1      -3.388   2.805  24.181  0.00  0.00    +0.157 C 
ATOM      8  C   UNL     1      -0.556   2.948  24.860  0.00  0.00    +0.113 C 
ATOM     10  C   UNL     1      -3.300   4.200  24.784  0.00  0.00    +0.192 C 
ATOM     11  C   UNL     1      -0.941   4.404  25.123  0.00  0.00    +0.175 C 
ENDROOT
BRANCH   7   2
ATOM      2  O   UNL     1      -4.769   2.458  24.073  0.00  0.00    -0.376 OA
ATOM     15  C   UNL     1      -5.106   1.405  24.962  0.00  0.00    +0.194 C 
ENDBRANCH   7   2
BRANCH   4   9
ATOM      9  C   UNL     1      -0.700   0.838  26.035  0.00  0.00    +0.125 C 
BRANCH   9  12
ATOM      3  O   UNL     1      -0.995  -1.787  23.451  0.00  0.00    -0.359 OA
ATOM      5  N   UNL     1      -2.059  -2.156  24.263  0.00  0.00    -0.083 NA
ATOM     12  C   UNL     1      -1.029  -0.317  25.127  0.00  0.00    +0.031 A 
ATOM     13  C   UNL     1      -0.389  -0.690  23.975  0.00  0.00    +0.139 A 
ATOM     14  C   UNL     1      -2.060  -1.263  25.257  0.00  0.00    +0.085 A 
ATOM     16  C   UNL     1       0.766  -0.166  23.233  0.00  0.00    +0.089 C 
ATOM     17  C   UNL     1      -3.076  -1.358  26.319  0.00  0.00    +0.069 C 
ENDBRANCH   9  12
ENDBRANCH   4   9
TORSDOF 3
ENDMDL
MODEL 10
REMARK VINA RESULT:      -5.0      1.605      2.554
REMARK  Name = 75536940
REMARK  6 active torsions:
REMARK  status: ('A' for Active; 'I' for Inactive)
REMARK    1  A    between atoms: O_2  and  C_7
REMARK    2  A    between atoms: O_2  and  C_15
REMARK    3  A    between atoms: N_4  and  C_9
REMARK    4  A    between atoms: C_9  and  C_12
REMARK    5  A    between atoms: C_13  and  C_16
REMARK    6  A    between atoms: C_14  and  C_17
REMARK                            x       y       z     vdW  Elec       q    Type
REMARK                         _______ _______ _______ _____ _____    ______ ____
ROOT
ATOM      1  O   UNL     1       0.996  -0.259  23.282  0.00  0.00    -0.376 OA
ATOM      4  N   UNL     1      -1.062   1.253  25.072  0.00  0.00    -0.293 NA
ATOM      6  C   UNL     1      -1.390  -0.123  25.461  0.00  0.00    +0.118 C 
ATOM      7  C   UNL     1      -0.555  -1.259  24.849  0.00  0.00    +0.157 C 
ATOM      8  C   UNL     1       0.368   1.506  24.894  0.00  0.00    +0.113 C 
ATOM     10  C   UNL     1      -0.184  -1.048  23.387  0.00  0.00    +0.192 C 
ATOM     11  C   UNL     1       0.791   1.135  23.472  0.00  0.00    +0.175 C 
ENDROOT
BRANCH   7   2
ATOM      2  O   UNL     1      -1.312  -2.466  24.942  0.00  0.00    -0.376 OA
ATOM     15  C   UNL     1      -2.688  -2.232  24.688  0.00  0.00    +0.194 C 
ENDBRANCH   7   2
BRANCH   4   9
ATOM      9  C   UNL     1      -1.660   2.198  26.016  0.00  0.00    +0.125 C 
BRANCH   9  12
ATOM      3  O   UNL     1      -4.676   3.683  24.479  0.00  0.00    -0.359 OA
ATOM      5  N   UNL     1      -3.835   4.788  24.431  0.00  0.00    -0.083 NA
ATOM     12  C   UNL     1      -2.741   3.025  25.372  0.00  0.00    +0.031 A 
ATOM     13  C   UNL     1      -4.013   2.639  25.041  0.00  0.00    +0.139 A 
ATOM     14  C   UNL     1      -2.686   4.371  24.970  0.00  0.00    +0.085 A 
ATOM     16  C   UNL     1      -4.763   1.383  25.169  0.00  0.00    +0.089 C 
ATOM     17  C   UNL     1      -1.553   5.305  25.079  0.00  0.00    +0.069 C 
ENDBRANCH   9  12
ENDBRANCH   4   9
TORSDOF 3
ENDMDL
