MODEL 1
REMARK VINA RESULT:      14.8      0.000      0.000
REMARK  Name = 7682269
REMARK  5 active torsions:
REMARK  status: ('A' for Active; 'I' for Inactive)
REMARK    1  A    between atoms: N_4  and  C_14
REMARK    2  A    between atoms: N_6  and  C_28
REMARK    3  A    between atoms: C_14  and  C_19
REMARK    4  A    between atoms: C_15  and  C_20
REMARK    5  A    between atoms: C_33  and  C_34
REMARK                            x       y       z     vdW  Elec       q    Type
REMARK                         _______ _______ _______ _____ _____    ______ ____
ROOT
ATOM      1  O   UNL     1      -3.704   4.425  29.010  0.00  0.00    -0.268 OA
ATOM      4  N   UNL     1      -4.922   1.675  25.034  0.00  0.00    -0.294 NA
ATOM      5  N   UNL     1      -3.343   3.818  26.777  0.00  0.00    -0.311 N 
ATOM      7  C   UNL     1      -5.139   4.168  24.978  0.00  0.00    +0.024 C 
ATOM      8  C   UNL     1      -3.000   3.139  24.383  0.00  0.00    +0.051 C 
ATOM      9  C   UNL     1      -3.954   4.278  24.034  0.00  0.00    +0.017 C 
ATOM     10  C   UNL     1      -5.834   2.802  24.807  0.00  0.00    +0.090 C 
ATOM     11  C   UNL     1      -3.723   1.785  24.190  0.00  0.00    +0.094 C 
ATOM     12  C   UNL     1      -4.643   4.396  26.408  0.00  0.00    +0.130 C 
ATOM     13  C   UNL     1      -2.470   3.275  25.814  0.00  0.00    +0.034 A 
ATOM     15  C   UNL     1      -1.222   2.880  26.177  0.00  0.00    +0.002 A 
ATOM     16  C   UNL     1      -2.986   3.946  28.132  0.00  0.00    +0.252 A 
ATOM     17  C   UNL     1      -0.821   2.993  27.566  0.00  0.00    +0.015 A 
ATOM     18  C   UNL     1      -1.634   3.476  28.506  0.00  0.00    +0.071 A 
ENDROOT
BRANCH  15  20
ATOM     20  C   UNL     1      -0.266   2.324  25.196  0.00  0.00    -0.016 A 
ATOM     22  C   UNL     1       0.524   3.183  24.438  0.00  0.00    +0.010 A 
ATOM     23  C   UNL     1      -0.164   0.946  25.036  0.00  0.00    +0.010 A 
ATOM     26  C   UNL     1       1.426   2.658  23.512  0.00  0.00    +0.024 A 
ATOM     27  C   UNL     1       0.738   0.421  24.110  0.00  0.00    +0.024 A 
ATOM     28  C   UNL     1       1.533   1.277  23.348  0.00  0.00    +0.033 A 
BRANCH  28   6
ATOM      3  O   UNL     1       4.528   0.993  23.484  0.00  0.00    -0.276 OA
ATOM      6  N   UNL     1       2.435   0.751  22.423  0.00  0.00    -0.286 N 
ATOM     33  C   UNL     1       3.828   0.644  22.538  0.00  0.00    +0.214 C 
ATOM     34  C   UNL     1       4.443   0.015  21.314  0.00  0.00    +0.109 C 
ATOM     35  H   UNL     1       2.021   0.405  21.561  0.00  0.00    +0.155 HD
ENDBRANCH  28   6
ENDBRANCH  15  20
BRANCH   4  14
ATOM     14  C   UNL     1      -5.599   0.400  24.816  0.00  0.00    +0.158 C 
BRANCH  14  19
ATOM      2  O   UNL     1      -3.447  -0.602  25.182  0.00  0.00    -0.458 OA
ATOM     19  C   UNL     1      -4.628  -0.714  24.548  0.00  0.00    +0.120 A 
ATOM     21  C   UNL     1      -4.713  -1.825  23.780  0.00  0.00    +0.054 A 
ATOM     24  C   UNL     1      -3.467  -2.487  23.938  0.00  0.00    +0.020 A 
ATOM     25  C   UNL     1      -2.726  -1.696  24.808  0.00  0.00    +0.135 A 
ATOM     29  C   UNL     1      -2.885  -3.667  23.441  0.00  0.00    +0.011 A 
ATOM     30  C   UNL     1      -1.430  -1.996  25.227  0.00  0.00    +0.047 A 
ATOM     31  C   UNL     1      -1.584  -3.995  23.843  0.00  0.00    +0.001 A 
ATOM     32  C   UNL     1      -0.872  -3.174  24.721  0.00  0.00    +0.004 A 
ENDBRANCH  14  19
ENDBRANCH   4  14
TORSDOF 4
ENDMDL
MODEL 2
REMARK VINA RESULT:      16.5      2.151      6.212
REMARK  Name = 7682269
REMARK  5 active torsions:
REMARK  status: ('A' for Active; 'I' for Inactive)
REMARK    1  A    between atoms: N_4  and  C_14
REMARK    2  A    between atoms: N_6  and  C_28
REMARK    3  A    between atoms: C_14  and  C_19
REMARK    4  A    between atoms: C_15  and  C_20
REMARK    5  A    between atoms: C_33  and  C_34
REMARK                            x       y       z     vdW  Elec       q    Type
REMARK                         _______ _______ _______ _____ _____    ______ ____
ROOT
ATOM      1  O   UNL     1      -3.940   5.198  25.580  0.00  0.00    -0.268 OA
ATOM      4  N   UNL     1      -0.052   2.424  24.151  0.00  0.00    -0.294 NA
ATOM      5  N   UNL     1      -2.747   3.184  25.661  0.00  0.00    -0.311 N 
ATOM      7  C   UNL     1      -0.343   3.075  26.550  0.00  0.00    +0.024 C 
ATOM      8  C   UNL     1      -1.430   1.046  25.721  0.00  0.00    +0.051 C 
ATOM      9  C   UNL     1      -0.708   1.648  26.923  0.00  0.00    +0.017 C 
ATOM     10  C   UNL     1       0.567   3.088  25.304  0.00  0.00    +0.090 C 
ATOM     11  C   UNL     1      -0.488   1.062  24.493  0.00  0.00    +0.094 C 
ATOM     12  C   UNL     1      -1.636   3.867  26.337  0.00  0.00    +0.130 C 
ATOM     13  C   UNL     1      -2.731   1.796  25.418  0.00  0.00    +0.034 A 
ATOM     15  C   UNL     1      -3.835   1.182  24.920  0.00  0.00    +0.002 A 
ATOM     16  C   UNL     1      -3.868   3.986  25.375  0.00  0.00    +0.252 A 
ATOM     17  C   UNL     1      -5.007   1.978  24.609  0.00  0.00    +0.015 A 
ATOM     18  C   UNL     1      -5.044   3.297  24.801  0.00  0.00    +0.071 A 
ENDROOT
BRANCH  15  20
ATOM     20  C   UNL     1      -3.869  -0.274  24.669  0.00  0.00    -0.016 A 
ATOM     22  C   UNL     1      -3.477  -1.157  25.671  0.00  0.00    +0.010 A 
ATOM     23  C   UNL     1      -4.292  -0.754  23.433  0.00  0.00    +0.010 A 
ATOM     26  C   UNL     1      -3.509  -2.531  25.435  0.00  0.00    +0.024 A 
ATOM     27  C   UNL     1      -4.324  -2.128  23.197  0.00  0.00    +0.024 A 
ATOM     28  C   UNL     1      -3.933  -3.017  24.197  0.00  0.00    +0.033 A 
BRANCH  28   6
ATOM      3  O   UNL     1      -2.175  -4.744  22.467  0.00  0.00    -0.276 OA
ATOM      6  N   UNL     1      -3.966  -4.391  23.961  0.00  0.00    -0.286 N 
ATOM     33  C   UNL     1      -3.119  -5.148  23.140  0.00  0.00    +0.214 C 
ATOM     34  C   UNL     1      -3.486  -6.611  23.155  0.00  0.00    +0.109 C 
ATOM     35  H   UNL     1      -4.699  -4.899  24.451  0.00  0.00    +0.155 HD
ENDBRANCH  28   6
ENDBRANCH  15  20
BRANCH   4  14
ATOM     14  C   UNL     1       0.855   2.411  23.006  0.00  0.00    +0.158 C 
BRANCH  14  19
ATOM      2  O   UNL     1       3.180   1.856  23.238  0.00  0.00    -0.458 OA
ATOM     19  C   UNL     1       1.929   1.371  23.152  0.00  0.00    +0.120 A 
ATOM     21  C   UNL     1       1.879   0.020  23.213  0.00  0.00    +0.054 A 
ATOM     24  C   UNL     1       3.228  -0.400  23.353  0.00  0.00    +0.020 A 
ATOM     25  C   UNL     1       3.988   0.765  23.363  0.00  0.00    +0.135 A 
ATOM     29  C   UNL     1       3.890  -1.634  23.471  0.00  0.00    +0.011 A 
ATOM     30  C   UNL     1       5.377   0.792  23.484  0.00  0.00    +0.047 A 
ATOM     31  C   UNL     1       5.287  -1.639  23.594  0.00  0.00    +0.001 A 
ATOM     32  C   UNL     1       6.014  -0.446  23.601  0.00  0.00    +0.004 A 
ENDBRANCH  14  19
ENDBRANCH   4  14
TORSDOF 4
ENDMDL
MODEL 3
REMARK VINA RESULT:      16.8      2.070      2.406
REMARK  Name = 7682269
REMARK  5 active torsions:
REMARK  status: ('A' for Active; 'I' for Inactive)
REMARK    1  A    between atoms: N_4  and  C_14
REMARK    2  A    between atoms: N_6  and  C_28
REMARK    3  A    between atoms: C_14  and  C_19
REMARK    4  A    between atoms: C_15  and  C_20
REMARK    5  A    between atoms: C_33  and  C_34
REMARK                            x       y       z     vdW  Elec       q    Type
REMARK                         _______ _______ _______ _____ _____    ______ ____
ROOT
ATOM      1  O   UNL     1      -2.474   6.747  25.108  0.00  0.00    -0.268 OA
ATOM      4  N   UNL     1      -4.055   2.033  24.740  0.00  0.00    -0.294 NA
ATOM      5  N   UNL     1      -2.334   4.634  24.110  0.00  0.00    -0.311 N 
ATOM      7  C   UNL     1      -4.304   3.618  22.819  0.00  0.00    +0.024 C 
ATOM      8  C   UNL     1      -2.225   2.352  23.064  0.00  0.00    +0.051 C 
ATOM      9  C   UNL     1      -3.222   2.890  22.041  0.00  0.00    +0.017 C 
ATOM     10  C   UNL     1      -4.999   2.653  23.802  0.00  0.00    +0.090 C 
ATOM     11  C   UNL     1      -2.948   1.380  24.026  0.00  0.00    +0.094 C 
ATOM     12  C   UNL     1      -3.670   4.818  23.528  0.00  0.00    +0.130 C 
ATOM     13  C   UNL     1      -1.556   3.490  23.842  0.00  0.00    +0.034 A 
ATOM     15  C   UNL     1      -0.273   3.424  24.284  0.00  0.00    +0.002 A 
ATOM     16  C   UNL     1      -1.844   5.720  24.857  0.00  0.00    +0.252 A 
ATOM     17  C   UNL     1       0.264   4.524  25.062  0.00  0.00    +0.015 A 
ATOM     18  C   UNL     1      -0.455   5.607  25.356  0.00  0.00    +0.071 A 
ENDROOT
BRANCH  15  20
ATOM     20  C   UNL     1       0.586   2.252  24.008  0.00  0.00    -0.016 A 
ATOM     22  C   UNL     1       1.853   2.438  23.465  0.00  0.00    +0.010 A 
ATOM     23  C   UNL     1       0.120   0.972  24.291  0.00  0.00    +0.010 A 
ATOM     26  C   UNL     1       2.663   1.333  23.204  0.00  0.00    +0.024 A 
ATOM     27  C   UNL     1       0.930  -0.133  24.030  0.00  0.00    +0.024 A 
ATOM     28  C   UNL     1       2.202   0.047  23.487  0.00  0.00    +0.033 A 
BRANCH  28   6
ATOM      3  O   UNL     1       5.021  -0.557  24.358  0.00  0.00    -0.276 OA
ATOM      6  N   UNL     1       3.012  -1.058  23.227  0.00  0.00    -0.286 N 
ATOM     33  C   UNL     1       4.325  -1.289  23.659  0.00  0.00    +0.214 C 
ATOM     34  C   UNL     1       4.854  -2.611  23.162  0.00  0.00    +0.109 C 
ATOM     35  H   UNL     1       2.588  -1.782  22.651  0.00  0.00    +0.155 HD
ENDBRANCH  28   6
ENDBRANCH  15  20
BRANCH   4  14
ATOM     14  C   UNL     1      -4.737   1.091  25.623  0.00  0.00    +0.158 C 
BRANCH  14  19
ATOM      2  O   UNL     1      -4.774  -0.824  24.174  0.00  0.00    -0.458 OA
ATOM     19  C   UNL     1      -4.337  -0.330  25.345  0.00  0.00    +0.120 A 
ATOM     21  C   UNL     1      -3.610  -1.222  26.057  0.00  0.00    +0.054 A 
ATOM     24  C   UNL     1      -3.578  -2.400  25.265  0.00  0.00    +0.020 A 
ATOM     25  C   UNL     1      -4.308  -2.104  24.119  0.00  0.00    +0.135 A 
ATOM     29  C   UNL     1      -3.015  -3.682  25.391  0.00  0.00    +0.011 A 
ATOM     30  C   UNL     1      -4.521  -3.002  23.073  0.00  0.00    +0.047 A 
ATOM     31  C   UNL     1      -3.212  -4.607  24.356  0.00  0.00    +0.001 A 
ATOM     32  C   UNL     1      -3.951  -4.270  23.219  0.00  0.00    +0.004 A 
ENDBRANCH  14  19
ENDBRANCH   4  14
TORSDOF 4
ENDMDL
MODEL 4
REMARK VINA RESULT:      18.1      2.549      4.484
REMARK  Name = 7682269
REMARK  5 active torsions:
REMARK  status: ('A' for Active; 'I' for Inactive)
REMARK    1  A    between atoms: N_4  and  C_14
REMARK    2  A    between atoms: N_6  and  C_28
REMARK    3  A    between atoms: C_14  and  C_19
REMARK    4  A    between atoms: C_15  and  C_20
REMARK    5  A    between atoms: C_33  and  C_34
REMARK                            x       y       z     vdW  Elec       q    Type
REMARK                         _______ _______ _______ _____ _____    ______ ____
ROOT
ATOM      1  O   UNL     1      -6.484   1.781  26.948  0.00  0.00    -0.268 OA
ATOM      4  N   UNL     1      -2.550  -0.737  25.204  0.00  0.00    -0.294 NA
ATOM      5  N   UNL     1      -4.799   1.509  25.345  0.00  0.00    -0.311 N 
ATOM      7  C   UNL     1      -4.664  -0.588  23.873  0.00  0.00    +0.024 C 
ATOM      8  C   UNL     1      -2.980   1.172  23.645  0.00  0.00    +0.051 C 
ATOM      9  C   UNL     1      -4.001   0.343  22.872  0.00  0.00    +0.017 C 
ATOM     10  C   UNL     1      -3.610  -1.500  24.536  0.00  0.00    +0.090 C 
ATOM     11  C   UNL     1      -1.932   0.231  24.287  0.00  0.00    +0.094 C 
ATOM     12  C   UNL     1      -5.427   0.260  24.894  0.00  0.00    +0.130 C 
ATOM     13  C   UNL     1      -3.657   2.039  24.711  0.00  0.00    +0.034 A 
ATOM     15  C   UNL     1      -3.192   3.264  25.067  0.00  0.00    +0.002 A 
ATOM     16  C   UNL     1      -5.476   2.191  26.372  0.00  0.00    +0.252 A 
ATOM     17  C   UNL     1      -3.863   3.995  26.126  0.00  0.00    +0.015 A 
ATOM     18  C   UNL     1      -4.927   3.509  26.763  0.00  0.00    +0.071 A 
ENDROOT
BRANCH  15  20
ATOM     20  C   UNL     1      -2.011   3.868  24.415  0.00  0.00    -0.016 A 
ATOM     22  C   UNL     1      -1.244   3.109  23.536  0.00  0.00    +0.010 A 
ATOM     23  C   UNL     1      -1.672   5.190  24.685  0.00  0.00    +0.010 A 
ATOM     26  C   UNL     1      -0.129   3.679  22.921  0.00  0.00    +0.024 A 
ATOM     27  C   UNL     1      -0.557   5.760  24.071  0.00  0.00    +0.024 A 
ATOM     28  C   UNL     1       0.214   5.004  23.188  0.00  0.00    +0.033 A 
BRANCH  28   6
ATOM      3  O   UNL     1       0.674   5.788  20.317  0.00  0.00    -0.276 OA
ATOM      6  N   UNL     1       1.329   5.574  22.573  0.00  0.00    -0.286 N 
ATOM     33  C   UNL     1       1.490   5.920  21.224  0.00  0.00    +0.214 C 
ATOM     34  C   UNL     1       2.850   6.515  20.958  0.00  0.00    +0.109 C 
ATOM     35  H   UNL     1       2.118   5.759  23.188  0.00  0.00    +0.155 HD
ENDBRANCH  28   6
ENDBRANCH  15  20
BRANCH   4  14
ATOM     14  C   UNL     1      -1.546  -1.629  25.778  0.00  0.00    +0.158 C 
BRANCH  14  19
ATOM      2  O   UNL     1      -0.077  -0.358  24.365  0.00  0.00    -0.458 OA
ATOM     19  C   UNL     1      -0.206  -1.463  25.120  0.00  0.00    +0.120 A 
ATOM     21  C   UNL     1       0.913  -2.224  25.139  0.00  0.00    +0.054 A 
ATOM     24  C   UNL     1       1.848  -1.539  24.319  0.00  0.00    +0.020 A 
ATOM     25  C   UNL     1       1.192  -0.399  23.868  0.00  0.00    +0.135 A 
ATOM     29  C   UNL     1       3.175  -1.756  23.908  0.00  0.00    +0.011 A 
ATOM     30  C   UNL     1       1.766   0.554  23.027  0.00  0.00    +0.047 A 
ATOM     31  C   UNL     1       3.779  -0.816  23.062  0.00  0.00    +0.001 A 
ATOM     32  C   UNL     1       3.086   0.318  22.632  0.00  0.00    +0.004 A 
ENDBRANCH  14  19
ENDBRANCH   4  14
TORSDOF 4
ENDMDL
MODEL 5
REMARK VINA RESULT:      18.6      2.309      6.542
REMARK  Name = 7682269
REMARK  5 active torsions:
REMARK  status: ('A' for Active; 'I' for Inactive)
REMARK    1  A    between atoms: N_4  and  C_14
REMARK    2  A    between atoms: N_6  and  C_28
REMARK    3  A    between atoms: C_14  and  C_19
REMARK    4  A    between atoms: C_15  and  C_20
REMARK    5  A    between atoms: C_33  and  C_34
REMARK                            x       y       z     vdW  Elec       q    Type
REMARK                         _______ _______ _______ _____ _____    ______ ____
ROOT
ATOM      1  O   UNL     1       0.778  -0.293  21.357  0.00  0.00    -0.268 OA
ATOM      4  N   UNL     1      -2.979  -1.038  24.548  0.00  0.00    -0.294 NA
ATOM      5  N   UNL     1       0.006  -0.575  23.550  0.00  0.00    -0.311 N 
ATOM      7  C   UNL     1      -1.156  -2.735  24.303  0.00  0.00    +0.024 C 
ATOM      8  C   UNL     1      -0.868  -0.889  25.883  0.00  0.00    +0.051 C 
ATOM      9  C   UNL     1      -0.600  -2.377  25.670  0.00  0.00    +0.017 C 
ATOM     10  C   UNL     1      -2.669  -2.440  24.246  0.00  0.00    +0.090 C 
ATOM     11  C   UNL     1      -2.393  -0.630  25.833  0.00  0.00    +0.094 C 
ATOM     12  C   UNL     1      -0.370  -1.962  23.241  0.00  0.00    +0.130 C 
ATOM     13  C   UNL     1      -0.136  -0.036  24.844  0.00  0.00    +0.034 A 
ATOM     15  C   UNL     1       0.353   1.200  25.120  0.00  0.00    +0.002 A 
ATOM     16  C   UNL     1       0.616   0.135  22.500  0.00  0.00    +0.252 A 
ATOM     17  C   UNL     1       0.985   1.964  24.061  0.00  0.00    +0.015 A 
ATOM     18  C   UNL     1       1.109   1.493  22.820  0.00  0.00    +0.071 A 
ENDROOT
BRANCH  15  20
ATOM     20  C   UNL     1       0.245   1.797  26.469  0.00  0.00    -0.016 A 
ATOM     22  C   UNL     1      -0.948   2.392  26.867  0.00  0.00    +0.010 A 
ATOM     23  C   UNL     1       1.338   1.761  27.330  0.00  0.00    +0.010 A 
ATOM     26  C   UNL     1      -1.049   2.955  28.139  0.00  0.00    +0.024 A 
ATOM     27  C   UNL     1       1.236   2.324  28.602  0.00  0.00    +0.024 A 
ATOM     28  C   UNL     1       0.043   2.921  29.007  0.00  0.00    +0.033 A 
BRANCH  28   6
ATOM      3  O   UNL     1       1.028   1.918  31.670  0.00  0.00    -0.276 OA
ATOM      6  N   UNL     1      -0.059   3.483  30.280  0.00  0.00    -0.286 N 
ATOM     33  C   UNL     1       0.420   2.970  31.492  0.00  0.00    +0.214 C 
ATOM     34  C   UNL     1       0.107   3.885  32.649  0.00  0.00    +0.109 C 
ATOM     35  H   UNL     1      -0.542   4.378  30.322  0.00  0.00    +0.155 HD
ENDBRANCH  28   6
ENDBRANCH  15  20
BRANCH   4  14
ATOM     14  C   UNL     1      -4.421  -0.806  24.533  0.00  0.00    +0.158 C 
BRANCH  14  19
ATOM      2  O   UNL     1      -3.872   1.521  24.297  0.00  0.00    -0.458 OA
ATOM     19  C   UNL     1      -4.760   0.636  24.784  0.00  0.00    +0.120 A 
ATOM     21  C   UNL     1      -5.802   1.225  25.416  0.00  0.00    +0.054 A 
ATOM     24  C   UNL     1      -5.557   2.621  25.323  0.00  0.00    +0.020 A 
ATOM     25  C   UNL     1      -4.361   2.750  24.627  0.00  0.00    +0.135 A 
ATOM     29  C   UNL     1      -6.215   3.787  25.751  0.00  0.00    +0.011 A 
ATOM     30  C   UNL     1      -3.762   3.971  24.320  0.00  0.00    +0.047 A 
ATOM     31  C   UNL     1      -5.637   5.030  25.458  0.00  0.00    +0.001 A 
ATOM     32  C   UNL     1      -4.433   5.117  24.755  0.00  0.00    +0.004 A 
ENDBRANCH  14  19
ENDBRANCH   4  14
TORSDOF 4
ENDMDL
