MODEL 1
REMARK VINA RESULT:       9.5      0.000      0.000
REMARK  Name = 40777708
REMARK  14 active torsions:
REMARK  status: ('A' for Active; 'I' for Inactive)
REMARK    1  A    between atoms: O_2  and  C_31
REMARK    2  A    between atoms: N_4  and  C_9
REMARK    3  A    between atoms: N_5  and  C_16
REMARK    4  A    between atoms: C_7  and  C_10
REMARK    5  A    between atoms: C_13  and  C_17
REMARK    6  A    between atoms: C_14  and  C_18
REMARK    7  A    between atoms: C_15  and  C_20
REMARK    8  A    between atoms: C_15  and  C_26
REMARK    9  A    between atoms: C_15  and  C_27
REMARK   10  A    between atoms: C_15  and  C_28
REMARK   11  A    between atoms: C_19  and  C_23
REMARK   12  A    between atoms: C_23  and  C_29
REMARK   13  A    between atoms: C_29  and  C_30
REMARK   14  A    between atoms: C_30  and  C_31
REMARK                            x       y       z     vdW  Elec       q    Type
REMARK                         _______ _______ _______ _____ _____    ______ ____
ROOT
ATOM      5  N   UNL     1       0.881  -0.231  23.703  0.00  0.00    -0.236 N 
ATOM      6  N   UNL     1       0.174  -1.367  23.830  0.00  0.00    -0.171 NA
ATOM     10  C   UNL     1      -1.188   0.465  23.745  0.00  0.00    +0.003 A 
ATOM     13  C   UNL     1       0.112   0.894  23.649  0.00  0.00    +0.046 A 
ATOM     14  C   UNL     1      -1.090  -0.936  23.855  0.00  0.00    +0.064 A 
ATOM     17  C   UNL     1       0.673   2.254  23.513  0.00  0.00    +0.066 C 
ATOM     18  C   UNL     1      -2.187  -1.911  23.987  0.00  0.00    +0.068 C 
ENDROOT
BRANCH   5  16
ATOM     16  C   UNL     1       2.274  -0.288  23.641  0.00  0.00    +0.066 A 
ATOM     20  C   UNL     1       5.059  -0.396  23.526  0.00  0.00    -0.042 A 
ATOM     21  C   UNL     1       2.941  -1.457  24.003  0.00  0.00    +0.028 A 
ATOM     22  C   UNL     1       2.999   0.828  23.222  0.00  0.00    +0.028 A 
ATOM     24  C   UNL     1       4.335  -1.512  23.946  0.00  0.00    +0.006 A 
ATOM     25  C   UNL     1       4.391   0.774  23.165  0.00  0.00    +0.006 A 
BRANCH  20  15
ATOM     15  C   UNL     1       6.548  -0.455  23.465  0.00  0.00    -0.013 C 
ATOM     26  C   UNL     1       7.126  -1.346  24.608  0.00  0.00    +0.015 C 
ATOM     27  C   UNL     1       7.177   0.965  23.612  0.00  0.00    +0.015 C 
ATOM     28  C   UNL     1       7.142  -1.038  22.140  0.00  0.00    +0.015 C 
ENDBRANCH  20  15
ENDBRANCH   5  16
BRANCH  10   7
ATOM      7  C   UNL     1      -2.443   1.309  23.738  0.00  0.00    +0.047 C 
ATOM      8  C   UNL     1      -2.288   2.638  24.506  0.00  0.00    +0.039 C 
ATOM      9  C   UNL     1      -3.143   3.662  23.748  0.00  0.00    +0.097 C 
ATOM     11  C   UNL     1      -2.881   1.771  22.378  0.00  0.00    -0.021 C 
ATOM     12  C   UNL     1      -3.265   3.052  22.390  0.00  0.00    -0.009 C 
BRANCH   9   4
ATOM      1  O   UNL     1      -3.758   4.266  26.483  0.00  0.00    -0.276 OA
ATOM      4  N   UNL     1      -4.456   3.818  24.316  0.00  0.00    -0.309 N 
ATOM     19  C   UNL     1      -4.653   4.112  25.656  0.00  0.00    +0.213 C 
ATOM     32  H   UNL     1      -5.266   3.668  23.721  0.00  0.00    +0.149 HD
BRANCH  19  23
ATOM     23  C   UNL     1      -6.131   4.195  26.000  0.00  0.00    +0.096 C 
BRANCH  23  29
ATOM     29  C   UNL     1      -6.870   2.865  25.858  0.00  0.00    +0.020 C 
BRANCH  29  30
ATOM     30  C   UNL     1      -6.118   1.708  26.519  0.00  0.00    +0.121 C 
BRANCH  30  31
ATOM      3  O   UNL     1      -4.546   0.010  25.759  0.00  0.00    -0.251 OA
ATOM     31  C   UNL     1      -5.395   0.853  25.503  0.00  0.00    +0.305 C 
BRANCH  31   2
ATOM      2  O   UNL     1      -5.808   1.131  24.238  0.00  0.00    -0.481 OA
ATOM     33  H   UNL     1      -5.477   2.002  23.930  0.00  0.00    +0.295 HD
ENDBRANCH  31   2
ENDBRANCH  30  31
ENDBRANCH  29  30
ENDBRANCH  23  29
ENDBRANCH  19  23
ENDBRANCH   9   4
ENDBRANCH  10   7
TORSDOF 9
ENDMDL
MODEL 2
REMARK VINA RESULT:       9.6      1.234      2.324
REMARK  Name = 40777708
REMARK  14 active torsions:
REMARK  status: ('A' for Active; 'I' for Inactive)
REMARK    1  A    between atoms: O_2  and  C_31
REMARK    2  A    between atoms: N_4  and  C_9
REMARK    3  A    between atoms: N_5  and  C_16
REMARK    4  A    between atoms: C_7  and  C_10
REMARK    5  A    between atoms: C_13  and  C_17
REMARK    6  A    between atoms: C_14  and  C_18
REMARK    7  A    between atoms: C_15  and  C_20
REMARK    8  A    between atoms: C_15  and  C_26
REMARK    9  A    between atoms: C_15  and  C_27
REMARK   10  A    between atoms: C_15  and  C_28
REMARK   11  A    between atoms: C_19  and  C_23
REMARK   12  A    between atoms: C_23  and  C_29
REMARK   13  A    between atoms: C_29  and  C_30
REMARK   14  A    between atoms: C_30  and  C_31
REMARK                            x       y       z     vdW  Elec       q    Type
REMARK                         _______ _______ _______ _____ _____    ______ ____
ROOT
ATOM      5  N   UNL     1       0.545  -0.595  24.051  0.00  0.00    -0.236 N 
ATOM      6  N   UNL     1      -0.092  -1.771  23.918  0.00  0.00    -0.171 NA
ATOM     10  C   UNL     1      -1.540  -0.090  24.460  0.00  0.00    +0.003 A 
ATOM     13  C   UNL     1      -0.278   0.444  24.378  0.00  0.00    +0.046 A 
ATOM     14  C   UNL     1      -1.366  -1.456  24.168  0.00  0.00    +0.064 A 
ATOM     17  C   UNL     1       0.202   1.827  24.578  0.00  0.00    +0.066 C 
ATOM     18  C   UNL     1      -2.396  -2.508  24.117  0.00  0.00    +0.068 C 
ENDROOT
BRANCH   5  16
ATOM     16  C   UNL     1       1.925  -0.530  23.859  0.00  0.00    +0.066 A 
ATOM     20  C   UNL     1       4.686  -0.396  23.482  0.00  0.00    -0.042 A 
ATOM     21  C   UNL     1       2.727  -1.622  24.190  0.00  0.00    +0.028 A 
ATOM     22  C   UNL     1       2.503   0.628  23.341  0.00  0.00    +0.028 A 
ATOM     24  C   UNL     1       4.108  -1.556  24.001  0.00  0.00    +0.006 A 
ATOM     25  C   UNL     1       3.883   0.695  23.153  0.00  0.00    +0.006 A 
BRANCH  20  15
ATOM     15  C   UNL     1       6.162  -0.326  23.282  0.00  0.00    -0.013 C 
ATOM     26  C   UNL     1       6.907  -1.341  24.203  0.00  0.00    +0.015 C 
ATOM     27  C   UNL     1       6.710   1.097  23.609  0.00  0.00    +0.015 C 
ATOM     28  C   UNL     1       6.657  -0.639  21.830  0.00  0.00    +0.015 C 
ENDBRANCH  20  15
ENDBRANCH   5  16
BRANCH  10   7
ATOM      7  C   UNL     1      -2.827   0.630  24.794  0.00  0.00    +0.047 C 
ATOM      8  C   UNL     1      -3.661   0.998  23.549  0.00  0.00    +0.039 C 
ATOM      9  C   UNL     1      -5.129   0.873  23.976  0.00  0.00    +0.097 C 
ATOM     11  C   UNL     1      -3.801  -0.169  25.610  0.00  0.00    -0.021 C 
ATOM     12  C   UNL     1      -5.054  -0.031  25.162  0.00  0.00    -0.009 C 
BRANCH   9   4
ATOM      1  O   UNL     1      -6.087   1.556  26.591  0.00  0.00    -0.276 OA
ATOM      4  N   UNL     1      -5.700   2.132  24.376  0.00  0.00    -0.309 N 
ATOM     19  C   UNL     1      -6.137   2.368  25.671  0.00  0.00    +0.213 C 
ATOM     32  H   UNL     1      -5.824   2.857  23.675  0.00  0.00    +0.149 HD
BRANCH  19  23
ATOM     23  C   UNL     1      -6.721   3.763  25.819  0.00  0.00    +0.096 C 
BRANCH  23  29
ATOM     29  C   UNL     1      -5.687   4.880  25.685  0.00  0.00    +0.020 C 
BRANCH  29  30
ATOM     30  C   UNL     1      -4.293   4.439  26.136  0.00  0.00    +0.121 C 
BRANCH  30  31
ATOM      3  O   UNL     1      -3.618   4.219  23.806  0.00  0.00    -0.251 OA
ATOM     31  C   UNL     1      -3.319   4.379  24.982  0.00  0.00    +0.305 C 
BRANCH  31   2
ATOM      2  O   UNL     1      -2.037   4.528  25.408  0.00  0.00    -0.481 OA
ATOM     33  H   UNL     1      -1.473   3.772  25.139  0.00  0.00    +0.295 HD
ENDBRANCH  31   2
ENDBRANCH  30  31
ENDBRANCH  29  30
ENDBRANCH  23  29
ENDBRANCH  19  23
ENDBRANCH   9   4
ENDBRANCH  10   7
TORSDOF 9
ENDMDL
MODEL 3
REMARK VINA RESULT:      11.6      4.931     10.591
REMARK  Name = 40777708
REMARK  14 active torsions:
REMARK  status: ('A' for Active; 'I' for Inactive)
REMARK    1  A    between atoms: O_2  and  C_31
REMARK    2  A    between atoms: N_4  and  C_9
REMARK    3  A    between atoms: N_5  and  C_16
REMARK    4  A    between atoms: C_7  and  C_10
REMARK    5  A    between atoms: C_13  and  C_17
REMARK    6  A    between atoms: C_14  and  C_18
REMARK    7  A    between atoms: C_15  and  C_20
REMARK    8  A    between atoms: C_15  and  C_26
REMARK    9  A    between atoms: C_15  and  C_27
REMARK   10  A    between atoms: C_15  and  C_28
REMARK   11  A    between atoms: C_19  and  C_23
REMARK   12  A    between atoms: C_23  and  C_29
REMARK   13  A    between atoms: C_29  and  C_30
REMARK   14  A    between atoms: C_30  and  C_31
REMARK                            x       y       z     vdW  Elec       q    Type
REMARK                         _______ _______ _______ _____ _____    ______ ____
ROOT
ATOM      5  N   UNL     1      -0.593   0.805  23.558  0.00  0.00    -0.236 N 
ATOM      6  N   UNL     1      -0.527  -0.211  22.682  0.00  0.00    -0.171 NA
ATOM     10  C   UNL     1       1.543   0.644  23.130  0.00  0.00    +0.003 A 
ATOM     13  C   UNL     1       0.620   1.353  23.859  0.00  0.00    +0.046 A 
ATOM     14  C   UNL     1       0.780  -0.306  22.424  0.00  0.00    +0.064 A 
ATOM     17  C   UNL     1       0.790   2.483  24.796  0.00  0.00    +0.066 C 
ATOM     18  C   UNL     1       1.261  -1.332  21.482  0.00  0.00    +0.068 C 
ENDROOT
BRANCH   5  16
ATOM     16  C   UNL     1      -1.830   1.203  24.065  0.00  0.00    +0.066 A 
ATOM     20  C   UNL     1      -4.310   1.996  25.069  0.00  0.00    -0.042 A 
ATOM     21  C   UNL     1      -2.675   0.264  24.658  0.00  0.00    +0.028 A 
ATOM     22  C   UNL     1      -2.226   2.537  23.974  0.00  0.00    +0.028 A 
ATOM     24  C   UNL     1      -3.915   0.661  25.161  0.00  0.00    +0.006 A 
ATOM     25  C   UNL     1      -3.465   2.934  24.475  0.00  0.00    +0.006 A 
BRANCH  20  15
ATOM     15  C   UNL     1      -5.635   2.419  25.606  0.00  0.00    -0.013 C 
ATOM     26  C   UNL     1      -6.802   1.884  24.719  0.00  0.00    +0.015 C 
ATOM     27  C   UNL     1      -5.756   3.973  25.656  0.00  0.00    +0.015 C 
ATOM     28  C   UNL     1      -5.957   1.930  27.057  0.00  0.00    +0.015 C 
ENDBRANCH  20  15
ENDBRANCH   5  16
BRANCH  10   7
ATOM      7  C   UNL     1       3.041   0.843  23.094  0.00  0.00    +0.047 C 
ATOM      8  C   UNL     1       3.817  -0.223  23.895  0.00  0.00    +0.039 C 
ATOM      9  C   UNL     1       5.126  -0.453  23.128  0.00  0.00    +0.097 C 
ATOM     11  C   UNL     1       3.656   0.732  21.729  0.00  0.00    -0.021 C 
ATOM     12  C   UNL     1       4.793   0.028  21.754  0.00  0.00    -0.009 C 
BRANCH   9   4
ATOM      1  O   UNL     1       7.892  -0.719  22.423  0.00  0.00    -0.276 OA
ATOM      4  N   UNL     1       6.220   0.322  23.649  0.00  0.00    -0.309 N 
ATOM     19  C   UNL     1       7.530   0.119  23.244  0.00  0.00    +0.213 C 
ATOM     32  H   UNL     1       6.029   1.015  24.368  0.00  0.00    +0.149 HD
BRANCH  19  23
ATOM     23  C   UNL     1       8.490   1.049  23.966  0.00  0.00    +0.096 C 
BRANCH  23  29
ATOM     29  C   UNL     1       9.781   1.320  23.195  0.00  0.00    +0.020 C 
BRANCH  29  30
ATOM     30  C   UNL     1      10.013   2.812  22.952  0.00  0.00    +0.121 C 
BRANCH  30  31
ATOM      3  O   UNL     1      10.690   2.249  20.682  0.00  0.00    -0.251 OA
ATOM     31  C   UNL     1      10.429   3.094  21.527  0.00  0.00    +0.305 C 
BRANCH  31   2
ATOM      2  O   UNL     1      10.481   4.430  21.281  0.00  0.00    -0.481 OA
ATOM     33  H   UNL     1      11.380   4.717  21.013  0.00  0.00    +0.295 HD
ENDBRANCH  31   2
ENDBRANCH  30  31
ENDBRANCH  29  30
ENDBRANCH  23  29
ENDBRANCH  19  23
ENDBRANCH   9   4
ENDBRANCH  10   7
TORSDOF 9
ENDMDL
