MODEL 1
REMARK VINA RESULT:       5.4      0.000      0.000
REMARK  Name = 11913347
REMARK  4 active torsions:
REMARK  status: ('A' for Active; 'I' for Inactive)
REMARK    1  A    between atoms: N_5  and  C_11
REMARK    2  A    between atoms: N_6  and  C_12
REMARK    3  A    between atoms: C_16  and  C_17
REMARK    4  A    between atoms: C_18  and  C_23
REMARK                            x       y       z     vdW  Elec       q    Type
REMARK                         _______ _______ _______ _____ _____    ______ ____
ROOT
ATOM      2  O   UNL     1      -3.052  -1.181  23.265  0.00  0.00    -0.370 OA
ATOM      3  O   UNL     1      -1.756  -1.305  26.107  0.00  0.00    -0.370 OA
ATOM      9  C   UNL     1      -2.067  -0.226  25.210  0.00  0.00    +0.171 C 
ATOM     10  C   UNL     1      -1.801  -0.719  23.801  0.00  0.00    +0.171 C 
ATOM     11  C   UNL     1      -3.550   0.059  25.228  0.00  0.00    +0.130 C 
ATOM     12  C   UNL     1      -0.854  -1.880  23.988  0.00  0.00    +0.130 C 
ATOM     13  C   UNL     1      -4.093  -0.940  24.223  0.00  0.00    +0.185 C 
ATOM     14  C   UNL     1      -1.243  -2.414  25.352  0.00  0.00    +0.185 C 
ENDROOT
BRANCH  11   5
ATOM      5  N   UNL     1      -3.800   1.410  24.776  0.00  0.00    -0.306 N 
ATOM      7  N   UNL     1      -1.972   2.266  25.972  0.00  0.00    -0.214 NA
ATOM      8  N   UNL     1      -3.367   3.713  24.642  0.00  0.00    -0.223 NA
ATOM     15  C   UNL     1      -3.024   2.496  25.141  0.00  0.00    +0.216 A 
ATOM     18  C   UNL     1      -1.237   3.346  26.308  0.00  0.00    +0.076 A 
ATOM     21  C   UNL     1      -2.589   4.749  25.019  0.00  0.00    +0.116 A 
ATOM     22  C   UNL     1      -1.500   4.624  25.857  0.00  0.00    +0.048 A 
ATOM     32  H   UNL     1      -4.548   1.584  24.115  0.00  0.00    +0.149 HD
BRANCH  18  23
ATOM      1  F   UNL     1       0.527   2.550  30.732  0.00  0.00    -0.205 F 
ATOM     23  C   UNL     1      -0.125   3.082  27.190  0.00  0.00    +0.003 A 
ATOM     27  C   UNL     1      -0.339   2.940  28.563  0.00  0.00    +0.048 A 
ATOM     28  C   UNL     1       1.168   2.967  26.674  0.00  0.00    +0.010 A 
ATOM     29  C   UNL     1       0.735   2.685  29.416  0.00  0.00    +0.124 A 
ATOM     30  C   UNL     1       2.241   2.711  27.527  0.00  0.00    +0.003 A 
ATOM     31  C   UNL     1       2.025   2.570  28.898  0.00  0.00    +0.038 A 
ENDBRANCH  18  23
ENDBRANCH  11   5
BRANCH  12   6
ATOM      4  O   UNL     1       0.612  -0.581  21.855  0.00  0.00    -0.270 OA
ATOM      6  N   UNL     1       0.543  -1.380  24.031  0.00  0.00    -0.304 N 
ATOM     16  C   UNL     1       1.149  -0.769  22.943  0.00  0.00    +0.244 C 
ATOM     33  H   UNL     1       1.082  -1.606  24.860  0.00  0.00    +0.149 HD
BRANCH  16  17
ATOM     17  C   UNL     1       2.561  -0.349  23.138  0.00  0.00    +0.037 A 
ATOM     19  C   UNL     1       3.455  -1.247  23.684  0.00  0.00    +0.013 A 
ATOM     20  C   UNL     1       2.934   0.925  22.762  0.00  0.00    +0.013 A 
ATOM     24  C   UNL     1       4.781  -0.853  23.864  0.00  0.00    +0.001 A 
ATOM     25  C   UNL     1       4.260   1.319  22.941  0.00  0.00    +0.001 A 
ATOM     26  C   UNL     1       5.183   0.431  23.492  0.00  0.00    +0.000 A 
ENDBRANCH  16  17
ENDBRANCH  12   6
TORSDOF 4
ENDMDL
MODEL 2
REMARK VINA RESULT:       6.3      2.910      4.620
REMARK  Name = 11913347
REMARK  4 active torsions:
REMARK  status: ('A' for Active; 'I' for Inactive)
REMARK    1  A    between atoms: N_5  and  C_11
REMARK    2  A    between atoms: N_6  and  C_12
REMARK    3  A    between atoms: C_16  and  C_17
REMARK    4  A    between atoms: C_18  and  C_23
REMARK                            x       y       z     vdW  Elec       q    Type
REMARK                         _______ _______ _______ _____ _____    ______ ____
ROOT
ATOM      2  O   UNL     1      -2.591   0.615  23.405  0.00  0.00    -0.370 OA
ATOM      3  O   UNL     1      -1.615  -1.691  25.275  0.00  0.00    -0.370 OA
ATOM      9  C   UNL     1      -2.670  -0.720  25.374  0.00  0.00    +0.171 C 
ATOM     10  C   UNL     1      -2.151   0.572  24.772  0.00  0.00    +0.171 C 
ATOM     11  C   UNL     1      -3.824  -1.106  24.480  0.00  0.00    +0.130 C 
ATOM     12  C   UNL     1      -0.649   0.431  24.833  0.00  0.00    +0.130 C 
ATOM     13  C   UNL     1      -3.412  -0.531  23.137  0.00  0.00    +0.185 C 
ATOM     14  C   UNL     1      -0.449  -1.067  24.718  0.00  0.00    +0.185 C 
ENDROOT
BRANCH  11   5
ATOM      5  N   UNL     1      -5.041  -0.476  24.942  0.00  0.00    -0.306 N 
ATOM      7  N   UNL     1      -4.057   1.655  24.968  0.00  0.00    -0.214 NA
ATOM      8  N   UNL     1      -6.359   1.347  25.612  0.00  0.00    -0.223 NA
ATOM     15  C   UNL     1      -5.157   0.882  25.181  0.00  0.00    +0.216 A 
ATOM     18  C   UNL     1      -4.205   2.973  25.212  0.00  0.00    +0.076 A 
ATOM     21  C   UNL     1      -6.436   2.675  25.836  0.00  0.00    +0.116 A 
ATOM     22  C   UNL     1      -5.381   3.545  25.651  0.00  0.00    +0.048 A 
ATOM     32  H   UNL     1      -5.880  -1.033  25.053  0.00  0.00    +0.149 HD
BRANCH  18  23
ATOM      1  F   UNL     1      -0.049   3.772  22.885  0.00  0.00    -0.205 F 
ATOM     23  C   UNL     1      -3.027   3.775  24.980  0.00  0.00    +0.003 A 
ATOM     27  C   UNL     1      -2.088   3.379  24.025  0.00  0.00    +0.048 A 
ATOM     28  C   UNL     1      -2.824   4.949  25.708  0.00  0.00    +0.010 A 
ATOM     29  C   UNL     1      -0.949   4.154  23.800  0.00  0.00    +0.124 A 
ATOM     30  C   UNL     1      -1.686   5.724  25.483  0.00  0.00    +0.003 A 
ATOM     31  C   UNL     1      -0.748   5.326  24.529  0.00  0.00    +0.038 A 
ENDBRANCH  18  23
ENDBRANCH  11   5
BRANCH  12   6
ATOM      4  O   UNL     1       0.845   2.847  25.394  0.00  0.00    -0.270 OA
ATOM      6  N   UNL     1      -0.157   0.897  26.152  0.00  0.00    -0.304 N 
ATOM     16  C   UNL     1       0.553   2.079  26.307  0.00  0.00    +0.244 C 
ATOM     33  H   UNL     1      -0.264   0.256  26.930  0.00  0.00    +0.149 HD
BRANCH  16  17
ATOM     17  C   UNL     1       0.998   2.393  27.690  0.00  0.00    +0.037 A 
ATOM     19  C   UNL     1       0.095   2.271  28.725  0.00  0.00    +0.013 A 
ATOM     20  C   UNL     1       2.303   2.792  27.894  0.00  0.00    +0.013 A 
ATOM     24  C   UNL     1       0.515   2.564  30.023  0.00  0.00    +0.001 A 
ATOM     25  C   UNL     1       2.724   3.084  29.191  0.00  0.00    +0.001 A 
ATOM     26  C   UNL     1       1.830   2.970  30.255  0.00  0.00    +0.000 A 
ENDBRANCH  16  17
ENDBRANCH  12   6
TORSDOF 4
ENDMDL
MODEL 3
REMARK VINA RESULT:       6.4      2.482      5.727
REMARK  Name = 11913347
REMARK  4 active torsions:
REMARK  status: ('A' for Active; 'I' for Inactive)
REMARK    1  A    between atoms: N_5  and  C_11
REMARK    2  A    between atoms: N_6  and  C_12
REMARK    3  A    between atoms: C_16  and  C_17
REMARK    4  A    between atoms: C_18  and  C_23
REMARK                            x       y       z     vdW  Elec       q    Type
REMARK                         _______ _______ _______ _____ _____    ______ ____
ROOT
ATOM      2  O   UNL     1      -4.861   2.785  25.615  0.00  0.00    -0.370 OA
ATOM      3  O   UNL     1      -2.287   3.457  23.975  0.00  0.00    -0.370 OA
ATOM      9  C   UNL     1      -2.771   2.259  24.605  0.00  0.00    +0.171 C 
ATOM     10  C   UNL     1      -3.455   2.673  25.894  0.00  0.00    +0.171 C 
ATOM     11  C   UNL     1      -3.876   1.643  23.780  0.00  0.00    +0.130 C 
ATOM     12  C   UNL     1      -2.874   4.032  26.201  0.00  0.00    +0.130 C 
ATOM     13  C   UNL     1      -5.105   2.397  24.255  0.00  0.00    +0.185 C 
ATOM     14  C   UNL     1      -2.560   4.581  24.824  0.00  0.00    +0.185 C 
ENDROOT
BRANCH  11   5
ATOM      5  N   UNL     1      -4.002   0.236  24.091  0.00  0.00    -0.306 N 
ATOM      7  N   UNL     1      -1.691  -0.126  23.892  0.00  0.00    -0.214 NA
ATOM      8  N   UNL     1      -3.183  -1.933  24.454  0.00  0.00    -0.223 NA
ATOM     15  C   UNL     1      -2.927  -0.634  24.147  0.00  0.00    +0.216 A 
ATOM     18  C   UNL     1      -0.667  -1.001  23.955  0.00  0.00    +0.076 A 
ATOM     21  C   UNL     1      -2.113  -2.753  24.499  0.00  0.00    +0.116 A 
ATOM     22  C   UNL     1      -0.819  -2.339  24.257  0.00  0.00    +0.048 A 
ATOM     32  H   UNL     1      -4.909  -0.141  24.334  0.00  0.00    +0.149 HD
BRANCH  18  23
ATOM      1  F   UNL     1       4.103  -1.519  23.404  0.00  0.00    -0.205 F 
ATOM     23  C   UNL     1       0.636  -0.442  23.682  0.00  0.00    +0.003 A 
ATOM     27  C   UNL     1       1.763  -1.266  23.674  0.00  0.00    +0.048 A 
ATOM     28  C   UNL     1       0.773   0.924  23.425  0.00  0.00    +0.010 A 
ATOM     29  C   UNL     1       3.023  -0.727  23.410  0.00  0.00    +0.124 A 
ATOM     30  C   UNL     1       2.032   1.463  23.161  0.00  0.00    +0.003 A 
ATOM     31  C   UNL     1       3.157   0.637  23.153  0.00  0.00    +0.038 A 
ENDBRANCH  18  23
ENDBRANCH  11   5
BRANCH  12   6
ATOM      4  O   UNL     1      -1.113   1.733  26.228  0.00  0.00    -0.270 OA
ATOM      6  N   UNL     1      -1.616   3.872  26.971  0.00  0.00    -0.304 N 
ATOM     16  C   UNL     1      -0.845   2.720  26.908  0.00  0.00    +0.244 C 
ATOM     33  H   UNL     1      -1.396   4.602  27.639  0.00  0.00    +0.149 HD
BRANCH  16  17
ATOM     17  C   UNL     1       0.373   2.707  27.760  0.00  0.00    +0.037 A 
ATOM     19  C   UNL     1       1.591   3.010  27.188  0.00  0.00    +0.013 A 
ATOM     20  C   UNL     1       0.245   2.394  29.097  0.00  0.00    +0.013 A 
ATOM     24  C   UNL     1       2.732   2.999  27.988  0.00  0.00    +0.001 A 
ATOM     25  C   UNL     1       1.387   2.384  29.899  0.00  0.00    +0.001 A 
ATOM     26  C   UNL     1       2.630   2.686  29.344  0.00  0.00    +0.000 A 
ENDBRANCH  16  17
ENDBRANCH  12   6
TORSDOF 4
ENDMDL
MODEL 4
REMARK VINA RESULT:       6.8      3.264      5.590
REMARK  Name = 11913347
REMARK  4 active torsions:
REMARK  status: ('A' for Active; 'I' for Inactive)
REMARK    1  A    between atoms: N_5  and  C_11
REMARK    2  A    between atoms: N_6  and  C_12
REMARK    3  A    between atoms: C_16  and  C_17
REMARK    4  A    between atoms: C_18  and  C_23
REMARK                            x       y       z     vdW  Elec       q    Type
REMARK                         _______ _______ _______ _____ _____    ______ ____
ROOT
ATOM      2  O   UNL     1      -1.595   5.425  25.616  0.00  0.00    -0.370 OA
ATOM      3  O   UNL     1      -1.702   3.545  23.121  0.00  0.00    -0.370 OA
ATOM      9  C   UNL     1      -2.541   3.699  24.277  0.00  0.00    +0.171 C 
ATOM     10  C   UNL     1      -1.635   3.997  25.456  0.00  0.00    +0.171 C 
ATOM     11  C   UNL     1      -3.395   4.938  24.144  0.00  0.00    +0.130 C 
ATOM     12  C   UNL     1      -0.284   3.482  25.023  0.00  0.00    +0.130 C 
ATOM     13  C   UNL     1      -2.476   6.031  24.659  0.00  0.00    +0.185 C 
ATOM     14  C   UNL     1      -0.326   3.655  23.518  0.00  0.00    +0.185 C 
ENDROOT
BRANCH  11   5
ATOM      5  N   UNL     1      -4.563   4.828  24.989  0.00  0.00    -0.306 N 
ATOM      7  N   UNL     1      -4.521   2.482  24.929  0.00  0.00    -0.214 NA
ATOM      8  N   UNL     1      -6.216   3.658  26.175  0.00  0.00    -0.223 NA
ATOM     15  C   UNL     1      -5.117   3.621  25.376  0.00  0.00    +0.216 A 
ATOM     18  C   UNL     1      -5.088   1.324  25.324  0.00  0.00    +0.076 A 
ATOM     21  C   UNL     1      -6.730   2.463  26.533  0.00  0.00    +0.116 A 
ATOM     22  C   UNL     1      -6.203   1.252  26.134  0.00  0.00    +0.048 A 
ATOM     32  H   UNL     1      -4.983   5.667  25.371  0.00  0.00    +0.149 HD
BRANCH  18  23
ATOM      1  F   UNL     1      -3.421  -3.150  26.054  0.00  0.00    -0.205 F 
ATOM     23  C   UNL     1      -4.440   0.128  24.839  0.00  0.00    +0.003 A 
ATOM     27  C   UNL     1      -4.239  -0.956  25.697  0.00  0.00    +0.048 A 
ATOM     28  C   UNL     1      -4.013   0.051  23.512  0.00  0.00    +0.010 A 
ATOM     29  C   UNL     1      -3.613  -2.112  25.230  0.00  0.00    +0.124 A 
ATOM     30  C   UNL     1      -3.388  -1.105  23.044  0.00  0.00    +0.003 A 
ATOM     31  C   UNL     1      -3.188  -2.187  23.904  0.00  0.00    +0.038 A 
ENDBRANCH  18  23
ENDBRANCH  11   5
BRANCH  12   6
ATOM      4  O   UNL     1      -0.776   1.234  23.266  0.00  0.00    -0.270 OA
ATOM      6  N   UNL     1      -0.170   2.041  25.355  0.00  0.00    -0.304 N 
ATOM     16  C   UNL     1      -0.431   1.041  24.429  0.00  0.00    +0.244 C 
ATOM     33  H   UNL     1      -0.002   1.810  26.327  0.00  0.00    +0.149 HD
BRANCH  16  17
ATOM     17  C   UNL     1      -0.298  -0.354  24.925  0.00  0.00    +0.037 A 
ATOM     19  C   UNL     1       0.197  -1.320  24.075  0.00  0.00    +0.013 A 
ATOM     20  C   UNL     1      -0.671  -0.637  26.222  0.00  0.00    +0.013 A 
ATOM     24  C   UNL     1       0.324  -2.628  24.541  0.00  0.00    +0.001 A 
ATOM     25  C   UNL     1      -0.545  -1.945  26.690  0.00  0.00    +0.001 A 
ATOM     26  C   UNL     1      -0.048  -2.940  25.850  0.00  0.00    +0.000 A 
ENDBRANCH  16  17
ENDBRANCH  12   6
TORSDOF 4
ENDMDL
MODEL 5
REMARK VINA RESULT:       7.2      2.559      5.852
REMARK  Name = 11913347
REMARK  4 active torsions:
REMARK  status: ('A' for Active; 'I' for Inactive)
REMARK    1  A    between atoms: N_5  and  C_11
REMARK    2  A    between atoms: N_6  and  C_12
REMARK    3  A    between atoms: C_16  and  C_17
REMARK    4  A    between atoms: C_18  and  C_23
REMARK                            x       y       z     vdW  Elec       q    Type
REMARK                         _______ _______ _______ _____ _____    ______ ____
ROOT
ATOM      2  O   UNL     1      -1.298   1.095  23.145  0.00  0.00    -0.370 OA
ATOM      3  O   UNL     1       1.794   0.640  23.217  0.00  0.00    -0.370 OA
ATOM      9  C   UNL     1       0.678  -0.076  23.771  0.00  0.00    +0.171 C 
ATOM     10  C   UNL     1      -0.345   0.953  24.212  0.00  0.00    +0.171 C 
ATOM     11  C   UNL     1      -0.029  -0.861  22.690  0.00  0.00    +0.130 C 
ATOM     12  C   UNL     1       0.454   2.224  24.370  0.00  0.00    +0.130 C 
ATOM     13  C   UNL     1      -0.976   0.167  22.098  0.00  0.00    +0.185 C 
ATOM     14  C   UNL     1       1.564   2.051  23.352  0.00  0.00    +0.185 C 
ENDROOT
BRANCH  11   5
ATOM      5  N   UNL     1      -0.778  -1.950  23.278  0.00  0.00    -0.306 N 
ATOM      7  N   UNL     1      -2.424  -0.506  24.123  0.00  0.00    -0.214 NA
ATOM      8  N   UNL     1      -2.562  -2.885  24.482  0.00  0.00    -0.223 NA
ATOM     15  C   UNL     1      -1.956  -1.776  23.983  0.00  0.00    +0.216 A 
ATOM     18  C   UNL     1      -3.574  -0.373  24.815  0.00  0.00    +0.076 A 
ATOM     21  C   UNL     1      -3.708  -2.679  25.163  0.00  0.00    +0.116 A 
ATOM     22  C   UNL     1      -4.267  -1.433  25.363  0.00  0.00    +0.048 A 
ATOM     32  H   UNL     1      -0.467  -2.903  23.135  0.00  0.00    +0.149 HD
BRANCH  18  23
ATOM      1  F   UNL     1      -2.833   4.395  24.612  0.00  0.00    -0.205 F 
ATOM     23  C   UNL     1      -4.054   0.982  24.953  0.00  0.00    +0.003 A 
ATOM     27  C   UNL     1      -3.195   2.056  24.711  0.00  0.00    +0.048 A 
ATOM     28  C   UNL     1      -5.377   1.222  25.329  0.00  0.00    +0.010 A 
ATOM     29  C   UNL     1      -3.658   3.366  24.844  0.00  0.00    +0.124 A 
ATOM     30  C   UNL     1      -5.841   2.531  25.461  0.00  0.00    +0.003 A 
ATOM     31  C   UNL     1      -4.981   3.603  25.219  0.00  0.00    +0.038 A 
ENDBRANCH  18  23
ENDBRANCH  11   5
BRANCH  12   6
ATOM      4  O   UNL     1      -0.910   2.901  26.833  0.00  0.00    -0.270 OA
ATOM      6  N   UNL     1       1.036   2.280  25.734  0.00  0.00    -0.304 N 
ATOM     16  C   UNL     1       0.285   2.618  26.851  0.00  0.00    +0.244 C 
ATOM     33  H   UNL     1       2.041   2.170  25.805  0.00  0.00    +0.149 HD
BRANCH  16  17
ATOM     17  C   UNL     1       1.021   2.655  28.141  0.00  0.00    +0.037 A 
ATOM     19  C   UNL     1       0.340   2.370  29.306  0.00  0.00    +0.013 A 
ATOM     20  C   UNL     1       2.364   2.970  28.132  0.00  0.00    +0.013 A 
ATOM     24  C   UNL     1       1.031   2.402  30.516  0.00  0.00    +0.001 A 
ATOM     25  C   UNL     1       3.056   3.002  29.343  0.00  0.00    +0.001 A 
ATOM     26  C   UNL     1       2.390   2.719  30.534  0.00  0.00    +0.000 A 
ENDBRANCH  16  17
ENDBRANCH  12   6
TORSDOF 4
ENDMDL
MODEL 6
REMARK VINA RESULT:       7.2      3.046      4.931
REMARK  Name = 11913347
REMARK  4 active torsions:
REMARK  status: ('A' for Active; 'I' for Inactive)
REMARK    1  A    between atoms: N_5  and  C_11
REMARK    2  A    between atoms: N_6  and  C_12
REMARK    3  A    between atoms: C_16  and  C_17
REMARK    4  A    between atoms: C_18  and  C_23
REMARK                            x       y       z     vdW  Elec       q    Type
REMARK                         _______ _______ _______ _____ _____    ______ ____
ROOT
ATOM      2  O   UNL     1      -3.019   3.410  26.901  0.00  0.00    -0.370 OA
ATOM      3  O   UNL     1      -1.943   4.994  24.430  0.00  0.00    -0.370 OA
ATOM      9  C   UNL     1      -2.996   4.032  24.603  0.00  0.00    +0.171 C 
ATOM     10  C   UNL     1      -2.513   3.011  25.616  0.00  0.00    +0.171 C 
ATOM     11  C   UNL     1      -4.191   4.675  25.267  0.00  0.00    +0.130 C 
ATOM     12  C   UNL     1      -1.010   3.142  25.584  0.00  0.00    +0.130 C 
ATOM     13  C   UNL     1      -3.847   4.572  26.742  0.00  0.00    +0.185 C 
ATOM     14  C   UNL     1      -0.808   4.598  25.215  0.00  0.00    +0.185 C 
ENDROOT
BRANCH  11   5
ATOM      5  N   UNL     1      -5.387   3.915  24.979  0.00  0.00    -0.306 N 
ATOM      7  N   UNL     1      -4.237   1.871  25.046  0.00  0.00    -0.214 NA
ATOM      8  N   UNL     1      -6.604   1.945  24.597  0.00  0.00    -0.223 NA
ATOM     15  C   UNL     1      -5.411   2.536  24.870  0.00  0.00    +0.216 A 
ATOM     18  C   UNL     1      -4.296   0.528  24.933  0.00  0.00    +0.076 A 
ATOM     21  C   UNL     1      -6.590   0.599  24.498  0.00  0.00    +0.116 A 
ATOM     22  C   UNL     1      -5.455  -0.169  24.658  0.00  0.00    +0.048 A 
ATOM     32  H   UNL     1      -6.275   4.396  24.899  0.00  0.00    +0.149 HD
BRANCH  18  23
ATOM      1  F   UNL     1      -1.075  -2.804  23.574  0.00  0.00    -0.205 F 
ATOM     23  C   UNL     1      -3.040  -0.159  25.123  0.00  0.00    +0.003 A 
ATOM     27  C   UNL     1      -2.655  -1.170  24.239  0.00  0.00    +0.048 A 
ATOM     28  C   UNL     1      -2.207   0.184  26.190  0.00  0.00    +0.010 A 
ATOM     29  C   UNL     1      -1.442  -1.835  24.422  0.00  0.00    +0.124 A 
ATOM     30  C   UNL     1      -0.994  -0.480  26.372  0.00  0.00    +0.003 A 
ATOM     31  C   UNL     1      -0.612  -1.490  25.488  0.00  0.00    +0.038 A 
ENDBRANCH  18  23
ENDBRANCH  11   5
BRANCH  12   6
ATOM      4  O   UNL     1       1.610   1.912  25.498  0.00  0.00    -0.270 OA
ATOM      6  N   UNL     1      -0.457   2.277  24.512  0.00  0.00    -0.304 N 
ATOM     16  C   UNL     1       0.819   1.737  24.575  0.00  0.00    +0.244 C 
ATOM     33  H   UNL     1      -1.013   2.186  23.669  0.00  0.00    +0.149 HD
BRANCH  16  17
ATOM     17  C   UNL     1       1.234   0.914  23.409  0.00  0.00    +0.037 A 
ATOM     19  C   UNL     1       0.268   0.241  22.690  0.00  0.00    +0.013 A 
ATOM     20  C   UNL     1       2.572   0.853  23.081  0.00  0.00    +0.013 A 
ATOM     24  C   UNL     1       0.658  -0.529  21.595  0.00  0.00    +0.001 A 
ATOM     25  C   UNL     1       2.963   0.083  21.985  0.00  0.00    +0.001 A 
ATOM     26  C   UNL     1       2.006  -0.608  21.243  0.00  0.00    +0.000 A 
ENDBRANCH  16  17
ENDBRANCH  12   6
TORSDOF 4
ENDMDL
MODEL 7
REMARK VINA RESULT:       7.5      2.832      6.373
REMARK  Name = 11913347
REMARK  4 active torsions:
REMARK  status: ('A' for Active; 'I' for Inactive)
REMARK    1  A    between atoms: N_5  and  C_11
REMARK    2  A    between atoms: N_6  and  C_12
REMARK    3  A    between atoms: C_16  and  C_17
REMARK    4  A    between atoms: C_18  and  C_23
REMARK                            x       y       z     vdW  Elec       q    Type
REMARK                         _______ _______ _______ _____ _____    ______ ____
ROOT
ATOM      2  O   UNL     1       0.987  -0.750  23.713  0.00  0.00    -0.370 OA
ATOM      3  O   UNL     1      -0.267   0.706  26.178  0.00  0.00    -0.370 OA
ATOM      9  C   UNL     1      -0.806  -0.155  25.161  0.00  0.00    +0.171 C 
ATOM     10  C   UNL     1      -0.097   0.182  23.863  0.00  0.00    +0.171 C 
ATOM     11  C   UNL     1      -0.421  -1.590  25.431  0.00  0.00    +0.130 C 
ATOM     12  C   UNL     1       0.440   1.575  24.086  0.00  0.00    +0.130 C 
ATOM     13  C   UNL     1       0.954  -1.691  24.796  0.00  0.00    +0.185 C 
ATOM     14  C   UNL     1       0.679   1.607  25.583  0.00  0.00    +0.185 C 
ENDROOT
BRANCH  11   5
ATOM      5  N   UNL     1      -1.345  -2.484  24.768  0.00  0.00    -0.306 N 
ATOM      7  N   UNL     1      -3.092  -0.920  24.856  0.00  0.00    -0.214 NA
ATOM      8  N   UNL     1      -3.420  -3.087  23.854  0.00  0.00    -0.223 NA
ATOM     15  C   UNL     1      -2.658  -2.155  24.484  0.00  0.00    +0.216 A 
ATOM     18  C   UNL     1      -4.377  -0.633  24.565  0.00  0.00    +0.076 A 
ATOM     21  C   UNL     1      -4.696  -2.733  23.593  0.00  0.00    +0.116 A 
ATOM     22  C   UNL     1      -5.234  -1.507  23.928  0.00  0.00    +0.048 A 
ATOM     32  H   UNL     1      -1.017  -3.384  24.440  0.00  0.00    +0.149 HD
BRANCH  18  23
ATOM      1  F   UNL     1      -3.516   3.643  26.640  0.00  0.00    -0.205 F 
ATOM     23  C   UNL     1      -4.818   0.682  24.967  0.00  0.00    +0.003 A 
ATOM     27  C   UNL     1      -3.937   1.546  25.622  0.00  0.00    +0.048 A 
ATOM     28  C   UNL     1      -6.126   1.094  24.704  0.00  0.00    +0.010 A 
ATOM     29  C   UNL     1      -4.363   2.816  26.012  0.00  0.00    +0.124 A 
ATOM     30  C   UNL     1      -6.552   2.365  25.093  0.00  0.00    +0.003 A 
ATOM     31  C   UNL     1      -5.669   3.226  25.747  0.00  0.00    +0.038 A 
ENDBRANCH  18  23
ENDBRANCH  11   5
BRANCH  12   6
ATOM      4  O   UNL     1      -0.541   3.753  25.723  0.00  0.00    -0.270 OA
ATOM      6  N   UNL     1      -0.598   2.572  23.728  0.00  0.00    -0.304 N 
ATOM     16  C   UNL     1      -0.994   3.581  24.595  0.00  0.00    +0.244 C 
ATOM     33  H   UNL     1      -1.095   2.419  22.857  0.00  0.00    +0.149 HD
BRANCH  16  17
ATOM     17  C   UNL     1      -2.065   4.482  24.097  0.00  0.00    +0.037 A 
ATOM     19  C   UNL     1      -1.962   5.837  24.337  0.00  0.00    +0.013 A 
ATOM     20  C   UNL     1      -3.127   3.936  23.406  0.00  0.00    +0.013 A 
ATOM     24  C   UNL     1      -2.966   6.682  23.868  0.00  0.00    +0.001 A 
ATOM     25  C   UNL     1      -4.131   4.782  22.936  0.00  0.00    +0.001 A 
ATOM     26  C   UNL     1      -4.051   6.154  23.167  0.00  0.00    +0.000 A 
ENDBRANCH  16  17
ENDBRANCH  12   6
TORSDOF 4
ENDMDL
MODEL 8
REMARK VINA RESULT:       7.6      2.365      6.012
REMARK  Name = 11913347
REMARK  4 active torsions:
REMARK  status: ('A' for Active; 'I' for Inactive)
REMARK    1  A    between atoms: N_5  and  C_11
REMARK    2  A    between atoms: N_6  and  C_12
REMARK    3  A    between atoms: C_16  and  C_17
REMARK    4  A    between atoms: C_18  and  C_23
REMARK                            x       y       z     vdW  Elec       q    Type
REMARK                         _______ _______ _______ _____ _____    ______ ____
ROOT
ATOM      2  O   UNL     1      -0.830  -1.803  25.911  0.00  0.00    -0.370 OA
ATOM      3  O   UNL     1      -3.249  -1.620  23.941  0.00  0.00    -0.370 OA
ATOM      9  C   UNL     1      -1.877  -1.200  23.860  0.00  0.00    +0.171 C 
ATOM     10  C   UNL     1      -1.474  -0.709  25.237  0.00  0.00    +0.171 C 
ATOM     11  C   UNL     1      -0.979  -2.390  23.615  0.00  0.00    +0.130 C 
ATOM     12  C   UNL     1      -2.785  -0.381  25.911  0.00  0.00    +0.130 C 
ATOM     13  C   UNL     1      -0.741  -2.921  25.016  0.00  0.00    +0.185 C 
ATOM     14  C   UNL     1      -3.749  -1.353  25.260  0.00  0.00    +0.185 C 
ENDROOT
BRANCH  11   5
ATOM      5  N   UNL     1       0.268  -1.956  23.026  0.00  0.00    -0.306 N 
ATOM      7  N   UNL     1       0.064   0.206  23.918  0.00  0.00    -0.214 NA
ATOM      8  N   UNL     1       1.967  -0.402  22.570  0.00  0.00    -0.223 NA
ATOM     15  C   UNL     1       0.782  -0.679  23.175  0.00  0.00    +0.216 A 
ATOM     18  C   UNL     1       0.593   1.440  24.042  0.00  0.00    +0.076 A 
ATOM     21  C   UNL     1       2.438   0.851  22.736  0.00  0.00    +0.116 A 
ATOM     22  C   UNL     1       1.788   1.823  23.469  0.00  0.00    +0.048 A 
ATOM     32  H   UNL     1       0.836  -2.621  22.515  0.00  0.00    +0.149 HD
BRANCH  18  23
ATOM      1  F   UNL     1      -1.693   5.664  24.543  0.00  0.00    -0.205 F 
ATOM     23  C   UNL     1      -0.184   2.364  24.835  0.00  0.00    +0.003 A 
ATOM     27  C   UNL     1      -0.572   3.592  24.296  0.00  0.00    +0.048 A 
ATOM     28  C   UNL     1      -0.549   2.032  26.141  0.00  0.00    +0.010 A 
ATOM     29  C   UNL     1      -1.322   4.486  25.061  0.00  0.00    +0.124 A 
ATOM     30  C   UNL     1      -1.300   2.925  26.906  0.00  0.00    +0.003 A 
ATOM     31  C   UNL     1      -1.687   4.152  26.365  0.00  0.00    +0.038 A 
ENDBRANCH  18  23
ENDBRANCH  11   5
BRANCH  12   6
ATOM      4  O   UNL     1      -5.392   0.543  25.053  0.00  0.00    -0.270 OA
ATOM      6  N   UNL     1      -3.181   1.010  25.578  0.00  0.00    -0.304 N 
ATOM     16  C   UNL     1      -4.467   1.342  25.175  0.00  0.00    +0.244 C 
ATOM     33  H   UNL     1      -2.438   1.699  25.546  0.00  0.00    +0.149 HD
BRANCH  16  17
ATOM     17  C   UNL     1      -4.696   2.774  24.851  0.00  0.00    +0.037 A 
ATOM     19  C   UNL     1      -5.473   3.534  25.701  0.00  0.00    +0.013 A 
ATOM     20  C   UNL     1      -4.122   3.298  23.712  0.00  0.00    +0.013 A 
ATOM     24  C   UNL     1      -5.686   4.878  25.398  0.00  0.00    +0.001 A 
ATOM     25  C   UNL     1      -4.334   4.643  23.408  0.00  0.00    +0.001 A 
ATOM     26  C   UNL     1      -5.116   5.433  24.251  0.00  0.00    +0.000 A 
ENDBRANCH  16  17
ENDBRANCH  12   6
TORSDOF 4
ENDMDL
MODEL 9
REMARK VINA RESULT:       7.8     15.050     17.420
REMARK  Name = 11913347
REMARK  4 active torsions:
REMARK  status: ('A' for Active; 'I' for Inactive)
REMARK    1  A    between atoms: N_5  and  C_11
REMARK    2  A    between atoms: N_6  and  C_12
REMARK    3  A    between atoms: C_16  and  C_17
REMARK    4  A    between atoms: C_18  and  C_23
REMARK                            x       y       z     vdW  Elec       q    Type
REMARK                         _______ _______ _______ _____ _____    ______ ____
ROOT
ATOM      2  O   UNL     1      -3.253  -8.908  11.918  0.00  0.00    -0.370 OA
ATOM      3  O   UNL     1      -0.756 -10.775  12.132  0.00  0.00    -0.370 OA
ATOM      9  C   UNL     1      -1.510 -10.022  13.096  0.00  0.00    +0.171 C 
ATOM     10  C   UNL     1      -1.923  -8.723  12.430  0.00  0.00    +0.171 C 
ATOM     11  C   UNL     1      -2.818 -10.716  13.395  0.00  0.00    +0.130 C 
ATOM     12  C   UNL     1      -0.944  -8.563  11.293  0.00  0.00    +0.130 C 
ATOM     13  C   UNL     1      -3.723 -10.213  12.286  0.00  0.00    +0.185 C 
ATOM     14  C   UNL     1      -0.610  -9.997  10.934  0.00  0.00    +0.185 C 
ENDROOT
BRANCH  11   5
ATOM      5  N   UNL     1      -3.321 -10.290  14.683  0.00  0.00    -0.306 N 
ATOM      7  N   UNL     1      -5.545 -10.279  13.932  0.00  0.00    -0.214 NA
ATOM      8  N   UNL     1      -5.001  -9.678  16.202  0.00  0.00    -0.223 NA
ATOM     15  C   UNL     1      -4.662 -10.076  14.948  0.00  0.00    +0.216 A 
ATOM     18  C   UNL     1      -6.843 -10.061  14.225  0.00  0.00    +0.076 A 
ATOM     21  C   UNL     1      -6.317  -9.478  16.425  0.00  0.00    +0.116 A 
ATOM     22  C   UNL     1      -7.292  -9.656  15.465  0.00  0.00    +0.048 A 
ATOM     32  H   UNL     1      -2.679 -10.187  15.459  0.00  0.00    +0.149 HD
BRANCH  18  23
ATOM      1  F   UNL     1      -7.766 -10.377   9.495  0.00  0.00    -0.205 F 
ATOM     23  C   UNL     1      -7.764 -10.283  13.135  0.00  0.00    +0.003 A 
ATOM     27  C   UNL     1      -7.312 -10.222  11.815  0.00  0.00    +0.048 A 
ATOM     28  C   UNL     1      -9.107 -10.558  13.397  0.00  0.00    +0.010 A 
ATOM     29  C   UNL     1      -8.201 -10.436  10.760  0.00  0.00    +0.124 A 
ATOM     30  C   UNL     1      -9.996 -10.772  12.343  0.00  0.00    +0.003 A 
ATOM     31  C   UNL     1      -9.542 -10.711  11.025  0.00  0.00    +0.038 A 
ENDBRANCH  18  23
ENDBRANCH  11   5
BRANCH  12   6
ATOM      4  O   UNL     1       1.714  -8.688  10.150  0.00  0.00    -0.270 OA
ATOM      6  N   UNL     1       0.277  -7.876  11.780  0.00  0.00    -0.304 N 
ATOM     16  C   UNL     1       1.507  -8.007  11.151  0.00  0.00    +0.244 C 
ATOM     33  H   UNL     1       0.203  -7.390  12.667  0.00  0.00    +0.149 HD
BRANCH  16  17
ATOM     17  C   UNL     1       2.639  -7.276  11.778  0.00  0.00    +0.037 A 
ATOM     19  C   UNL     1       2.428  -5.995  12.246  0.00  0.00    +0.013 A 
ATOM     20  C   UNL     1       3.863  -7.903  11.877  0.00  0.00    +0.013 A 
ATOM     24  C   UNL     1       3.490  -5.311  12.836  0.00  0.00    +0.001 A 
ATOM     25  C   UNL     1       4.925  -7.219  12.468  0.00  0.00    +0.001 A 
ATOM     26  C   UNL     1       4.739  -5.923  12.947  0.00  0.00    +0.000 A 
ENDBRANCH  16  17
ENDBRANCH  12   6
TORSDOF 4
ENDMDL
MODEL 10
REMARK VINA RESULT:       8.0      3.343      5.680
REMARK  Name = 11913347
REMARK  4 active torsions:
REMARK  status: ('A' for Active; 'I' for Inactive)
REMARK    1  A    between atoms: N_5  and  C_11
REMARK    2  A    between atoms: N_6  and  C_12
REMARK    3  A    between atoms: C_16  and  C_17
REMARK    4  A    between atoms: C_18  and  C_23
REMARK                            x       y       z     vdW  Elec       q    Type
REMARK                         _______ _______ _______ _____ _____    ______ ____
ROOT
ATOM      2  O   UNL     1      -5.467   4.606  24.697  0.00  0.00    -0.370 OA
ATOM      3  O   UNL     1      -4.444   2.720  26.970  0.00  0.00    -0.370 OA
ATOM      9  C   UNL     1      -3.798   3.375  25.867  0.00  0.00    +0.171 C 
ATOM     10  C   UNL     1      -4.765   3.351  24.699  0.00  0.00    +0.171 C 
ATOM     11  C   UNL     1      -3.614   4.845  26.164  0.00  0.00    +0.130 C 
ATOM     12  C   UNL     1      -5.714   2.224  25.028  0.00  0.00    +0.130 C 
ATOM     13  C   UNL     1      -4.946   5.438  25.744  0.00  0.00    +0.185 C 
ATOM     14  C   UNL     1      -5.722   2.225  26.544  0.00  0.00    +0.185 C 
ENDROOT
BRANCH  11   5
ATOM      5  N   UNL     1      -2.547   5.385  25.350  0.00  0.00    -0.306 N 
ATOM      7  N   UNL     1      -1.536   3.284  25.087  0.00  0.00    -0.214 NA
ATOM      8  N   UNL     1      -0.585   5.251  24.070  0.00  0.00    -0.223 NA
ATOM     15  C   UNL     1      -1.525   4.618  24.820  0.00  0.00    +0.216 A 
ATOM     18  C   UNL     1      -0.525   2.566  24.555  0.00  0.00    +0.076 A 
ATOM     21  C   UNL     1       0.396   4.472  23.569  0.00  0.00    +0.116 A 
ATOM     22  C   UNL     1       0.478   3.111  23.780  0.00  0.00    +0.048 A 
ATOM     32  H   UNL     1      -2.559   6.367  25.102  0.00  0.00    +0.149 HD
BRANCH  18  23
ATOM      1  F   UNL     1      -1.380  -1.080  27.605  0.00  0.00    -0.205 F 
ATOM     23  C   UNL     1      -0.555   1.153  24.850  0.00  0.00    +0.003 A 
ATOM     27  C   UNL     1      -0.962   0.709  26.110  0.00  0.00    +0.048 A 
ATOM     28  C   UNL     1      -0.177   0.226  23.876  0.00  0.00    +0.010 A 
ATOM     29  C   UNL     1      -0.990  -0.656  26.396  0.00  0.00    +0.124 A 
ATOM     30  C   UNL     1      -0.206  -1.139  24.161  0.00  0.00    +0.003 A 
ATOM     31  C   UNL     1      -0.612  -1.580  25.422  0.00  0.00    +0.038 A 
ENDBRANCH  18  23
ENDBRANCH  11   5
BRANCH  12   6
ATOM      4  O   UNL     1      -4.724   0.015  26.618  0.00  0.00    -0.270 OA
ATOM      6  N   UNL     1      -5.154   0.942  24.535  0.00  0.00    -0.304 N 
ATOM     16  C   UNL     1      -4.706  -0.054  25.392  0.00  0.00    +0.244 C 
ATOM     33  H   UNL     1      -5.004   0.865  23.536  0.00  0.00    +0.149 HD
BRANCH  16  17
ATOM     17  C   UNL     1      -4.148  -1.268  24.741  0.00  0.00    +0.037 A 
ATOM     19  C   UNL     1      -3.610  -2.261  25.533  0.00  0.00    +0.013 A 
ATOM     20  C   UNL     1      -4.189  -1.364  23.366  0.00  0.00    +0.013 A 
ATOM     24  C   UNL     1      -3.088  -3.401  24.922  0.00  0.00    +0.001 A 
ATOM     25  C   UNL     1      -3.667  -2.504  22.754  0.00  0.00    +0.001 A 
ATOM     26  C   UNL     1      -3.117  -3.522  23.532  0.00  0.00    +0.000 A 
ENDBRANCH  16  17
ENDBRANCH  12   6
TORSDOF 4
ENDMDL
