MODEL 1
REMARK VINA RESULT:      -3.3      0.000      0.000
REMARK  Name = 40777401
REMARK  7 active torsions:
REMARK  status: ('A' for Active; 'I' for Inactive)
REMARK    1  A    between atoms: N_5  and  C_18
REMARK    2  A    between atoms: C_7  and  C_13
REMARK    3  A    between atoms: C_8  and  C_12
REMARK    4  A    between atoms: C_12  and  C_14
REMARK    5  A    between atoms: C_13  and  C_15
REMARK    6  A    between atoms: C_17  and  C_19
REMARK    7  A    between atoms: C_18  and  C_20
REMARK                            x       y       z     vdW  Elec       q    Type
REMARK                         _______ _______ _______ _____ _____    ______ ____
ROOT
ATOM      4  N   UNL     1      -0.606   5.269  24.632  0.00  0.00    -0.316 NA
ATOM      7  C   UNL     1      -2.685   3.306  25.357  0.00  0.00    +0.004 C 
ATOM      8  C   UNL     1      -1.416   2.924  24.558  0.00  0.00    +0.012 C 
ATOM      9  C   UNL     1      -2.396   4.570  26.183  0.00  0.00    +0.019 C 
ATOM     10  C   UNL     1      -0.863   4.119  23.764  0.00  0.00    +0.085 C 
ATOM     11  C   UNL     1      -1.812   5.699  25.337  0.00  0.00    +0.081 C 
ATOM     29  H   UNL     1      -0.249   6.043  24.071  0.00  0.00    +0.122 HD
ENDROOT
BRANCH   8  12
ATOM     12  C   UNL     1      -1.627   1.720  23.638  0.00  0.00    +0.064 C 
BRANCH  12  14
ATOM      3  O   UNL     1       0.977  -0.573  22.679  0.00  0.00    -0.354 OA
ATOM      6  N   UNL     1      -0.351  -0.164  22.711  0.00  0.00    -0.083 NA
ATOM     14  C   UNL     1      -0.343   0.981  23.401  0.00  0.00    +0.085 A 
ATOM     16  C   UNL     1       0.949   1.340  23.824  0.00  0.00    +0.076 A 
ATOM     17  C   UNL     1       1.741   0.331  23.345  0.00  0.00    +0.167 A 
BRANCH  17  19
ATOM     19  C   UNL     1       3.144   0.039  23.397  0.00  0.00    +0.020 A 
ATOM     21  C   UNL     1       4.073   1.025  23.068  0.00  0.00    +0.011 A 
ATOM     22  C   UNL     1       3.580  -1.231  23.775  0.00  0.00    +0.011 A 
ATOM     24  C   UNL     1       5.439   0.742  23.118  0.00  0.00    +0.001 A 
ATOM     25  C   UNL     1       4.944  -1.515  23.825  0.00  0.00    +0.001 A 
ATOM     28  C   UNL     1       5.874  -0.529  23.496  0.00  0.00    +0.000 A 
ENDBRANCH  17  19
ENDBRANCH  12  14
ENDBRANCH   8  12
BRANCH   7  13
ATOM     13  C   UNL     1      -3.935   3.496  24.488  0.00  0.00    +0.099 C 
BRANCH  13  15
ATOM      2  O   UNL     1      -6.106   2.506  24.888  0.00  0.00    -0.276 OA
ATOM      5  N   UNL     1      -4.288   1.127  24.455  0.00  0.00    -0.311 N 
ATOM     15  C   UNL     1      -4.914   2.350  24.637  0.00  0.00    +0.214 C 
ATOM     30  H   UNL     1      -3.306   1.106  24.197  0.00  0.00    +0.149 HD
BRANCH   5  18
ATOM     18  C   UNL     1      -4.982  -0.137  24.544  0.00  0.00    +0.146 C 
BRANCH  18  20
ATOM      1  S   UNL     1      -2.623  -1.250  25.499  0.00  0.00    -0.100 S 
ATOM     20  C   UNL     1      -4.035  -1.301  24.531  0.00  0.00    +0.007 A 
ATOM     23  C   UNL     1      -4.129  -2.476  23.817  0.00  0.00    +0.013 A 
ATOM     26  C   UNL     1      -3.029  -3.345  24.069  0.00  0.00    +0.008 A 
ATOM     27  C   UNL     1      -2.135  -2.802  24.965  0.00  0.00    +0.045 A 
ENDBRANCH  18  20
ENDBRANCH   5  18
ENDBRANCH  13  15
ENDBRANCH   7  13
TORSDOF 7
ENDMDL
MODEL 2
REMARK VINA RESULT:      -2.3      2.009      3.303
REMARK  Name = 40777401
REMARK  7 active torsions:
REMARK  status: ('A' for Active; 'I' for Inactive)
REMARK    1  A    between atoms: N_5  and  C_18
REMARK    2  A    between atoms: C_7  and  C_13
REMARK    3  A    between atoms: C_8  and  C_12
REMARK    4  A    between atoms: C_12  and  C_14
REMARK    5  A    between atoms: C_13  and  C_15
REMARK    6  A    between atoms: C_17  and  C_19
REMARK    7  A    between atoms: C_18  and  C_20
REMARK                            x       y       z     vdW  Elec       q    Type
REMARK                         _______ _______ _______ _____ _____    ______ ____
ROOT
ATOM      4  N   UNL     1      -6.205   4.451  26.089  0.00  0.00    -0.316 NA
ATOM      7  C   UNL     1      -4.021   2.621  25.326  0.00  0.00    +0.004 C 
ATOM      8  C   UNL     1      -3.766   4.046  25.872  0.00  0.00    +0.012 C 
ATOM      9  C   UNL     1      -5.395   2.134  25.816  0.00  0.00    +0.019 C 
ATOM     10  C   UNL     1      -4.945   4.988  25.575  0.00  0.00    +0.085 C 
ATOM     11  C   UNL     1      -6.508   3.138  25.523  0.00  0.00    +0.081 C 
ATOM     29  H   UNL     1      -6.963   5.097  25.867  0.00  0.00    +0.122 HD
ENDROOT
BRANCH   8  12
ATOM     12  C   UNL     1      -2.454   4.654  25.371  0.00  0.00    +0.064 C 
BRANCH  12  14
ATOM      3  O   UNL     1      -0.013   2.024  25.664  0.00  0.00    -0.354 OA
ATOM      6  N   UNL     1      -0.952   2.896  26.202  0.00  0.00    -0.083 NA
ATOM     14  C   UNL     1      -1.408   3.599  25.161  0.00  0.00    +0.085 A 
ATOM     16  C   UNL     1      -0.799   3.218  23.952  0.00  0.00    +0.076 A 
ATOM     17  C   UNL     1       0.069   2.226  24.324  0.00  0.00    +0.167 A 
BRANCH  17  19
ATOM     19  C   UNL     1       1.005   1.393  23.626  0.00  0.00    +0.020 A 
ATOM     21  C   UNL     1       0.571   0.221  23.009  0.00  0.00    +0.011 A 
ATOM     22  C   UNL     1       2.351   1.754  23.567  0.00  0.00    +0.011 A 
ATOM     24  C   UNL     1       1.481  -0.591  22.332  0.00  0.00    +0.001 A 
ATOM     25  C   UNL     1       3.262   0.944  22.890  0.00  0.00    +0.001 A 
ATOM     28  C   UNL     1       2.828  -0.229  22.272  0.00  0.00    +0.000 A 
ENDBRANCH  17  19
ENDBRANCH  12  14
ENDBRANCH   8  12
BRANCH   7  13
ATOM     13  C   UNL     1      -3.916   2.510  23.800  0.00  0.00    +0.099 C 
BRANCH  13  15
ATOM      2  O   UNL     1      -2.692   0.935  22.431  0.00  0.00    -0.276 OA
ATOM      5  N   UNL     1      -4.077   0.142  24.120  0.00  0.00    -0.311 N 
ATOM     15  C   UNL     1      -3.477   1.131  23.355  0.00  0.00    +0.214 C 
ATOM     30  H   UNL     1      -4.671   0.409  24.898  0.00  0.00    +0.149 HD
BRANCH   5  18
ATOM     18  C   UNL     1      -3.840  -1.268  23.913  0.00  0.00    +0.146 C 
BRANCH  18  20
ATOM      1  S   UNL     1      -1.799  -0.813  25.742  0.00  0.00    -0.100 S 
ATOM     20  C   UNL     1      -2.513  -1.702  24.464  0.00  0.00    +0.007 A 
ATOM     23  C   UNL     1      -1.731  -2.769  24.077  0.00  0.00    +0.013 A 
ATOM     26  C   UNL     1      -0.532  -2.857  24.841  0.00  0.00    +0.008 A 
ATOM     27  C   UNL     1      -0.441  -1.856  25.782  0.00  0.00    +0.045 A 
ENDBRANCH  18  20
ENDBRANCH   5  18
ENDBRANCH  13  15
ENDBRANCH   7  13
TORSDOF 7
ENDMDL
MODEL 3
REMARK VINA RESULT:      -2.0      1.685      4.634
REMARK  Name = 40777401
REMARK  7 active torsions:
REMARK  status: ('A' for Active; 'I' for Inactive)
REMARK    1  A    between atoms: N_5  and  C_18
REMARK    2  A    between atoms: C_7  and  C_13
REMARK    3  A    between atoms: C_8  and  C_12
REMARK    4  A    between atoms: C_12  and  C_14
REMARK    5  A    between atoms: C_13  and  C_15
REMARK    6  A    between atoms: C_17  and  C_19
REMARK    7  A    between atoms: C_18  and  C_20
REMARK                            x       y       z     vdW  Elec       q    Type
REMARK                         _______ _______ _______ _____ _____    ______ ____
ROOT
ATOM      4  N   UNL     1      -2.093  -2.784  24.778  0.00  0.00    -0.316 NA
ATOM      7  C   UNL     1      -3.951  -0.764  23.694  0.00  0.00    +0.004 C 
ATOM      8  C   UNL     1      -2.414  -0.629  23.587  0.00  0.00    +0.012 C 
ATOM      9  C   UNL     1      -4.316  -2.251  23.840  0.00  0.00    +0.019 C 
ATOM     10  C   UNL     1      -1.697  -1.376  24.724  0.00  0.00    +0.085 C 
ATOM     11  C   UNL     1      -3.536  -2.935  24.961  0.00  0.00    +0.081 C 
ATOM     29  H   UNL     1      -1.605  -3.243  25.547  0.00  0.00    +0.122 HD
ENDROOT
BRANCH   8  12
ATOM     12  C   UNL     1      -1.943   0.825  23.519  0.00  0.00    +0.064 C 
BRANCH  12  14
ATOM      3  O   UNL     1       1.503   1.821  23.827  0.00  0.00    -0.354 OA
ATOM      6  N   UNL     1       0.139   2.085  23.862  0.00  0.00    -0.083 NA
ATOM     14  C   UNL     1      -0.446   0.919  23.571  0.00  0.00    +0.085 A 
ATOM     16  C   UNL     1       0.490  -0.106  23.346  0.00  0.00    +0.076 A 
ATOM     17  C   UNL     1       1.699   0.513  23.519  0.00  0.00    +0.167 A 
BRANCH  17  19
ATOM     19  C   UNL     1       3.067   0.091  23.444  0.00  0.00    +0.020 A 
ATOM     21  C   UNL     1       3.415  -1.213  23.794  0.00  0.00    +0.011 A 
ATOM     22  C   UNL     1       4.052   0.986  23.024  0.00  0.00    +0.011 A 
ATOM     24  C   UNL     1       4.746  -1.624  23.723  0.00  0.00    +0.001 A 
ATOM     25  C   UNL     1       5.383   0.576  22.953  0.00  0.00    +0.001 A 
ATOM     28  C   UNL     1       5.731  -0.729  23.302  0.00  0.00    +0.000 A 
ENDBRANCH  17  19
ENDBRANCH  12  14
ENDBRANCH   8  12
BRANCH   7  13
ATOM     13  C   UNL     1      -4.572   0.064  24.827  0.00  0.00    +0.099 C 
BRANCH  13  15
ATOM      2  O   UNL     1      -4.392   2.044  23.448  0.00  0.00    -0.276 OA
ATOM      5  N   UNL     1      -4.467   2.267  25.760  0.00  0.00    -0.311 N 
ATOM     15  C   UNL     1      -4.467   1.553  24.571  0.00  0.00    +0.214 C 
ATOM     30  H   UNL     1      -4.588   1.771  26.637  0.00  0.00    +0.149 HD
BRANCH   5  18
ATOM     18  C   UNL     1      -4.375   3.708  25.814  0.00  0.00    +0.146 C 
BRANCH  18  20
ATOM      1  S   UNL     1      -1.648   3.334  26.197  0.00  0.00    -0.100 S 
ATOM     20  C   UNL     1      -2.979   4.192  25.545  0.00  0.00    +0.007 A 
ATOM     23  C   UNL     1      -2.578   5.287  24.811  0.00  0.00    +0.013 A 
ATOM     26  C   UNL     1      -1.160   5.422  24.783  0.00  0.00    +0.008 A 
ATOM     27  C   UNL     1      -0.531   4.426  25.496  0.00  0.00    +0.045 A 
ENDBRANCH  18  20
ENDBRANCH   5  18
ENDBRANCH  13  15
ENDBRANCH   7  13
TORSDOF 7
ENDMDL
MODEL 4
REMARK VINA RESULT:       0.1      1.871      4.171
REMARK  Name = 40777401
REMARK  7 active torsions:
REMARK  status: ('A' for Active; 'I' for Inactive)
REMARK    1  A    between atoms: N_5  and  C_18
REMARK    2  A    between atoms: C_7  and  C_13
REMARK    3  A    between atoms: C_8  and  C_12
REMARK    4  A    between atoms: C_12  and  C_14
REMARK    5  A    between atoms: C_13  and  C_15
REMARK    6  A    between atoms: C_17  and  C_19
REMARK    7  A    between atoms: C_18  and  C_20
REMARK                            x       y       z     vdW  Elec       q    Type
REMARK                         _______ _______ _______ _____ _____    ______ ____
ROOT
ATOM      4  N   UNL     1      -2.059  -1.026  26.819  0.00  0.00    -0.316 NA
ATOM      7  C   UNL     1      -3.080  -1.939  24.206  0.00  0.00    +0.004 C 
ATOM      8  C   UNL     1      -1.768  -1.132  24.356  0.00  0.00    +0.012 C 
ATOM      9  C   UNL     1      -3.374  -2.670  25.527  0.00  0.00    +0.019 C 
ATOM     10  C   UNL     1      -1.786  -0.245  25.612  0.00  0.00    +0.085 C 
ATOM     11  C   UNL     1      -3.335  -1.733  26.733  0.00  0.00    +0.081 C 
ATOM     29  H   UNL     1      -2.071  -0.404  27.628  0.00  0.00    +0.122 HD
ENDROOT
BRANCH   8  12
ATOM     12  C   UNL     1      -1.431  -0.302  23.117  0.00  0.00    +0.064 C 
BRANCH  12  14
ATOM      3  O   UNL     1       1.881  -0.264  21.704  0.00  0.00    -0.354 OA
ATOM      6  N   UNL     1       0.495  -0.265  21.591  0.00  0.00    -0.083 NA
ATOM     14  C   UNL     1       0.046  -0.293  22.849  0.00  0.00    +0.085 A 
ATOM     16  C   UNL     1       1.092  -0.309  23.789  0.00  0.00    +0.076 A 
ATOM     17  C   UNL     1       2.223  -0.290  23.018  0.00  0.00    +0.167 A 
BRANCH  17  19
ATOM     19  C   UNL     1       3.631  -0.293  23.292  0.00  0.00    +0.020 A 
ATOM     21  C   UNL     1       4.391   0.850  23.046  0.00  0.00    +0.011 A 
ATOM     22  C   UNL     1       4.240  -1.438  23.804  0.00  0.00    +0.011 A 
ATOM     24  C   UNL     1       5.761   0.847  23.312  0.00  0.00    +0.001 A 
ATOM     25  C   UNL     1       5.608  -1.442  24.070  0.00  0.00    +0.001 A 
ATOM     28  C   UNL     1       6.370  -0.299  23.824  0.00  0.00    +0.000 A 
ENDBRANCH  17  19
ENDBRANCH  12  14
ENDBRANCH   8  12
BRANCH   7  13
ATOM     13  C   UNL     1      -4.285  -1.094  23.771  0.00  0.00    +0.099 C 
BRANCH  13  15
ATOM      2  O   UNL     1      -4.705   0.251  25.738  0.00  0.00    -0.276 OA
ATOM      5  N   UNL     1      -4.087   1.293  23.756  0.00  0.00    -0.311 N 
ATOM     15  C   UNL     1      -4.389   0.199  24.553  0.00  0.00    +0.214 C 
ATOM     30  H   UNL     1      -3.785   1.141  22.798  0.00  0.00    +0.149 HD
BRANCH   5  18
ATOM     18  C   UNL     1      -4.110   2.654  24.242  0.00  0.00    +0.146 C 
BRANCH  18  20
ATOM      1  S   UNL     1      -2.458   4.383  25.655  0.00  0.00    -0.100 S 
ATOM     20  C   UNL     1      -2.727   3.200  24.446  0.00  0.00    +0.007 A 
ATOM     23  C   UNL     1      -1.570   2.880  23.769  0.00  0.00    +0.013 A 
ATOM     26  C   UNL     1      -0.448   3.614  24.252  0.00  0.00    +0.008 A 
ATOM     27  C   UNL     1      -0.790   4.468  25.277  0.00  0.00    +0.045 A 
ENDBRANCH  18  20
ENDBRANCH   5  18
ENDBRANCH  13  15
ENDBRANCH   7  13
TORSDOF 7
ENDMDL
MODEL 5
REMARK VINA RESULT:       0.3      1.811      2.226
REMARK  Name = 40777401
REMARK  7 active torsions:
REMARK  status: ('A' for Active; 'I' for Inactive)
REMARK    1  A    between atoms: N_5  and  C_18
REMARK    2  A    between atoms: C_7  and  C_13
REMARK    3  A    between atoms: C_8  and  C_12
REMARK    4  A    between atoms: C_12  and  C_14
REMARK    5  A    between atoms: C_13  and  C_15
REMARK    6  A    between atoms: C_17  and  C_19
REMARK    7  A    between atoms: C_18  and  C_20
REMARK                            x       y       z     vdW  Elec       q    Type
REMARK                         _______ _______ _______ _____ _____    ______ ____
ROOT
ATOM      4  N   UNL     1      -4.369   5.081  24.098  0.00  0.00    -0.316 NA
ATOM      7  C   UNL     1      -4.061   2.388  25.264  0.00  0.00    +0.004 C 
ATOM      8  C   UNL     1      -3.122   2.935  24.162  0.00  0.00    +0.012 C 
ATOM      9  C   UNL     1      -4.681   3.570  26.028  0.00  0.00    +0.019 C 
ATOM     10  C   UNL     1      -3.823   3.989  23.290  0.00  0.00    +0.085 C 
ATOM     11  C   UNL     1      -5.322   4.596  25.094  0.00  0.00    +0.081 C 
ATOM     29  H   UNL     1      -4.832   5.754  23.487  0.00  0.00    +0.122 HD
ENDROOT
BRANCH   8  12
ATOM     12  C   UNL     1      -2.517   1.833  23.290  0.00  0.00    +0.064 C 
BRANCH  12  14
ATOM      3  O   UNL     1       0.930   2.215  24.258  0.00  0.00    -0.354 OA
ATOM      6  N   UNL     1      -0.403   2.608  24.275  0.00  0.00    -0.083 NA
ATOM     14  C   UNL     1      -1.035   1.719  23.503  0.00  0.00    +0.085 A 
ATOM     16  C   UNL     1      -0.162   0.751  22.978  0.00  0.00    +0.076 A 
ATOM     17  C   UNL     1       1.061   1.108  23.482  0.00  0.00    +0.167 A 
BRANCH  17  19
ATOM     19  C   UNL     1       2.391   0.584  23.367  0.00  0.00    +0.020 A 
ATOM     21  C   UNL     1       3.436   1.416  22.969  0.00  0.00    +0.011 A 
ATOM     22  C   UNL     1       2.639  -0.759  23.651  0.00  0.00    +0.011 A 
ATOM     24  C   UNL     1       4.730   0.907  22.856  0.00  0.00    +0.001 A 
ATOM     25  C   UNL     1       3.931  -1.269  23.538  0.00  0.00    +0.001 A 
ATOM     28  C   UNL     1       4.978  -0.437  23.140  0.00  0.00    +0.000 A 
ENDBRANCH  17  19
ENDBRANCH  12  14
ENDBRANCH   8  12
BRANCH   7  13
ATOM     13  C   UNL     1      -5.151   1.444  24.742  0.00  0.00    +0.099 C 
BRANCH  13  15
ATOM      2  O   UNL     1      -4.841  -0.760  23.794  0.00  0.00    -0.276 OA
ATOM      5  N   UNL     1      -4.147  -0.348  25.973  0.00  0.00    -0.311 N 
ATOM     15  C   UNL     1      -4.708  -0.004  24.752  0.00  0.00    +0.214 C 
ATOM     30  H   UNL     1      -4.033   0.366  26.686  0.00  0.00    +0.149 HD
BRANCH   5  18
ATOM     18  C   UNL     1      -3.640  -1.669  26.264  0.00  0.00    +0.146 C 
BRANCH  18  20
ATOM      1  S   UNL     1      -0.910  -1.207  26.037  0.00  0.00    -0.100 S 
ATOM     20  C   UNL     1      -2.363  -1.956  25.528  0.00  0.00    +0.007 A 
ATOM     23  C   UNL     1      -2.166  -2.776  24.438  0.00  0.00    +0.013 A 
ATOM     26  C   UNL     1      -0.805  -2.791  24.019  0.00  0.00    +0.008 A 
ATOM     27  C   UNL     1      -0.013  -1.981  24.801  0.00  0.00    +0.045 A 
ENDBRANCH  18  20
ENDBRANCH   5  18
ENDBRANCH  13  15
ENDBRANCH   7  13
TORSDOF 7
ENDMDL
MODEL 6
REMARK VINA RESULT:       0.3      3.288      5.682
REMARK  Name = 40777401
REMARK  7 active torsions:
REMARK  status: ('A' for Active; 'I' for Inactive)
REMARK    1  A    between atoms: N_5  and  C_18
REMARK    2  A    between atoms: C_7  and  C_13
REMARK    3  A    between atoms: C_8  and  C_12
REMARK    4  A    between atoms: C_12  and  C_14
REMARK    5  A    between atoms: C_13  and  C_15
REMARK    6  A    between atoms: C_17  and  C_19
REMARK    7  A    between atoms: C_18  and  C_20
REMARK                            x       y       z     vdW  Elec       q    Type
REMARK                         _______ _______ _______ _____ _____    ______ ____
ROOT
ATOM      4  N   UNL     1      -1.861  -2.536  24.590  0.00  0.00    -0.316 NA
ATOM      7  C   UNL     1      -4.137  -0.820  23.832  0.00  0.00    +0.004 C 
ATOM      8  C   UNL     1      -2.664  -0.376  23.667  0.00  0.00    +0.012 C 
ATOM      9  C   UNL     1      -4.203  -2.356  23.826  0.00  0.00    +0.019 C 
ATOM     10  C   UNL     1      -1.742  -1.080  24.677  0.00  0.00    +0.085 C 
ATOM     11  C   UNL     1      -3.232  -2.985  24.824  0.00  0.00    +0.081 C 
ATOM     29  H   UNL     1      -1.243  -2.967  25.278  0.00  0.00    +0.122 HD
ENDROOT
BRANCH   8  12
ATOM     12  C   UNL     1      -2.483   1.141  23.741  0.00  0.00    +0.064 C 
BRANCH  12  14
ATOM      3  O   UNL     1       0.735   1.999  25.110  0.00  0.00    -0.354 OA
ATOM      6  N   UNL     1      -0.102   1.664  24.052  0.00  0.00    -0.083 NA
ATOM     14  C   UNL     1      -1.310   1.511  24.602  0.00  0.00    +0.085 A 
ATOM     16  C   UNL     1      -1.297   1.735  25.990  0.00  0.00    +0.076 A 
ATOM     17  C   UNL     1       0.011   2.038  26.258  0.00  0.00    +0.167 A 
BRANCH  17  19
ATOM     19  C   UNL     1       0.746   2.372  27.444  0.00  0.00    +0.020 A 
ATOM     21  C   UNL     1       0.260   1.993  28.695  0.00  0.00    +0.011 A 
ATOM     22  C   UNL     1       1.946   3.077  27.347  0.00  0.00    +0.011 A 
ATOM     24  C   UNL     1       0.974   2.318  29.849  0.00  0.00    +0.001 A 
ATOM     25  C   UNL     1       2.659   3.402  28.499  0.00  0.00    +0.001 A 
ATOM     28  C   UNL     1       2.174   3.023  29.751  0.00  0.00    +0.000 A 
ENDBRANCH  17  19
ENDBRANCH  12  14
ENDBRANCH   8  12
BRANCH   7  13
ATOM     13  C   UNL     1      -4.824  -0.249  25.079  0.00  0.00    +0.099 C 
BRANCH  13  15
ATOM      2  O   UNL     1      -5.847   1.664  24.008  0.00  0.00    -0.276 OA
ATOM      5  N   UNL     1      -4.599   1.974  25.943  0.00  0.00    -0.311 N 
ATOM     15  C   UNL     1      -5.162   1.219  24.925  0.00  0.00    +0.214 C 
ATOM     30  H   UNL     1      -4.092   1.504  26.687  0.00  0.00    +0.149 HD
BRANCH   5  18
ATOM     18  C   UNL     1      -4.757   3.406  26.043  0.00  0.00    +0.146 C 
BRANCH  18  20
ATOM      1  S   UNL     1      -3.391   4.222  23.766  0.00  0.00    -0.100 S 
ATOM     20  C   UNL     1      -3.584   4.143  25.465  0.00  0.00    +0.007 A 
ATOM     23  C   UNL     1      -2.574   4.806  26.131  0.00  0.00    +0.013 A 
ATOM     26  C   UNL     1      -1.633   5.386  25.232  0.00  0.00    +0.008 A 
ATOM     27  C   UNL     1      -1.957   5.144  23.916  0.00  0.00    +0.045 A 
ENDBRANCH  18  20
ENDBRANCH   5  18
ENDBRANCH  13  15
ENDBRANCH   7  13
TORSDOF 7
ENDMDL
