MODEL 1
REMARK VINA RESULT:       2.1      0.000      0.000
REMARK  Name = 11865896
REMARK  4 active torsions:
REMARK  status: ('A' for Active; 'I' for Inactive)
REMARK    1  A    between atoms: N_9  and  C_13
REMARK    2  A    between atoms: C_19  and  C_23
REMARK    3  A    between atoms: C_24  and  C_25
REMARK    4  A    between atoms: C_25  and  C_26
REMARK                            x       y       z     vdW  Elec       q    Type
REMARK                         _______ _______ _______ _____ _____    ______ ____
ROOT
ATOM      2  O   UNL     1      -1.870   1.746  22.531  0.00  0.00    -0.273 OA
ATOM      3  O   UNL     1      -4.350   4.219  27.060  0.00  0.00    -0.274 OA
ATOM      5  O   UNL     1       0.791   0.713  24.385  0.00  0.00    -0.275 OA
ATOM      6  N   UNL     1      -3.451   2.167  24.178  0.00  0.00    -0.287 N 
ATOM      7  N   UNL     1       0.185   2.909  23.978  0.00  0.00    -0.288 N 
ATOM      8  N   UNL     1      -2.488   4.535  25.819  0.00  0.00    -0.309 N 
ATOM     10  C   UNL     1      -1.153   2.839  24.562  0.00  0.00    +0.182 C 
ATOM     11  C   UNL     1      -3.796   2.401  25.584  0.00  0.00    +0.164 C 
ATOM     12  C   UNL     1      -1.591   4.299  24.709  0.00  0.00    +0.104 C 
ATOM     13  C   UNL     1      -5.464   0.997  24.527  0.00  0.00    +0.092 C 
ATOM     14  C   UNL     1      -5.277   1.984  25.674  0.00  0.00    +0.055 C 
ATOM     15  C   UNL     1      -4.570   1.585  23.445  0.00  0.00    +0.131 C 
ATOM     16  C   UNL     1      -0.267   5.049  24.831  0.00  0.00    +0.043 C 
ATOM     17  C   UNL     1      -2.167   2.178  23.645  0.00  0.00    +0.239 C 
ATOM     18  C   UNL     1       0.628   4.296  23.859  0.00  0.00    +0.110 C 
ATOM     20  C   UNL     1      -3.608   3.812  26.157  0.00  0.00    +0.234 C 
ATOM     24  C   UNL     1       0.978   1.785  23.804  0.00  0.00    +0.221 C 
ATOM     30  H   UNL     1      -2.398   5.436  26.279  0.00  0.00    +0.149 HD
ENDROOT
BRANCH  13   9
ATOM      4  O   UNL     1      -3.861  -0.857  22.960  0.00  0.00    -0.276 OA
ATOM      9  N   UNL     1      -5.042  -0.332  24.897  0.00  0.00    -0.311 N 
ATOM     23  C   UNL     1      -4.276  -1.141  24.077  0.00  0.00    +0.216 C 
ATOM     31  H   UNL     1      -5.299  -0.675  25.819  0.00  0.00    +0.149 HD
BRANCH  23  19
ATOM     19  C   UNL     1      -3.955  -2.476  24.664  0.00  0.00    +0.075 C 
ATOM     21  C   UNL     1      -2.553  -2.972  24.571  0.00  0.00    +0.013 C 
ATOM     22  C   UNL     1      -3.112  -2.527  25.891  0.00  0.00    +0.013 C 
ENDBRANCH  23  19
ENDBRANCH  13   9
BRANCH  24  25
ATOM     25  C   UNL     1       2.120   1.931  22.831  0.00  0.00    +0.138 C 
BRANCH  25  26
ATOM      1  S   UNL     1       2.597  -0.762  23.194  0.00  0.00    -0.101 S 
ATOM     26  C   UNL     1       3.120   0.859  23.126  0.00  0.00    -0.001 A 
ATOM     27  C   UNL     1       4.460   1.000  23.363  0.00  0.00    +0.011 A 
ATOM     28  C   UNL     1       5.082  -0.258  23.609  0.00  0.00    +0.008 A 
ATOM     29  C   UNL     1       4.184  -1.301  23.546  0.00  0.00    +0.045 A 
ENDBRANCH  25  26
ENDBRANCH  24  25
TORSDOF 4
ENDMDL
MODEL 2
REMARK VINA RESULT:       4.1      1.845      4.853
REMARK  Name = 11865896
REMARK  4 active torsions:
REMARK  status: ('A' for Active; 'I' for Inactive)
REMARK    1  A    between atoms: N_9  and  C_13
REMARK    2  A    between atoms: C_19  and  C_23
REMARK    3  A    between atoms: C_24  and  C_25
REMARK    4  A    between atoms: C_25  and  C_26
REMARK                            x       y       z     vdW  Elec       q    Type
REMARK                         _______ _______ _______ _____ _____    ______ ____
ROOT
ATOM      2  O   UNL     1      -0.628   1.030  26.047  0.00  0.00    -0.273 OA
ATOM      3  O   UNL     1      -6.136   0.914  24.491  0.00  0.00    -0.274 OA
ATOM      5  O   UNL     1       0.424   0.481  22.857  0.00  0.00    -0.275 OA
ATOM      6  N   UNL     1      -2.801   1.771  25.702  0.00  0.00    -0.287 N 
ATOM      7  N   UNL     1      -0.835  -0.972  24.146  0.00  0.00    -0.288 N 
ATOM      8  N   UNL     1      -4.413  -0.546  24.579  0.00  0.00    -0.309 N 
ATOM     10  C   UNL     1      -1.968  -0.078  24.372  0.00  0.00    +0.182 C 
ATOM     11  C   UNL     1      -3.976   1.915  24.837  0.00  0.00    +0.164 C 
ATOM     12  C   UNL     1      -3.076  -0.985  24.916  0.00  0.00    +0.104 C 
ATOM     13  C   UNL     1      -3.641   3.923  26.153  0.00  0.00    +0.092 C 
ATOM     14  C   UNL     1      -4.723   3.126  25.430  0.00  0.00    +0.055 C 
ATOM     15  C   UNL     1      -2.747   2.824  26.709  0.00  0.00    +0.131 C 
ATOM     16  C   UNL     1      -2.724  -2.352  24.335  0.00  0.00    +0.043 C 
ATOM     17  C   UNL     1      -1.700   0.960  25.446  0.00  0.00    +0.239 C 
ATOM     18  C   UNL     1      -1.205  -2.360  24.411  0.00  0.00    +0.110 C 
ATOM     20  C   UNL     1      -4.930   0.723  24.695  0.00  0.00    +0.234 C 
ATOM     24  C   UNL     1       0.334  -0.546  23.533  0.00  0.00    +0.221 C 
ATOM     30  H   UNL     1      -5.097  -1.282  24.430  0.00  0.00    +0.149 HD
ENDROOT
BRANCH  13   9
ATOM      4  O   UNL     1      -0.760   4.117  25.804  0.00  0.00    -0.276 OA
ATOM      9  N   UNL     1      -2.921   4.782  25.244  0.00  0.00    -0.311 N 
ATOM     23  C   UNL     1      -1.541   4.801  25.153  0.00  0.00    +0.216 C 
ATOM     31  H   UNL     1      -3.460   5.380  24.624  0.00  0.00    +0.149 HD
BRANCH  23  19
ATOM     19  C   UNL     1      -1.009   5.767  24.145  0.00  0.00    +0.075 C 
ATOM     21  C   UNL     1       0.452   6.059  24.147  0.00  0.00    +0.013 C 
ATOM     22  C   UNL     1      -0.153   5.243  23.044  0.00  0.00    +0.013 C 
ENDBRANCH  23  19
ENDBRANCH  13   9
BRANCH  24  25
ATOM     25  C   UNL     1       1.543  -1.423  23.742  0.00  0.00    +0.138 C 
BRANCH  25  26
ATOM      1  S   UNL     1       4.296  -1.246  23.805  0.00  0.00    -0.101 S 
ATOM     26  C   UNL     1       2.760  -0.621  23.409  0.00  0.00    -0.001 A 
ATOM     27  C   UNL     1       2.820   0.605  22.804  0.00  0.00    +0.011 A 
ATOM     28  C   UNL     1       4.166   1.050  22.658  0.00  0.00    +0.008 A 
ATOM     29  C   UNL     1       5.070   0.139  23.159  0.00  0.00    +0.045 A 
ENDBRANCH  25  26
ENDBRANCH  24  25
TORSDOF 4
ENDMDL
MODEL 3
REMARK VINA RESULT:       5.7      2.479      4.882
REMARK  Name = 11865896
REMARK  4 active torsions:
REMARK  status: ('A' for Active; 'I' for Inactive)
REMARK    1  A    between atoms: N_9  and  C_13
REMARK    2  A    between atoms: C_19  and  C_23
REMARK    3  A    between atoms: C_24  and  C_25
REMARK    4  A    between atoms: C_25  and  C_26
REMARK                            x       y       z     vdW  Elec       q    Type
REMARK                         _______ _______ _______ _____ _____    ______ ____
ROOT
ATOM      2  O   UNL     1      -2.913   0.694  23.532  0.00  0.00    -0.273 OA
ATOM      3  O   UNL     1      -0.328   5.662  24.723  0.00  0.00    -0.274 OA
ATOM      5  O   UNL     1      -1.732  -0.756  26.376  0.00  0.00    -0.275 OA
ATOM      6  N   UNL     1      -2.669   2.951  24.022  0.00  0.00    -0.287 N 
ATOM      7  N   UNL     1      -0.453   0.027  24.613  0.00  0.00    -0.288 N 
ATOM      8  N   UNL     1       0.302   3.554  24.207  0.00  0.00    -0.309 N 
ATOM     10  C   UNL     1      -0.905   1.415  24.664  0.00  0.00    +0.182 C 
ATOM     11  C   UNL     1      -2.086   4.023  24.834  0.00  0.00    +0.164 C 
ATOM     12  C   UNL     1       0.096   2.182  23.794  0.00  0.00    +0.104 C 
ATOM     13  C   UNL     1      -4.398   4.522  24.309  0.00  0.00    +0.092 C 
ATOM     14  C   UNL     1      -3.076   5.192  24.666  0.00  0.00    +0.055 C 
ATOM     15  C   UNL     1      -3.946   3.354  23.445  0.00  0.00    +0.131 C 
ATOM     16  C   UNL     1       1.358   1.328  23.881  0.00  0.00    +0.043 C 
ATOM     17  C   UNL     1      -2.268   1.619  24.027  0.00  0.00    +0.239 C 
ATOM     18  C   UNL     1       0.799  -0.086  23.870  0.00  0.00    +0.110 C 
ATOM     20  C   UNL     1      -0.659   4.487  24.516  0.00  0.00    +0.234 C 
ATOM     24  C   UNL     1      -1.034  -0.970  25.384  0.00  0.00    +0.221 C 
ATOM     30  H   UNL     1       1.237   3.924  24.064  0.00  0.00    +0.149 HD
ENDROOT
BRANCH  13   9
ATOM      4  O   UNL     1      -5.758   1.980  24.697  0.00  0.00    -0.276 OA
ATOM      9  N   UNL     1      -5.097   4.068  25.487  0.00  0.00    -0.311 N 
ATOM     23  C   UNL     1      -5.716   2.834  25.574  0.00  0.00    +0.216 C 
ATOM     31  H   UNL     1      -5.108   4.678  26.300  0.00  0.00    +0.149 HD
BRANCH  23  19
ATOM     19  C   UNL     1      -6.378   2.574  26.887  0.00  0.00    +0.075 C 
ATOM     21  C   UNL     1      -7.394   1.487  26.964  0.00  0.00    +0.013 C 
ATOM     22  C   UNL     1      -6.050   1.312  27.608  0.00  0.00    +0.013 C 
ENDBRANCH  23  19
ENDBRANCH  13   9
BRANCH  24  25
ATOM     25  C   UNL     1      -0.769  -2.385  24.934  0.00  0.00    +0.138 C 
BRANCH  25  26
ATOM      1  S   UNL     1      -3.526  -2.302  24.865  0.00  0.00    -0.101 S 
ATOM     26  C   UNL     1      -2.030  -2.923  24.336  0.00  0.00    -0.001 A 
ATOM     27  C   UNL     1      -2.160  -3.892  23.379  0.00  0.00    +0.011 A 
ATOM     28  C   UNL     1      -3.529  -4.136  23.066  0.00  0.00    +0.008 A 
ATOM     29  C   UNL     1      -4.378  -3.339  23.801  0.00  0.00    +0.045 A 
ENDBRANCH  25  26
ENDBRANCH  24  25
TORSDOF 4
ENDMDL
MODEL 4
REMARK VINA RESULT:       5.7      2.705      6.110
REMARK  Name = 11865896
REMARK  4 active torsions:
REMARK  status: ('A' for Active; 'I' for Inactive)
REMARK    1  A    between atoms: N_9  and  C_13
REMARK    2  A    between atoms: C_19  and  C_23
REMARK    3  A    between atoms: C_24  and  C_25
REMARK    4  A    between atoms: C_25  and  C_26
REMARK                            x       y       z     vdW  Elec       q    Type
REMARK                         _______ _______ _______ _____ _____    ______ ____
ROOT
ATOM      2  O   UNL     1      -2.242   1.239  25.851  0.00  0.00    -0.273 OA
ATOM      3  O   UNL     1       2.607  -0.004  23.072  0.00  0.00    -0.274 OA
ATOM      5  O   UNL     1      -3.725   2.401  23.018  0.00  0.00    -0.275 OA
ATOM      6  N   UNL     1      -0.504  -0.032  24.982  0.00  0.00    -0.287 N 
ATOM      7  N   UNL     1      -1.856   3.300  24.044  0.00  0.00    -0.288 N 
ATOM      8  N   UNL     1       1.447   1.857  23.620  0.00  0.00    -0.309 N 
ATOM     10  C   UNL     1      -1.014   2.109  23.962  0.00  0.00    +0.182 C 
ATOM     11  C   UNL     1       0.369  -0.401  23.863  0.00  0.00    +0.164 C 
ATOM     12  C   UNL     1       0.399   2.609  24.276  0.00  0.00    +0.104 C 
ATOM     13  C   UNL     1      -0.259  -2.368  25.130  0.00  0.00    +0.092 C 
ATOM     14  C   UNL     1       0.834  -1.828  24.214  0.00  0.00    +0.055 C 
ATOM     15  C   UNL     1      -0.655  -1.133  25.926  0.00  0.00    +0.131 C 
ATOM     16  C   UNL     1       0.351   4.074  23.852  0.00  0.00    +0.043 C 
ATOM     17  C   UNL     1      -1.346   1.074  25.023  0.00  0.00    +0.239 C 
ATOM     18  C   UNL     1      -1.048   4.494  24.278  0.00  0.00    +0.110 C 
ATOM     20  C   UNL     1       1.580   0.489  23.557  0.00  0.00    +0.234 C 
ATOM     24  C   UNL     1      -3.200   3.283  23.699  0.00  0.00    +0.221 C 
ATOM     30  H   UNL     1       2.270   2.387  23.350  0.00  0.00    +0.149 HD
ENDROOT
BRANCH  13   9
ATOM      4  O   UNL     1      -3.094  -1.988  25.659  0.00  0.00    -0.276 OA
ATOM      9  N   UNL     1      -1.373  -2.890  24.376  0.00  0.00    -0.311 N 
ATOM     23  C   UNL     1      -2.694  -2.652  24.710  0.00  0.00    +0.216 C 
ATOM     31  H   UNL     1      -1.171  -3.436  23.543  0.00  0.00    +0.149 HD
BRANCH  23  19
ATOM     19  C   UNL     1      -3.682  -3.289  23.790  0.00  0.00    +0.075 C 
ATOM     21  C   UNL     1      -5.118  -2.918  23.925  0.00  0.00    +0.013 C 
ATOM     22  C   UNL     1      -4.323  -2.444  22.743  0.00  0.00    +0.013 C 
ENDBRANCH  23  19
ENDBRANCH  13   9
BRANCH  24  25
ATOM     25  C   UNL     1      -4.026   4.433  24.221  0.00  0.00    +0.138 C 
BRANCH  25  26
ATOM      1  S   UNL     1      -5.159   2.186  25.351  0.00  0.00    -0.101 S 
ATOM     26  C   UNL     1      -5.088   3.872  25.110  0.00  0.00    -0.001 A 
ATOM     27  C   UNL     1      -6.061   4.552  25.792  0.00  0.00    +0.011 A 
ATOM     28  C   UNL     1      -6.893   3.667  26.536  0.00  0.00    +0.008 A 
ATOM     29  C   UNL     1      -6.513   2.351  26.387  0.00  0.00    +0.045 A 
ENDBRANCH  25  26
ENDBRANCH  24  25
TORSDOF 4
ENDMDL
