MODEL 1
REMARK VINA RESULT:      -4.6      0.000      0.000
REMARK  Name = 45784233
REMARK  5 active torsions:
REMARK  status: ('A' for Active; 'I' for Inactive)
REMARK    1  A    between atoms: O_2  and  C_15
REMARK    2  A    between atoms: O_2  and  C_24
REMARK    3  A    between atoms: N_3  and  C_11
REMARK    4  A    between atoms: C_6  and  C_10
REMARK    5  A    between atoms: C_11  and  C_12
REMARK                            x       y       z     vdW  Elec       q    Type
REMARK                         _______ _______ _______ _____ _____    ______ ____
ROOT
ATOM      3  N   UNL     1      16.535  -4.216  31.860  0.00  0.00    -0.297 NA
ATOM      6  C   UNL     1      17.405  -3.210  29.929  0.00  0.00    +0.070 C 
ATOM      7  C   UNL     1      16.302  -2.316  30.523  0.00  0.00    +0.028 C 
ATOM      8  C   UNL     1      17.212  -4.571  30.610  0.00  0.00    +0.096 C 
ATOM      9  C   UNL     1      15.534  -3.221  31.477  0.00  0.00    +0.085 C 
ENDROOT
BRANCH   6  10
ATOM      1  F   UNL     1      17.403  -1.986  22.769  0.00  0.00    -0.205 F 
ATOM      4  N   UNL     1      17.404  -2.178  27.641  0.00  0.00    -0.341 N 
ATOM      5  N   UNL     1      17.405  -4.400  27.699  0.00  0.00    -0.232 NA
ATOM     10  C   UNL     1      17.405  -3.301  28.421  0.00  0.00    +0.113 A 
ATOM     13  C   UNL     1      17.404  -2.578  26.329  0.00  0.00    +0.069 A 
ATOM     14  C   UNL     1      17.405  -3.969  26.392  0.00  0.00    +0.089 A 
ATOM     17  C   UNL     1      17.404  -1.865  25.130  0.00  0.00    +0.066 A 
ATOM     18  C   UNL     1      17.405  -4.709  25.198  0.00  0.00    +0.032 A 
ATOM     21  C   UNL     1      17.404  -2.618  23.951  0.00  0.00    +0.125 A 
ATOM     22  C   UNL     1      17.404  -4.015  23.982  0.00  0.00    +0.040 A 
ATOM     25  H   UNL     1      17.404  -1.221  27.969  0.00  0.00    +0.167 HD
ENDBRANCH   6  10
BRANCH   3  11
ATOM     11  C   UNL     1      15.944  -5.372  32.519  0.00  0.00    +0.123 C 
BRANCH  11  12
ATOM     12  C   UNL     1      14.615  -5.741  31.916  0.00  0.00    +0.008 A 
ATOM     15  C   UNL     1      14.535  -6.684  30.892  0.00  0.00    +0.124 A 
ATOM     16  C   UNL     1      13.456  -5.130  32.394  0.00  0.00    +0.008 A 
ATOM     19  C   UNL     1      13.295  -7.014  30.343  0.00  0.00    +0.046 A 
ATOM     20  C   UNL     1      12.216  -5.460  31.845  0.00  0.00    +0.001 A 
ATOM     23  C   UNL     1      12.136  -6.403  30.821  0.00  0.00    +0.004 A 
BRANCH  15   2
ATOM      2  O   UNL     1      15.657  -7.292  30.413  0.00  0.00    -0.495 OA
ATOM     24  C   UNL     1      15.721  -7.519  29.007  0.00  0.00    +0.277 C 
ENDBRANCH  15   2
ENDBRANCH  11  12
ENDBRANCH   3  11
TORSDOF 4
ENDMDL
MODEL 2
REMARK VINA RESULT:      -3.9      1.238      2.034
REMARK  Name = 45784233
REMARK  5 active torsions:
REMARK  status: ('A' for Active; 'I' for Inactive)
REMARK    1  A    between atoms: O_2  and  C_15
REMARK    2  A    between atoms: O_2  and  C_24
REMARK    3  A    between atoms: N_3  and  C_11
REMARK    4  A    between atoms: C_6  and  C_10
REMARK    5  A    between atoms: C_11  and  C_12
REMARK                            x       y       z     vdW  Elec       q    Type
REMARK                         _______ _______ _______ _____ _____    ______ ____
ROOT
ATOM      3  N   UNL     1      16.081  -3.946  31.358  0.00  0.00    -0.297 NA
ATOM      6  C   UNL     1      17.405  -3.376  29.508  0.00  0.00    +0.070 C 
ATOM      7  C   UNL     1      16.904  -2.095  30.197  0.00  0.00    +0.028 C 
ATOM      8  C   UNL     1      16.517  -4.493  30.070  0.00  0.00    +0.096 C 
ATOM      9  C   UNL     1      15.750  -2.549  31.080  0.00  0.00    +0.085 C 
ENDROOT
BRANCH   6  10
ATOM      1  F   UNL     1      17.402  -1.495  22.492  0.00  0.00    -0.205 F 
ATOM      4  N   UNL     1      17.404  -2.137  27.325  0.00  0.00    -0.341 N 
ATOM      5  N   UNL     1      17.404  -4.355  27.178  0.00  0.00    -0.232 NA
ATOM     10  C   UNL     1      17.405  -3.328  27.998  0.00  0.00    +0.113 A 
ATOM     13  C   UNL     1      17.403  -2.414  25.982  0.00  0.00    +0.069 A 
ATOM     14  C   UNL     1      17.404  -3.805  25.916  0.00  0.00    +0.089 A 
ATOM     17  C   UNL     1      17.404  -1.593  24.854  0.00  0.00    +0.066 A 
ATOM     18  C   UNL     1      17.403  -4.431  24.658  0.00  0.00    +0.032 A 
ATOM     21  C   UNL     1      17.403  -2.233  23.610  0.00  0.00    +0.125 A 
ATOM     22  C   UNL     1      17.402  -3.627  23.512  0.00  0.00    +0.040 A 
ATOM     25  H   UNL     1      17.405  -1.214  27.741  0.00  0.00    +0.167 HD
ENDBRANCH   6  10
BRANCH   3  11
ATOM     11  C   UNL     1      14.959  -4.681  31.922  0.00  0.00    +0.123 C 
BRANCH  11  12
ATOM     12  C   UNL     1      15.165  -6.171  31.836  0.00  0.00    +0.008 A 
ATOM     15  C   UNL     1      14.140  -7.007  31.394  0.00  0.00    +0.124 A 
ATOM     16  C   UNL     1      16.397  -6.711  32.203  0.00  0.00    +0.008 A 
ATOM     19  C   UNL     1      14.347  -8.385  31.321  0.00  0.00    +0.046 A 
ATOM     20  C   UNL     1      16.604  -8.089  32.131  0.00  0.00    +0.001 A 
ATOM     23  C   UNL     1      15.580  -8.925  31.689  0.00  0.00    +0.004 A 
BRANCH  15   2
ATOM      2  O   UNL     1      12.930  -6.496  31.031  0.00  0.00    -0.495 OA
ATOM     24  C   UNL     1      11.774  -7.087  31.621  0.00  0.00    +0.277 C 
ENDBRANCH  15   2
ENDBRANCH  11  12
ENDBRANCH   3  11
TORSDOF 4
ENDMDL
MODEL 3
REMARK VINA RESULT:      -3.0     16.672     18.281
REMARK  Name = 45784233
REMARK  5 active torsions:
REMARK  status: ('A' for Active; 'I' for Inactive)
REMARK    1  A    between atoms: O_2  and  C_15
REMARK    2  A    between atoms: O_2  and  C_24
REMARK    3  A    between atoms: N_3  and  C_11
REMARK    4  A    between atoms: C_6  and  C_10
REMARK    5  A    between atoms: C_11  and  C_12
REMARK                            x       y       z     vdW  Elec       q    Type
REMARK                         _______ _______ _______ _____ _____    ______ ____
ROOT
ATOM      3  N   UNL     1      -2.738  -0.081  24.602  0.00  0.00    -0.297 NA
ATOM      6  C   UNL     1      -0.752  -0.819  23.598  0.00  0.00    +0.070 C 
ATOM      7  C   UNL     1      -1.093  -1.727  24.792  0.00  0.00    +0.028 C 
ATOM      8  C   UNL     1      -1.626   0.426  23.793  0.00  0.00    +0.096 C 
ATOM      9  C   UNL     1      -2.111  -0.940  25.606  0.00  0.00    +0.085 C 
ENDROOT
BRANCH   6  10
ATOM      1  F   UNL     1       6.512  -0.726  23.596  0.00  0.00    -0.205 F 
ATOM      4  N   UNL     1       1.685  -1.358  23.869  0.00  0.00    -0.341 N 
ATOM      5  N   UNL     1       1.228   0.605  22.931  0.00  0.00    -0.232 NA
ATOM     10  C   UNL     1       0.716  -0.490  23.449  0.00  0.00    +0.113 A 
ATOM     13  C   UNL     1       2.903  -0.787  23.604  0.00  0.00    +0.069 A 
ATOM     14  C   UNL     1       2.591   0.437  23.019  0.00  0.00    +0.089 A 
ATOM     17  C   UNL     1       4.211  -1.223  23.818  0.00  0.00    +0.066 A 
ATOM     18  C   UNL     1       3.633   1.290  22.619  0.00  0.00    +0.032 A 
ATOM     21  C   UNL     1       5.236  -0.360  23.414  0.00  0.00    +0.125 A 
ATOM     22  C   UNL     1       4.954   0.875  22.825  0.00  0.00    +0.040 A 
ATOM     25  H   UNL     1       1.535  -2.262  24.298  0.00  0.00    +0.167 HD
ENDBRANCH   6  10
BRANCH   3  11
ATOM     11  C   UNL     1      -3.523   0.989  25.200  0.00  0.00    +0.123 C 
BRANCH  11  12
ATOM     12  C   UNL     1      -2.772   2.294  25.213  0.00  0.00    +0.008 A 
ATOM     15  C   UNL     1      -3.411   3.488  24.880  0.00  0.00    +0.124 A 
ATOM     16  C   UNL     1      -1.422   2.300  25.564  0.00  0.00    +0.008 A 
ATOM     19  C   UNL     1      -2.700   4.688  24.897  0.00  0.00    +0.046 A 
ATOM     20  C   UNL     1      -0.710   3.500  25.580  0.00  0.00    +0.001 A 
ATOM     23  C   UNL     1      -1.350   4.694  25.247  0.00  0.00    +0.004 A 
BRANCH  15   2
ATOM      2  O   UNL     1      -4.730   3.501  24.535  0.00  0.00    -0.495 OA
ATOM     24  C   UNL     1      -5.676   3.587  25.598  0.00  0.00    +0.277 C 
ENDBRANCH  15   2
ENDBRANCH  11  12
ENDBRANCH   3  11
TORSDOF 4
ENDMDL
MODEL 4
REMARK VINA RESULT:      -2.5     17.040     18.635
REMARK  Name = 45784233
REMARK  5 active torsions:
REMARK  status: ('A' for Active; 'I' for Inactive)
REMARK    1  A    between atoms: O_2  and  C_15
REMARK    2  A    between atoms: O_2  and  C_24
REMARK    3  A    between atoms: N_3  and  C_11
REMARK    4  A    between atoms: C_6  and  C_10
REMARK    5  A    between atoms: C_11  and  C_12
REMARK                            x       y       z     vdW  Elec       q    Type
REMARK                         _______ _______ _______ _____ _____    ______ ____
ROOT
ATOM      3  N   UNL     1      -3.123  -0.926  24.511  0.00  0.00    -0.297 NA
ATOM      6  C   UNL     1      -0.821  -1.368  24.556  0.00  0.00    +0.070 C 
ATOM      7  C   UNL     1      -1.272  -0.847  25.932  0.00  0.00    +0.028 C 
ATOM      8  C   UNL     1      -1.973  -1.011  23.608  0.00  0.00    +0.096 C 
ATOM      9  C   UNL     1      -2.630  -0.203  25.683  0.00  0.00    +0.085 C 
ENDROOT
BRANCH   6  10
ATOM      1  F   UNL     1       6.175  -0.250  22.951  0.00  0.00    -0.205 F 
ATOM      4  N   UNL     1       1.669  -1.546  24.288  0.00  0.00    -0.341 N 
ATOM      5  N   UNL     1       0.736   0.292  23.455  0.00  0.00    -0.232 NA
ATOM     10  C   UNL     1       0.515  -0.841  24.084  0.00  0.00    +0.113 A 
ATOM     13  C   UNL     1       2.703  -0.820  23.756  0.00  0.00    +0.069 A 
ATOM     14  C   UNL     1       2.095   0.322  23.241  0.00  0.00    +0.089 A 
ATOM     17  C   UNL     1       4.076  -1.057  23.680  0.00  0.00    +0.066 A 
ATOM     18  C   UNL     1       2.888   1.296  22.612  0.00  0.00    +0.032 A 
ATOM     21  C   UNL     1       4.850  -0.077  23.051  0.00  0.00    +0.125 A 
ATOM     22  C   UNL     1       4.269   1.080  22.526  0.00  0.00    +0.040 A 
ATOM     25  H   UNL     1       1.749  -2.443  24.750  0.00  0.00    +0.167 HD
ENDBRANCH   6  10
BRANCH   3  11
ATOM     11  C   UNL     1      -4.266  -0.268  23.894  0.00  0.00    +0.123 C 
BRANCH  11  12
ATOM     12  C   UNL     1      -4.526   1.086  24.499  0.00  0.00    +0.008 A 
ATOM     15  C   UNL     1      -3.782   2.198  24.103  0.00  0.00    +0.124 A 
ATOM     16  C   UNL     1      -5.524   1.222  25.464  0.00  0.00    +0.008 A 
ATOM     19  C   UNL     1      -4.036   3.445  24.674  0.00  0.00    +0.046 A 
ATOM     20  C   UNL     1      -5.777   2.470  26.035  0.00  0.00    +0.001 A 
ATOM     23  C   UNL     1      -5.033   3.581  25.640  0.00  0.00    +0.004 A 
BRANCH  15   2
ATOM      2  O   UNL     1      -2.804   2.083  23.161  0.00  0.00    -0.495 OA
ATOM     24  C   UNL     1      -1.513   2.581  23.505  0.00  0.00    +0.277 C 
ENDBRANCH  15   2
ENDBRANCH  11  12
ENDBRANCH   3  11
TORSDOF 4
ENDMDL
MODEL 5
REMARK VINA RESULT:      -2.0     16.542     18.137
REMARK  Name = 45784233
REMARK  5 active torsions:
REMARK  status: ('A' for Active; 'I' for Inactive)
REMARK    1  A    between atoms: O_2  and  C_15
REMARK    2  A    between atoms: O_2  and  C_24
REMARK    3  A    between atoms: N_3  and  C_11
REMARK    4  A    between atoms: C_6  and  C_10
REMARK    5  A    between atoms: C_11  and  C_12
REMARK                            x       y       z     vdW  Elec       q    Type
REMARK                         _______ _______ _______ _____ _____    ______ ____
ROOT
ATOM      3  N   UNL     1      -2.926  -0.016  24.641  0.00  0.00    -0.297 NA
ATOM      6  C   UNL     1      -0.971  -0.675  23.528  0.00  0.00    +0.070 C 
ATOM      7  C   UNL     1      -1.336  -1.725  24.592  0.00  0.00    +0.028 C 
ATOM      8  C   UNL     1      -1.802   0.559  23.897  0.00  0.00    +0.096 C 
ATOM      9  C   UNL     1      -2.323  -1.023  25.514  0.00  0.00    +0.085 C 
ENDROOT
BRANCH   6  10
ATOM      1  F   UNL     1       6.293  -0.767  23.608  0.00  0.00    -0.205 F 
ATOM      4  N   UNL     1       1.449  -1.289  23.798  0.00  0.00    -0.341 N 
ATOM      5  N   UNL     1       1.052   0.729  22.953  0.00  0.00    -0.232 NA
ATOM     10  C   UNL     1       0.507  -0.376  23.411  0.00  0.00    +0.113 A 
ATOM     13  C   UNL     1       2.684  -0.736  23.575  0.00  0.00    +0.069 A 
ATOM     14  C   UNL     1       2.409   0.523  23.047  0.00  0.00    +0.089 A 
ATOM     17  C   UNL     1       3.978  -1.215  23.781  0.00  0.00    +0.066 A 
ATOM     18  C   UNL     1       3.477   1.367  22.700  0.00  0.00    +0.032 A 
ATOM     21  C   UNL     1       5.028  -0.360  23.430  0.00  0.00    +0.125 A 
ATOM     22  C   UNL     1       4.785   0.909  22.899  0.00  0.00    +0.040 A 
ATOM     25  H   UNL     1       1.271  -2.208  24.181  0.00  0.00    +0.167 HD
ENDBRANCH   6  10
BRANCH   3  11
ATOM     11  C   UNL     1      -3.672   0.988  25.386  0.00  0.00    +0.123 C 
BRANCH  11  12
ATOM     12  C   UNL     1      -3.214   2.384  25.055  0.00  0.00    +0.008 A 
ATOM     15  C   UNL     1      -2.008   2.875  25.553  0.00  0.00    +0.124 A 
ATOM     16  C   UNL     1      -4.012   3.189  24.241  0.00  0.00    +0.008 A 
ATOM     19  C   UNL     1      -1.599   4.172  25.238  0.00  0.00    +0.046 A 
ATOM     20  C   UNL     1      -3.603   4.485  23.926  0.00  0.00    +0.001 A 
ATOM     23  C   UNL     1      -2.397   4.976  24.424  0.00  0.00    +0.004 A 
BRANCH  15   2
ATOM      2  O   UNL     1      -1.216   2.103  26.349  0.00  0.00    -0.495 OA
ATOM     24  C   UNL     1       0.179   2.403  26.362  0.00  0.00    +0.277 C 
ENDBRANCH  15   2
ENDBRANCH  11  12
ENDBRANCH   3  11
TORSDOF 4
ENDMDL
MODEL 6
REMARK VINA RESULT:      -1.9     17.078     18.625
REMARK  Name = 45784233
REMARK  5 active torsions:
REMARK  status: ('A' for Active; 'I' for Inactive)
REMARK    1  A    between atoms: O_2  and  C_15
REMARK    2  A    between atoms: O_2  and  C_24
REMARK    3  A    between atoms: N_3  and  C_11
REMARK    4  A    between atoms: C_6  and  C_10
REMARK    5  A    between atoms: C_11  and  C_12
REMARK                            x       y       z     vdW  Elec       q    Type
REMARK                         _______ _______ _______ _____ _____    ______ ____
ROOT
ATOM      3  N   UNL     1      -2.483   0.719  23.481  0.00  0.00    -0.297 NA
ATOM      6  C   UNL     1      -0.455  -0.458  23.464  0.00  0.00    +0.070 C 
ATOM      7  C   UNL     1      -1.038  -0.457  24.888  0.00  0.00    +0.028 C 
ATOM      8  C   UNL     1      -1.230   0.641  22.726  0.00  0.00    +0.096 C 
ATOM      9  C   UNL     1      -2.081   0.652  24.886  0.00  0.00    +0.085 C 
ENDROOT
BRANCH   6  10
ATOM      1  F   UNL     1       6.775  -1.092  23.774  0.00  0.00    -0.205 F 
ATOM      4  N   UNL     1       1.902  -1.247  23.817  0.00  0.00    -0.341 N 
ATOM      5  N   UNL     1       1.684   0.783  22.938  0.00  0.00    -0.232 NA
ATOM     10  C   UNL     1       1.043  -0.271  23.390  0.00  0.00    +0.113 A 
ATOM     13  C   UNL     1       3.181  -0.791  23.626  0.00  0.00    +0.069 A 
ATOM     14  C   UNL     1       3.019   0.478  23.077  0.00  0.00    +0.089 A 
ATOM     17  C   UNL     1       4.429  -1.363  23.879  0.00  0.00    +0.066 A 
ATOM     18  C   UNL     1       4.157   1.235  22.754  0.00  0.00    +0.032 A 
ATOM     21  C   UNL     1       5.551  -0.594  23.552  0.00  0.00    +0.125 A 
ATOM     22  C   UNL     1       5.420   0.683  23.000  0.00  0.00    +0.040 A 
ATOM     25  H   UNL     1       1.643  -2.145  24.204  0.00  0.00    +0.167 HD
ENDBRANCH   6  10
BRANCH   3  11
ATOM     11  C   UNL     1      -3.241   1.925  23.177  0.00  0.00    +0.123 C 
BRANCH  11  12
ATOM     12  C   UNL     1      -4.210   2.269  24.277  0.00  0.00    +0.008 A 
ATOM     15  C   UNL     1      -4.125   3.489  24.946  0.00  0.00    +0.124 A 
ATOM     16  C   UNL     1      -5.202   1.351  24.623  0.00  0.00    +0.008 A 
ATOM     19  C   UNL     1      -5.031   3.791  25.963  0.00  0.00    +0.046 A 
ATOM     20  C   UNL     1      -6.108   1.653  25.640  0.00  0.00    +0.001 A 
ATOM     23  C   UNL     1      -6.023   2.874  26.309  0.00  0.00    +0.004 A 
BRANCH  15   2
ATOM      2  O   UNL     1      -3.163   4.398  24.620  0.00  0.00    -0.495 OA
ATOM     24  C   UNL     1      -1.980   4.401  25.416  0.00  0.00    +0.277 C 
ENDBRANCH  15   2
ENDBRANCH  11  12
ENDBRANCH   3  11
TORSDOF 4
ENDMDL
MODEL 7
REMARK VINA RESULT:      -1.3     16.553     18.101
REMARK  Name = 45784233
REMARK  5 active torsions:
REMARK  status: ('A' for Active; 'I' for Inactive)
REMARK    1  A    between atoms: O_2  and  C_15
REMARK    2  A    between atoms: O_2  and  C_24
REMARK    3  A    between atoms: N_3  and  C_11
REMARK    4  A    between atoms: C_6  and  C_10
REMARK    5  A    between atoms: C_11  and  C_12
REMARK                            x       y       z     vdW  Elec       q    Type
REMARK                         _______ _______ _______ _____ _____    ______ ____
ROOT
ATOM      3  N   UNL     1      -3.025   1.770  24.473  0.00  0.00    -0.297 NA
ATOM      6  C   UNL     1      -0.794   2.070  23.819  0.00  0.00    +0.070 C 
ATOM      7  C   UNL     1      -1.700   2.073  22.575  0.00  0.00    +0.028 C 
ATOM      8  C   UNL     1      -1.665   1.479  24.934  0.00  0.00    +0.096 C 
ATOM      9  C   UNL     1      -3.013   1.461  23.044  0.00  0.00    +0.085 C 
ENDROOT
BRANCH   6  10
ATOM      1  F   UNL     1       6.131   0.098  22.855  0.00  0.00    -0.205 F 
ATOM      4  N   UNL     1       1.689   2.018  23.453  0.00  0.00    -0.341 N 
ATOM      5  N   UNL     1       0.702   0.038  23.661  0.00  0.00    -0.232 NA
ATOM     10  C   UNL     1       0.518   1.339  23.648  0.00  0.00    +0.113 A 
ATOM     13  C   UNL     1       2.695   1.093  23.333  0.00  0.00    +0.069 A 
ATOM     14  C   UNL     1       2.053  -0.135  23.466  0.00  0.00    +0.089 A 
ATOM     17  C   UNL     1       4.069   1.221  23.126  0.00  0.00    +0.066 A 
ATOM     18  C   UNL     1       2.811  -1.315  23.391  0.00  0.00    +0.032 A 
ATOM     21  C   UNL     1       4.808   0.036  23.053  0.00  0.00    +0.125 A 
ATOM     22  C   UNL     1       4.192  -1.212  23.183  0.00  0.00    +0.040 A 
ATOM     25  H   UNL     1       1.799   3.023  23.405  0.00  0.00    +0.167 HD
ENDBRANCH   6  10
BRANCH   3  11
ATOM     11  C   UNL     1      -4.032   1.008  25.198  0.00  0.00    +0.123 C 
BRANCH  11  12
ATOM     12  C   UNL     1      -3.955  -0.462  24.884  0.00  0.00    +0.008 A 
ATOM     15  C   UNL     1      -3.155  -1.312  25.648  0.00  0.00    +0.124 A 
ATOM     16  C   UNL     1      -4.694  -0.972  23.817  0.00  0.00    +0.008 A 
ATOM     19  C   UNL     1      -3.094  -2.672  25.343  0.00  0.00    +0.046 A 
ATOM     20  C   UNL     1      -4.632  -2.332  23.512  0.00  0.00    +0.001 A 
ATOM     23  C   UNL     1      -3.833  -3.182  24.275  0.00  0.00    +0.004 A 
BRANCH  15   2
ATOM      2  O   UNL     1      -2.426  -0.832  26.694  0.00  0.00    -0.495 OA
ATOM     24  C   UNL     1      -1.007  -0.880  26.572  0.00  0.00    +0.277 C 
ENDBRANCH  15   2
ENDBRANCH  11  12
ENDBRANCH   3  11
TORSDOF 4
ENDMDL
MODEL 8
REMARK VINA RESULT:      -0.8     18.546     20.453
REMARK  Name = 45784233
REMARK  5 active torsions:
REMARK  status: ('A' for Active; 'I' for Inactive)
REMARK    1  A    between atoms: O_2  and  C_15
REMARK    2  A    between atoms: O_2  and  C_24
REMARK    3  A    between atoms: N_3  and  C_11
REMARK    4  A    between atoms: C_6  and  C_10
REMARK    5  A    between atoms: C_11  and  C_12
REMARK                            x       y       z     vdW  Elec       q    Type
REMARK                         _______ _______ _______ _____ _____    ______ ____
ROOT
ATOM      3  N   UNL     1      -0.420   3.678  25.321  0.00  0.00    -0.297 NA
ATOM      6  C   UNL     1      -0.271   1.339  25.355  0.00  0.00    +0.070 C 
ATOM      7  C   UNL     1       0.619   1.895  24.230  0.00  0.00    +0.028 C 
ATOM      8  C   UNL     1      -1.193   2.504  25.735  0.00  0.00    +0.096 C 
ATOM      9  C   UNL     1       0.135   3.323  24.016  0.00  0.00    +0.085 C 
ENDROOT
BRANCH   6  10
ATOM      1  F   UNL     1      -5.215  -3.674  23.568  0.00  0.00    -0.205 F 
ATOM      4  N   UNL     1      -2.371   0.109  24.739  0.00  0.00    -0.341 N 
ATOM      5  N   UNL     1      -0.536  -1.135  24.908  0.00  0.00    -0.232 NA
ATOM     10  C   UNL     1      -1.029   0.079  25.002  0.00  0.00    +0.113 A 
ATOM     13  C   UNL     1      -2.770  -1.172  24.456  0.00  0.00    +0.069 A 
ATOM     14  C   UNL     1      -1.607  -1.930  24.567  0.00  0.00    +0.089 A 
ATOM     17  C   UNL     1      -4.010  -1.717  24.120  0.00  0.00    +0.066 A 
ATOM     18  C   UNL     1      -1.667  -3.314  24.334  0.00  0.00    +0.032 A 
ATOM     21  C   UNL     1      -4.051  -3.096  23.892  0.00  0.00    +0.125 A 
ATOM     22  C   UNL     1      -2.901  -3.883  23.997  0.00  0.00    +0.040 A 
ATOM     25  H   UNL     1      -2.966   0.927  24.751  0.00  0.00    +0.167 HD
ENDBRANCH   6  10
BRANCH   3  11
ATOM     11  C   UNL     1      -1.231   4.886  25.269  0.00  0.00    +0.123 C 
BRANCH  11  12
ATOM     12  C   UNL     1      -2.703   4.576  25.325  0.00  0.00    +0.008 A 
ATOM     15  C   UNL     1      -3.342   3.958  24.251  0.00  0.00    +0.124 A 
ATOM     16  C   UNL     1      -3.428   4.913  26.468  0.00  0.00    +0.008 A 
ATOM     19  C   UNL     1      -4.707   3.678  24.319  0.00  0.00    +0.046 A 
ATOM     20  C   UNL     1      -4.793   4.634  26.536  0.00  0.00    +0.001 A 
ATOM     23  C   UNL     1      -5.432   4.016  25.462  0.00  0.00    +0.004 A 
BRANCH  15   2
ATOM      2  O   UNL     1      -2.649   3.621  23.126  0.00  0.00    -0.495 OA
ATOM     24  C   UNL     1      -2.987   2.383  22.504  0.00  0.00    +0.277 C 
ENDBRANCH  15   2
ENDBRANCH  11  12
ENDBRANCH   3  11
TORSDOF 4
ENDMDL
MODEL 9
REMARK VINA RESULT:      -0.7     17.264     19.329
REMARK  Name = 45784233
REMARK  5 active torsions:
REMARK  status: ('A' for Active; 'I' for Inactive)
REMARK    1  A    between atoms: O_2  and  C_15
REMARK    2  A    between atoms: O_2  and  C_24
REMARK    3  A    between atoms: N_3  and  C_11
REMARK    4  A    between atoms: C_6  and  C_10
REMARK    5  A    between atoms: C_11  and  C_12
REMARK                            x       y       z     vdW  Elec       q    Type
REMARK                         _______ _______ _______ _____ _____    ______ ____
ROOT
ATOM      3  N   UNL     1       0.629  -0.774  23.801  0.00  0.00    -0.297 NA
ATOM      6  C   UNL     1      -1.209  -0.261  25.163  0.00  0.00    +0.070 C 
ATOM      7  C   UNL     1      -1.381  -1.673  24.577  0.00  0.00    +0.028 C 
ATOM      8  C   UNL     1      -0.111   0.385  24.308  0.00  0.00    +0.096 C 
ATOM      9  C   UNL     1      -0.400  -1.738  23.414  0.00  0.00    +0.085 C 
ENDROOT
BRANCH   6  10
ATOM      1  F   UNL     1      -6.228   4.976  25.563  0.00  0.00    -0.205 F 
ATOM      4  N   UNL     1      -2.432   1.924  25.349  0.00  0.00    -0.341 N 
ATOM      5  N   UNL     1      -3.709   0.117  25.144  0.00  0.00    -0.232 NA
ATOM     10  C   UNL     1      -2.475   0.564  25.215  0.00  0.00    +0.113 A 
ATOM     13  C   UNL     1      -3.723   2.386  25.366  0.00  0.00    +0.069 A 
ATOM     14  C   UNL     1      -4.501   1.238  25.236  0.00  0.00    +0.089 A 
ATOM     17  C   UNL     1      -4.261   3.668  25.478  0.00  0.00    +0.066 A 
ATOM     18  C   UNL     1      -5.901   1.359  25.216  0.00  0.00    +0.032 A 
ATOM     21  C   UNL     1      -5.656   3.769  25.457  0.00  0.00    +0.125 A 
ATOM     22  C   UNL     1      -6.463   2.637  25.329  0.00  0.00    +0.040 A 
ATOM     25  H   UNL     1      -1.597   2.493  25.423  0.00  0.00    +0.167 HD
ENDBRANCH   6  10
BRANCH   3  11
ATOM     11  C   UNL     1       1.510  -0.429  22.694  0.00  0.00    +0.123 C 
BRANCH  11  12
ATOM     12  C   UNL     1       2.955  -0.403  23.116  0.00  0.00    +0.008 A 
ATOM     15  C   UNL     1       3.685   0.785  23.087  0.00  0.00    +0.124 A 
ATOM     16  C   UNL     1       3.563  -1.585  23.540  0.00  0.00    +0.008 A 
ATOM     19  C   UNL     1       5.023   0.791  23.481  0.00  0.00    +0.046 A 
ATOM     20  C   UNL     1       4.901  -1.579  23.933  0.00  0.00    +0.001 A 
ATOM     23  C   UNL     1       5.631  -0.391  23.904  0.00  0.00    +0.004 A 
BRANCH  15   2
ATOM      2  O   UNL     1       3.107   1.949  22.676  0.00  0.00    -0.495 OA
ATOM     24  C   UNL     1       1.942   2.377  23.379  0.00  0.00    +0.277 C 
ENDBRANCH  15   2
ENDBRANCH  11  12
ENDBRANCH   3  11
TORSDOF 4
ENDMDL
MODEL 10
REMARK VINA RESULT:      -0.7     16.642     18.095
REMARK  Name = 45784233
REMARK  5 active torsions:
REMARK  status: ('A' for Active; 'I' for Inactive)
REMARK    1  A    between atoms: O_2  and  C_15
REMARK    2  A    between atoms: O_2  and  C_24
REMARK    3  A    between atoms: N_3  and  C_11
REMARK    4  A    between atoms: C_6  and  C_10
REMARK    5  A    between atoms: C_11  and  C_12
REMARK                            x       y       z     vdW  Elec       q    Type
REMARK                         _______ _______ _______ _____ _____    ______ ____
ROOT
ATOM      3  N   UNL     1      -1.603   1.358  24.136  0.00  0.00    -0.297 NA
ATOM      6  C   UNL     1       0.102  -0.077  23.409  0.00  0.00    +0.070 C 
ATOM      7  C   UNL     1      -0.675  -0.742  24.558  0.00  0.00    +0.028 C 
ATOM      8  C   UNL     1      -0.297   1.403  23.474  0.00  0.00    +0.096 C 
ATOM      9  C   UNL     1      -1.442   0.393  25.223  0.00  0.00    +0.085 C 
ENDROOT
BRANCH   6  10
ATOM      1  F   UNL     1       7.337   0.531  23.163  0.00  0.00    -0.205 F 
ATOM      4  N   UNL     1       2.465   0.733  23.161  0.00  0.00    -0.341 N 
ATOM      5  N   UNL     1       2.231  -1.398  23.749  0.00  0.00    -0.232 NA
ATOM     10  C   UNL     1       1.599  -0.284  23.450  0.00  0.00    +0.113 A 
ATOM     13  C   UNL     1       3.741   0.245  23.281  0.00  0.00    +0.069 A 
ATOM     14  C   UNL     1       3.568  -1.087  23.649  0.00  0.00    +0.089 A 
ATOM     17  C   UNL     1       4.993   0.835  23.106  0.00  0.00    +0.066 A 
ATOM     18  C   UNL     1       4.700  -1.892  23.858  0.00  0.00    +0.032 A 
ATOM     21  C   UNL     1       6.109   0.018  23.318  0.00  0.00    +0.125 A 
ATOM     22  C   UNL     1       5.967  -1.322  23.687  0.00  0.00    +0.040 A 
ATOM     25  H   UNL     1       2.214   1.679  22.903  0.00  0.00    +0.167 HD
ENDBRANCH   6  10
BRANCH   3  11
ATOM     11  C   UNL     1      -2.028   2.666  24.614  0.00  0.00    +0.123 C 
BRANCH  11  12
ATOM     12  C   UNL     1      -3.503   2.700  24.916  0.00  0.00    +0.008 A 
ATOM     15  C   UNL     1      -4.338   1.661  24.507  0.00  0.00    +0.124 A 
ATOM     16  C   UNL     1      -4.031   3.786  25.615  0.00  0.00    +0.008 A 
ATOM     19  C   UNL     1      -5.703   1.709  24.794  0.00  0.00    +0.046 A 
ATOM     20  C   UNL     1      -5.396   3.833  25.902  0.00  0.00    +0.001 A 
ATOM     23  C   UNL     1      -6.231   2.795  25.492  0.00  0.00    +0.004 A 
BRANCH  15   2
ATOM      2  O   UNL     1      -3.839   0.592  23.824  0.00  0.00    -0.495 OA
ATOM     24  C   UNL     1      -4.405  -0.684  24.114  0.00  0.00    +0.277 C 
ENDBRANCH  15   2
ENDBRANCH  11  12
ENDBRANCH   3  11
TORSDOF 4
ENDMDL
