MODEL 1
REMARK VINA RESULT:      -3.4      0.000      0.000
REMARK  Name = 56774213
REMARK  10 active torsions:
REMARK  status: ('A' for Active; 'I' for Inactive)
REMARK    1  A    between atoms: N_4  and  C_10
REMARK    2  A    between atoms: N_6  and  C_20
REMARK    3  A    between atoms: N_7  and  C_19
REMARK    4  A    between atoms: C_8  and  C_13
REMARK    5  A    between atoms: C_8  and  C_14
REMARK    6  A    between atoms: C_9  and  C_12
REMARK    7  A    between atoms: C_12  and  C_15
REMARK    8  A    between atoms: C_18  and  C_19
REMARK    9  A    between atoms: C_20  and  C_23
REMARK   10  A    between atoms: C_20  and  C_24
REMARK                            x       y       z     vdW  Elec       q    Type
REMARK                         _______ _______ _______ _____ _____    ______ ____
ROOT
ATOM      8  C   UNL     1      12.168  -6.293  31.943  0.00  0.00    -0.013 C 
ATOM      9  C   UNL     1      13.641  -6.465  32.369  0.00  0.00    +0.004 C 
ATOM     10  C   UNL     1      11.858  -7.546  32.788  0.00  0.00    +0.081 C 
ATOM     11  C   UNL     1      13.327  -7.962  32.571  0.00  0.00    +0.027 C 
ATOM     13  C   UNL     1      11.949  -6.420  30.452  0.00  0.00    +0.013 C 
ATOM     14  C   UNL     1      11.471  -5.048  32.461  0.00  0.00    +0.013 C 
ENDROOT
BRANCH  10   4
ATOM      2  O   UNL     1       8.978  -7.351  32.872  0.00  0.00    -0.253 OA
ATOM      4  N   UNL     1      10.888  -8.483  32.205  0.00  0.00    -0.296 N 
ATOM      6  N   UNL     1       8.812  -9.327  31.664  0.00  0.00    -0.297 N 
ATOM     16  C   UNL     1       9.507  -8.301  32.298  0.00  0.00    +0.300 C 
ATOM     27  H   UNL     1      11.213  -9.310  31.712  0.00  0.00    +0.151 HD
ATOM     28  H   UNL     1       9.341 -10.027  31.153  0.00  0.00    +0.150 HD
BRANCH   6  20
ATOM     20  C   UNL     1       7.370  -9.378  31.616  0.00  0.00    +0.068 C 
ATOM     23  C   UNL     1       6.899  -9.890  30.261  0.00  0.00    +0.027 C 
ATOM     24  C   UNL     1       6.832 -10.240  32.750  0.00  0.00    +0.027 C 
ENDBRANCH   6  20
ENDBRANCH  10   4
BRANCH   9  12
ATOM     12  C   UNL     1      14.716  -6.168  31.314  0.00  0.00    +0.063 C 
BRANCH  12  15
ATOM      1  O   UNL     1      16.931  -8.950  30.988  0.00  0.00    -0.358 OA
ATOM      5  N   UNL     1      16.515  -7.777  31.606  0.00  0.00    -0.083 NA
ATOM     15  C   UNL     1      15.430  -7.395  30.925  0.00  0.00    +0.084 A 
ATOM     17  C   UNL     1      15.118  -8.279  29.878  0.00  0.00    +0.072 A 
ATOM     18  C   UNL     1      16.091  -9.239  29.961  0.00  0.00    +0.151 A 
BRANCH  18  19
ATOM     19  C   UNL     1      16.395 -10.487  29.175  0.00  0.00    +0.161 C 
BRANCH  19   7
ATOM      3  O   UNL     1      15.972  -8.661  25.420  0.00  0.00    -0.377 OA
ATOM      7  N   UNL     1      16.512 -10.213  27.744  0.00  0.00    -0.291 NA
ATOM     21  C   UNL     1      17.172  -8.919  27.513  0.00  0.00    +0.113 C 
ATOM     22  C   UNL     1      15.191 -10.226  27.101  0.00  0.00    +0.113 C 
ATOM     25  C   UNL     1      17.270  -8.649  26.015  0.00  0.00    +0.175 C 
ATOM     26  C   UNL     1      15.338  -9.925  25.612  0.00  0.00    +0.175 C 
ENDBRANCH  19   7
ENDBRANCH  18  19
ENDBRANCH  12  15
ENDBRANCH   9  12
TORSDOF 6
ENDMDL
MODEL 2
REMARK VINA RESULT:      -1.6     16.200     19.943
REMARK  Name = 56774213
REMARK  10 active torsions:
REMARK  status: ('A' for Active; 'I' for Inactive)
REMARK    1  A    between atoms: N_4  and  C_10
REMARK    2  A    between atoms: N_6  and  C_20
REMARK    3  A    between atoms: N_7  and  C_19
REMARK    4  A    between atoms: C_8  and  C_13
REMARK    5  A    between atoms: C_8  and  C_14
REMARK    6  A    between atoms: C_9  and  C_12
REMARK    7  A    between atoms: C_12  and  C_15
REMARK    8  A    between atoms: C_18  and  C_19
REMARK    9  A    between atoms: C_20  and  C_23
REMARK   10  A    between atoms: C_20  and  C_24
REMARK                            x       y       z     vdW  Elec       q    Type
REMARK                         _______ _______ _______ _____ _____    ______ ____
ROOT
ATOM      8  C   UNL     1      -3.541  -0.800  24.220  0.00  0.00    -0.013 C 
ATOM      9  C   UNL     1      -4.486  -0.514  25.405  0.00  0.00    +0.004 C 
ATOM     10  C   UNL     1      -2.404  -0.926  25.255  0.00  0.00    +0.081 C 
ATOM     11  C   UNL     1      -3.244  -0.016  26.175  0.00  0.00    +0.027 C 
ATOM     13  C   UNL     1      -3.431   0.350  23.243  0.00  0.00    +0.013 C 
ATOM     14  C   UNL     1      -3.796  -2.092  23.466  0.00  0.00    +0.013 C 
ENDROOT
BRANCH  10   4
ATOM      2  O   UNL     1      -0.559  -1.937  23.277  0.00  0.00    -0.253 OA
ATOM      4  N   UNL     1      -1.116  -0.339  24.862  0.00  0.00    -0.296 N 
ATOM      6  N   UNL     1       0.868  -0.156  23.704  0.00  0.00    -0.297 N 
ATOM     16  C   UNL     1      -0.290  -0.904  23.889  0.00  0.00    +0.300 C 
ATOM     27  H   UNL     1      -0.788   0.513  25.308  0.00  0.00    +0.151 HD
ATOM     28  H   UNL     1       0.962   0.723  24.203  0.00  0.00    +0.150 HD
BRANCH   6  20
ATOM     20  C   UNL     1       1.891  -0.525  22.753  0.00  0.00    +0.068 C 
ATOM     23  C   UNL     1       1.337  -0.498  21.335  0.00  0.00    +0.027 C 
ATOM     24  C   UNL     1       3.098   0.394  22.892  0.00  0.00    +0.027 C 
ENDBRANCH   6  20
ENDBRANCH  10   4
BRANCH   9  12
ATOM     12  C   UNL     1      -5.579   0.542  25.194  0.00  0.00    +0.063 C 
BRANCH  12  15
ATOM      1  O   UNL     1      -5.038   3.969  26.038  0.00  0.00    -0.358 OA
ATOM      5  N   UNL     1      -5.829   2.827  25.983  0.00  0.00    -0.083 NA
ATOM     15  C   UNL     1      -5.055   1.900  25.412  0.00  0.00    +0.084 A 
ATOM     17  C   UNL     1      -3.779   2.393  25.088  0.00  0.00    +0.072 A 
ATOM     18  C   UNL     1      -3.820   3.698  25.502  0.00  0.00    +0.151 A 
BRANCH  18  19
ATOM     19  C   UNL     1      -2.829   4.831  25.479  0.00  0.00    +0.161 C 
BRANCH  19   7
ATOM      3  O   UNL     1       0.491   2.315  24.971  0.00  0.00    -0.377 OA
ATOM      7  N   UNL     1      -1.451   4.347  25.418  0.00  0.00    -0.291 NA
ATOM     21  C   UNL     1      -1.121   3.885  24.062  0.00  0.00    +0.113 C 
ATOM     22  C   UNL     1      -1.238   3.262  26.386  0.00  0.00    +0.113 C 
ATOM     25  C   UNL     1       0.316   3.372  24.026  0.00  0.00    +0.175 C 
ATOM     26  C   UNL     1       0.203   2.765  26.294  0.00  0.00    +0.175 C 
ENDBRANCH  19   7
ENDBRANCH  18  19
ENDBRANCH  12  15
ENDBRANCH   9  12
TORSDOF 6
ENDMDL
MODEL 3
REMARK VINA RESULT:      -1.3     15.617     18.328
REMARK  Name = 56774213
REMARK  10 active torsions:
REMARK  status: ('A' for Active; 'I' for Inactive)
REMARK    1  A    between atoms: N_4  and  C_10
REMARK    2  A    between atoms: N_6  and  C_20
REMARK    3  A    between atoms: N_7  and  C_19
REMARK    4  A    between atoms: C_8  and  C_13
REMARK    5  A    between atoms: C_8  and  C_14
REMARK    6  A    between atoms: C_9  and  C_12
REMARK    7  A    between atoms: C_12  and  C_15
REMARK    8  A    between atoms: C_18  and  C_19
REMARK    9  A    between atoms: C_20  and  C_23
REMARK   10  A    between atoms: C_20  and  C_24
REMARK                            x       y       z     vdW  Elec       q    Type
REMARK                         _______ _______ _______ _____ _____    ______ ____
ROOT
ATOM      8  C   UNL     1      -3.822   3.804  24.688  0.00  0.00    -0.013 C 
ATOM      9  C   UNL     1      -2.649   4.189  25.613  0.00  0.00    +0.004 C 
ATOM     10  C   UNL     1      -4.187   2.724  25.728  0.00  0.00    +0.081 C 
ATOM     11  C   UNL     1      -2.706   2.747  26.158  0.00  0.00    +0.027 C 
ATOM     13  C   UNL     1      -3.383   3.303  23.330  0.00  0.00    +0.013 C 
ATOM     14  C   UNL     1      -4.907   4.853  24.524  0.00  0.00    +0.013 C 
ENDROOT
BRANCH  10   4
ATOM      2  O   UNL     1      -2.548   0.398  25.239  0.00  0.00    -0.253 OA
ATOM      4  N   UNL     1      -4.622   1.433  25.180  0.00  0.00    -0.296 N 
ATOM      6  N   UNL     1      -4.410  -0.743  24.450  0.00  0.00    -0.297 N 
ATOM     16  C   UNL     1      -3.750   0.362  24.979  0.00  0.00    +0.300 C 
ATOM     27  H   UNL     1      -5.595   1.292  24.922  0.00  0.00    +0.151 HD
ATOM     28  H   UNL     1      -5.419  -0.699  24.342  0.00  0.00    +0.150 HD
BRANCH   6  20
ATOM     20  C   UNL     1      -3.736  -1.984  24.148  0.00  0.00    +0.068 C 
ATOM     23  C   UNL     1      -3.248  -2.652  25.427  0.00  0.00    +0.027 C 
ATOM     24  C   UNL     1      -4.654  -2.907  23.358  0.00  0.00    +0.027 C 
ENDBRANCH   6  20
ENDBRANCH  10   4
BRANCH   9  12
ATOM     12  C   UNL     1      -1.322   4.573  24.944  0.00  0.00    +0.063 C 
BRANCH  12  15
ATOM      1  O   UNL     1       0.898   1.789  25.207  0.00  0.00    -0.358 OA
ATOM      5  N   UNL     1       0.223   2.877  25.747  0.00  0.00    -0.083 NA
ATOM     15  C   UNL     1      -0.474   3.389  24.729  0.00  0.00    +0.084 A 
ATOM     17  C   UNL     1      -0.279   2.674  23.534  0.00  0.00    +0.072 A 
ATOM     18  C   UNL     1       0.591   1.678  23.889  0.00  0.00    +0.151 A 
BRANCH  18  19
ATOM     19  C   UNL     1       1.240   0.545  23.141  0.00  0.00    +0.161 C 
BRANCH  19   7
ATOM      3  O   UNL     1       5.320  -0.436  23.076  0.00  0.00    -0.377 OA
ATOM      7  N   UNL     1       2.624   0.337  23.562  0.00  0.00    -0.291 NA
ATOM     21  C   UNL     1       3.538   1.186  22.785  0.00  0.00    +0.113 C 
ATOM     22  C   UNL     1       3.005  -1.075  23.420  0.00  0.00    +0.113 C 
ATOM     25  C   UNL     1       4.977   0.942  23.233  0.00  0.00    +0.175 C 
ATOM     26  C   UNL     1       4.457  -1.265  23.854  0.00  0.00    +0.175 C 
ENDBRANCH  19   7
ENDBRANCH  18  19
ENDBRANCH  12  15
ENDBRANCH   9  12
TORSDOF 6
ENDMDL
MODEL 4
REMARK VINA RESULT:      -0.5     16.073     19.467
REMARK  Name = 56774213
REMARK  10 active torsions:
REMARK  status: ('A' for Active; 'I' for Inactive)
REMARK    1  A    between atoms: N_4  and  C_10
REMARK    2  A    between atoms: N_6  and  C_20
REMARK    3  A    between atoms: N_7  and  C_19
REMARK    4  A    between atoms: C_8  and  C_13
REMARK    5  A    between atoms: C_8  and  C_14
REMARK    6  A    between atoms: C_9  and  C_12
REMARK    7  A    between atoms: C_12  and  C_15
REMARK    8  A    between atoms: C_18  and  C_19
REMARK    9  A    between atoms: C_20  and  C_23
REMARK   10  A    between atoms: C_20  and  C_24
REMARK                            x       y       z     vdW  Elec       q    Type
REMARK                         _______ _______ _______ _____ _____    ______ ____
ROOT
ATOM      8  C   UNL     1      -2.128   4.445  25.164  0.00  0.00    -0.013 C 
ATOM      9  C   UNL     1      -2.403   3.694  23.844  0.00  0.00    +0.004 C 
ATOM     10  C   UNL     1      -0.916   3.510  25.354  0.00  0.00    +0.081 C 
ATOM     11  C   UNL     1      -1.658   2.493  24.463  0.00  0.00    +0.027 C 
ATOM     13  C   UNL     1      -3.241   4.312  26.180  0.00  0.00    +0.013 C 
ATOM     14  C   UNL     1      -1.731   5.903  25.025  0.00  0.00    +0.013 C 
ENDROOT
BRANCH  10   4
ATOM      2  O   UNL     1       1.627   2.944  26.600  0.00  0.00    -0.253 OA
ATOM      4  N   UNL     1      -0.687   3.036  26.725  0.00  0.00    -0.296 N 
ATOM      6  N   UNL     1       0.530   2.348  28.558  0.00  0.00    -0.297 N 
ATOM     16  C   UNL     1       0.587   2.789  27.239  0.00  0.00    +0.300 C 
ATOM     27  H   UNL     1      -1.476   2.865  27.343  0.00  0.00    +0.151 HD
ATOM     28  H   UNL     1      -0.372   2.326  29.023  0.00  0.00    +0.150 HD
BRANCH   6  20
ATOM     20  C   UNL     1       1.711   2.023  29.323  0.00  0.00    +0.068 C 
ATOM     23  C   UNL     1       2.842   2.989  28.997  0.00  0.00    +0.027 C 
ATOM     24  C   UNL     1       1.394   2.026  30.813  0.00  0.00    +0.027 C 
ENDBRANCH   6  20
ENDBRANCH  10   4
BRANCH   9  12
ATOM     12  C   UNL     1      -3.870   3.424  23.482  0.00  0.00    +0.063 C 
BRANCH  12  15
ATOM      1  O   UNL     1      -5.527   0.559  24.824  0.00  0.00    -0.358 OA
ATOM      5  N   UNL     1      -5.445   1.922  24.565  0.00  0.00    -0.083 NA
ATOM     15  C   UNL     1      -4.287   2.082  23.919  0.00  0.00    +0.084 A 
ATOM     17  C   UNL     1      -3.600   0.867  23.744  0.00  0.00    +0.072 A 
ATOM     18  C   UNL     1      -4.423  -0.058  24.331  0.00  0.00    +0.151 A 
BRANCH  18  19
ATOM     19  C   UNL     1      -4.343  -1.549  24.524  0.00  0.00    +0.161 C 
BRANCH  19   7
ATOM      3  O   UNL     1      -0.263  -1.707  25.493  0.00  0.00    -0.377 OA
ATOM      7  N   UNL     1      -3.075  -1.952  25.130  0.00  0.00    -0.291 NA
ATOM     21  C   UNL     1      -2.495  -0.848  25.906  0.00  0.00    +0.113 C 
ATOM     22  C   UNL     1      -2.126  -2.399  24.101  0.00  0.00    +0.113 C 
ATOM     25  C   UNL     1      -1.166  -1.287  26.516  0.00  0.00    +0.175 C 
ATOM     26  C   UNL     1      -0.807  -2.802  24.755  0.00  0.00    +0.175 C 
ENDBRANCH  19   7
ENDBRANCH  18  19
ENDBRANCH  12  15
ENDBRANCH   9  12
TORSDOF 6
ENDMDL
MODEL 5
REMARK VINA RESULT:      -0.5     16.097     19.896
REMARK  Name = 56774213
REMARK  10 active torsions:
REMARK  status: ('A' for Active; 'I' for Inactive)
REMARK    1  A    between atoms: N_4  and  C_10
REMARK    2  A    between atoms: N_6  and  C_20
REMARK    3  A    between atoms: N_7  and  C_19
REMARK    4  A    between atoms: C_8  and  C_13
REMARK    5  A    between atoms: C_8  and  C_14
REMARK    6  A    between atoms: C_9  and  C_12
REMARK    7  A    between atoms: C_12  and  C_15
REMARK    8  A    between atoms: C_18  and  C_19
REMARK    9  A    between atoms: C_20  and  C_23
REMARK   10  A    between atoms: C_20  and  C_24
REMARK                            x       y       z     vdW  Elec       q    Type
REMARK                         _______ _______ _______ _____ _____    ______ ____
ROOT
ATOM      8  C   UNL     1      -2.277   4.501  25.168  0.00  0.00    -0.013 C 
ATOM      9  C   UNL     1      -3.587   4.170  24.424  0.00  0.00    +0.004 C 
ATOM     10  C   UNL     1      -1.528   3.951  23.936  0.00  0.00    +0.081 C 
ATOM     11  C   UNL     1      -2.786   3.107  23.644  0.00  0.00    +0.027 C 
ATOM     13  C   UNL     1      -2.101   3.728  26.456  0.00  0.00    +0.013 C 
ATOM     14  C   UNL     1      -2.007   5.974  25.411  0.00  0.00    +0.013 C 
ENDROOT
BRANCH  10   4
ATOM      2  O   UNL     1      -0.730   1.492  22.648  0.00  0.00    -0.253 OA
ATOM      4  N   UNL     1      -0.333   3.147  24.223  0.00  0.00    -0.296 N 
ATOM      6  N   UNL     1       1.153   1.399  24.003  0.00  0.00    -0.297 N 
ATOM     16  C   UNL     1      -0.031   1.967  23.542  0.00  0.00    +0.300 C 
ATOM     27  H   UNL     1       0.314   3.440  24.950  0.00  0.00    +0.151 HD
ATOM     28  H   UNL     1       1.698   1.907  24.692  0.00  0.00    +0.150 HD
BRANCH   6  20
ATOM     20  C   UNL     1       1.690   0.171  23.465  0.00  0.00    +0.068 C 
ATOM     23  C   UNL     1       0.708  -0.457  22.484  0.00  0.00    +0.027 C 
ATOM     24  C   UNL     1       3.040   0.428  22.807  0.00  0.00    +0.027 C 
ENDBRANCH   6  20
ENDBRANCH  10   4
BRANCH   9  12
ATOM     12  C   UNL     1      -4.750   3.617  25.259  0.00  0.00    +0.063 C 
BRANCH  12  15
ATOM      1  O   UNL     1      -5.998   0.320  24.692  0.00  0.00    -0.358 OA
ATOM      5  N   UNL     1      -6.177   1.678  24.923  0.00  0.00    -0.083 NA
ATOM     15  C   UNL     1      -4.942   2.178  25.015  0.00  0.00    +0.084 A 
ATOM     17  C   UNL     1      -3.953   1.193  24.852  0.00  0.00    +0.072 A 
ATOM     18  C   UNL     1      -4.669   0.043  24.652  0.00  0.00    +0.151 A 
BRANCH  18  19
ATOM     19  C   UNL     1      -4.289  -1.394  24.409  0.00  0.00    +0.161 C 
BRANCH  19   7
ATOM      3  O   UNL     1      -0.223  -1.688  25.403  0.00  0.00    -0.377 OA
ATOM      7  N   UNL     1      -3.052  -1.753  25.099  0.00  0.00    -0.291 NA
ATOM     21  C   UNL     1      -2.359  -0.552  25.585  0.00  0.00    +0.113 C 
ATOM     22  C   UNL     1      -2.166  -2.522  24.214  0.00  0.00    +0.113 C 
ATOM     25  C   UNL     1      -1.065  -0.950  26.289  0.00  0.00    +0.175 C 
ATOM     26  C   UNL     1      -0.877  -2.874  24.952  0.00  0.00    +0.175 C 
ENDBRANCH  19   7
ENDBRANCH  18  19
ENDBRANCH  12  15
ENDBRANCH   9  12
TORSDOF 6
ENDMDL
MODEL 6
REMARK VINA RESULT:       0.1     15.925     20.146
REMARK  Name = 56774213
REMARK  10 active torsions:
REMARK  status: ('A' for Active; 'I' for Inactive)
REMARK    1  A    between atoms: N_4  and  C_10
REMARK    2  A    between atoms: N_6  and  C_20
REMARK    3  A    between atoms: N_7  and  C_19
REMARK    4  A    between atoms: C_8  and  C_13
REMARK    5  A    between atoms: C_8  and  C_14
REMARK    6  A    between atoms: C_9  and  C_12
REMARK    7  A    between atoms: C_12  and  C_15
REMARK    8  A    between atoms: C_18  and  C_19
REMARK    9  A    between atoms: C_20  and  C_23
REMARK   10  A    between atoms: C_20  and  C_24
REMARK                            x       y       z     vdW  Elec       q    Type
REMARK                         _______ _______ _______ _____ _____    ______ ____
ROOT
ATOM      8  C   UNL     1      -1.493  -0.126  23.821  0.00  0.00    -0.013 C 
ATOM      9  C   UNL     1      -2.441  -1.327  24.021  0.00  0.00    +0.004 C 
ATOM     10  C   UNL     1      -0.437  -1.139  23.330  0.00  0.00    +0.081 C 
ATOM     11  C   UNL     1      -1.178  -2.201  24.169  0.00  0.00    +0.027 C 
ATOM     13  C   UNL     1      -1.168   0.608  25.103  0.00  0.00    +0.013 C 
ATOM     14  C   UNL     1      -1.899   0.866  22.747  0.00  0.00    +0.013 C 
ENDROOT
BRANCH  10   4
ATOM      2  O   UNL     1       1.785  -0.252  21.714  0.00  0.00    -0.253 OA
ATOM      4  N   UNL     1       0.939  -0.891  23.776  0.00  0.00    -0.296 N 
ATOM      6  N   UNL     1       3.159  -0.301  23.584  0.00  0.00    -0.297 N 
ATOM     16  C   UNL     1       1.950  -0.461  22.915  0.00  0.00    +0.300 C 
ATOM     27  H   UNL     1       1.193  -1.039  24.749  0.00  0.00    +0.151 HD
ATOM     28  H   UNL     1       3.175  -0.425  24.592  0.00  0.00    +0.150 HD
BRANCH   6  20
ATOM     20  C   UNL     1       4.366   0.136  22.921  0.00  0.00    +0.068 C 
ATOM     23  C   UNL     1       4.255   1.603  22.523  0.00  0.00    +0.027 C 
ATOM     24  C   UNL     1       5.577  -0.104  23.813  0.00  0.00    +0.027 C 
ENDBRANCH   6  20
ENDBRANCH  10   4
BRANCH   9  12
ATOM     12  C   UNL     1      -3.356  -1.303  25.252  0.00  0.00    +0.063 C 
BRANCH  12  15
ATOM      1  O   UNL     1      -6.043   1.005  24.800  0.00  0.00    -0.358 OA
ATOM      5  N   UNL     1      -5.466  -0.251  24.659  0.00  0.00    -0.083 NA
ATOM     15  C   UNL     1      -4.259  -0.140  25.220  0.00  0.00    +0.084 A 
ATOM     17  C   UNL     1      -4.021   1.149  25.726  0.00  0.00    +0.072 A 
ATOM     18  C   UNL     1      -5.174   1.830  25.436  0.00  0.00    +0.151 A 
BRANCH  18  19
ATOM     19  C   UNL     1      -5.638   3.242  25.674  0.00  0.00    +0.161 C 
BRANCH  19   7
ATOM      3  O   UNL     1      -1.885   4.916  24.822  0.00  0.00    -0.377 OA
ATOM      7  N   UNL     1      -4.583   4.216  25.400  0.00  0.00    -0.291 NA
ATOM     21  C   UNL     1      -3.999   3.990  24.071  0.00  0.00    +0.113 C 
ATOM     22  C   UNL     1      -3.535   4.151  26.428  0.00  0.00    +0.113 C 
ATOM     25  C   UNL     1      -2.891   5.008  23.812  0.00  0.00    +0.175 C 
ATOM     26  C   UNL     1      -2.439   5.166  26.114  0.00  0.00    +0.175 C 
ENDBRANCH  19   7
ENDBRANCH  18  19
ENDBRANCH  12  15
ENDBRANCH   9  12
TORSDOF 6
ENDMDL
MODEL 7
REMARK VINA RESULT:       0.2     16.870     19.740
REMARK  Name = 56774213
REMARK  10 active torsions:
REMARK  status: ('A' for Active; 'I' for Inactive)
REMARK    1  A    between atoms: N_4  and  C_10
REMARK    2  A    between atoms: N_6  and  C_20
REMARK    3  A    between atoms: N_7  and  C_19
REMARK    4  A    between atoms: C_8  and  C_13
REMARK    5  A    between atoms: C_8  and  C_14
REMARK    6  A    between atoms: C_9  and  C_12
REMARK    7  A    between atoms: C_12  and  C_15
REMARK    8  A    between atoms: C_18  and  C_19
REMARK    9  A    between atoms: C_20  and  C_23
REMARK   10  A    between atoms: C_20  and  C_24
REMARK                            x       y       z     vdW  Elec       q    Type
REMARK                         _______ _______ _______ _____ _____    ______ ____
ROOT
ATOM      8  C   UNL     1      -3.245  -2.211  25.012  0.00  0.00    -0.013 C 
ATOM      9  C   UNL     1      -2.109  -2.297  23.971  0.00  0.00    +0.004 C 
ATOM     10  C   UNL     1      -4.043  -1.411  23.962  0.00  0.00    +0.081 C 
ATOM     11  C   UNL     1      -2.685  -1.008  23.350  0.00  0.00    +0.027 C 
ATOM     13  C   UNL     1      -2.859  -1.465  26.270  0.00  0.00    +0.013 C 
ATOM     14  C   UNL     1      -3.909  -3.526  25.378  0.00  0.00    +0.013 C 
ENDROOT
BRANCH  10   4
ATOM      2  O   UNL     1      -3.244   1.364  24.009  0.00  0.00    -0.253 OA
ATOM      4  N   UNL     1      -4.816  -0.275  24.480  0.00  0.00    -0.296 N 
ATOM      6  N   UNL     1      -5.264   1.924  25.007  0.00  0.00    -0.297 N 
ATOM     16  C   UNL     1      -4.342   1.038  24.458  0.00  0.00    +0.300 C 
ATOM     27  H   UNL     1      -5.737  -0.427  24.882  0.00  0.00    +0.151 HD
ATOM     28  H   UNL     1      -6.175   1.568  25.281  0.00  0.00    +0.150 HD
BRANCH   6  20
ATOM     20  C   UNL     1      -5.019   3.344  25.105  0.00  0.00    +0.068 C 
ATOM     23  C   UNL     1      -4.606   3.909  23.753  0.00  0.00    +0.027 C 
ATOM     24  C   UNL     1      -6.249   4.057  25.650  0.00  0.00    +0.027 C 
ENDBRANCH   6  20
ENDBRANCH  10   4
BRANCH   9  12
ATOM     12  C   UNL     1      -0.670  -2.175  24.490  0.00  0.00    +0.063 C 
BRANCH  12  15
ATOM      1  O   UNL     1       1.060   0.709  23.290  0.00  0.00    -0.358 OA
ATOM      5  N   UNL     1       0.764  -0.648  23.257  0.00  0.00    -0.083 NA
ATOM     15  C   UNL     1      -0.126  -0.831  24.236  0.00  0.00    +0.084 A 
ATOM     17  C   UNL     1      -0.428   0.363  24.914  0.00  0.00    +0.072 A 
ATOM     18  C   UNL     1       0.344   1.301  24.280  0.00  0.00    +0.151 A 
BRANCH  18  19
ATOM     19  C   UNL     1       0.542   2.782  24.461  0.00  0.00    +0.161 C 
BRANCH  19   7
ATOM      3  O   UNL     1      -2.310   5.276  26.266  0.00  0.00    -0.377 OA
ATOM      7  N   UNL     1      -0.716   3.467  24.754  0.00  0.00    -0.291 NA
ATOM     21  C   UNL     1      -0.559   4.923  24.624  0.00  0.00    +0.113 C 
ATOM     22  C   UNL     1      -1.190   3.130  26.103  0.00  0.00    +0.113 C 
ATOM     25  C   UNL     1      -1.879   5.616  24.948  0.00  0.00    +0.175 C 
ATOM     26  C   UNL     1      -2.496   3.866  26.391  0.00  0.00    +0.175 C 
ENDBRANCH  19   7
ENDBRANCH  18  19
ENDBRANCH  12  15
ENDBRANCH   9  12
TORSDOF 6
ENDMDL
MODEL 8
REMARK VINA RESULT:       0.3     17.038     20.344
REMARK  Name = 56774213
REMARK  10 active torsions:
REMARK  status: ('A' for Active; 'I' for Inactive)
REMARK    1  A    between atoms: N_4  and  C_10
REMARK    2  A    between atoms: N_6  and  C_20
REMARK    3  A    between atoms: N_7  and  C_19
REMARK    4  A    between atoms: C_8  and  C_13
REMARK    5  A    between atoms: C_8  and  C_14
REMARK    6  A    between atoms: C_9  and  C_12
REMARK    7  A    between atoms: C_12  and  C_15
REMARK    8  A    between atoms: C_18  and  C_19
REMARK    9  A    between atoms: C_20  and  C_23
REMARK   10  A    between atoms: C_20  and  C_24
REMARK                            x       y       z     vdW  Elec       q    Type
REMARK                         _______ _______ _______ _____ _____    ______ ____
ROOT
ATOM      8  C   UNL     1      -0.450  -0.476  24.324  0.00  0.00    -0.013 C 
ATOM      9  C   UNL     1      -0.793  -1.778  25.079  0.00  0.00    +0.004 C 
ATOM     10  C   UNL     1      -0.248   0.181  25.706  0.00  0.00    +0.081 C 
ATOM     11  C   UNL     1      -1.208  -0.887  26.269  0.00  0.00    +0.027 C 
ATOM     13  C   UNL     1      -1.592   0.059  23.490  0.00  0.00    +0.013 C 
ATOM     14  C   UNL     1       0.822  -0.507  23.496  0.00  0.00    +0.013 C 
ENDROOT
BRANCH  10   4
ATOM      2  O   UNL     1       0.732   2.535  24.350  0.00  0.00    -0.253 OA
ATOM      4  N   UNL     1      -0.753   1.554  25.837  0.00  0.00    -0.296 N 
ATOM      6  N   UNL     1      -0.866   3.822  25.437  0.00  0.00    -0.297 N 
ATOM     16  C   UNL     1      -0.210   2.632  25.135  0.00  0.00    +0.300 C 
ATOM     27  H   UNL     1      -1.526   1.754  26.465  0.00  0.00    +0.151 HD
ATOM     28  H   UNL     1      -1.682   3.785  26.040  0.00  0.00    +0.150 HD
BRANCH   6  20
ATOM     20  C   UNL     1      -0.498   5.087  24.845  0.00  0.00    +0.068 C 
ATOM     23  C   UNL     1      -0.168   4.910  23.368  0.00  0.00    +0.027 C 
ATOM     24  C   UNL     1      -1.612   6.107  25.043  0.00  0.00    +0.027 C 
ENDBRANCH   6  20
ENDBRANCH  10   4
BRANCH   9  12
ATOM     12  C   UNL     1      -1.917  -2.649  24.503  0.00  0.00    +0.063 C 
BRANCH  12  15
ATOM      1  O   UNL     1      -5.184  -1.376  23.825  0.00  0.00    -0.358 OA
ATOM      5  N   UNL     1      -4.128  -2.246  23.578  0.00  0.00    -0.083 NA
ATOM     15  C   UNL     1      -3.194  -1.917  24.474  0.00  0.00    +0.084 A 
ATOM     17  C   UNL     1      -3.598  -0.857  25.305  0.00  0.00    +0.072 A 
ATOM     18  C   UNL     1      -4.856  -0.554  24.855  0.00  0.00    +0.151 A 
BRANCH  18  19
ATOM     19  C   UNL     1      -5.892   0.461  25.261  0.00  0.00    +0.161 C 
BRANCH  19   7
ATOM      3  O   UNL     1      -3.878   4.118  24.834  0.00  0.00    -0.377 OA
ATOM      7  N   UNL     1      -5.539   1.806  24.813  0.00  0.00    -0.291 NA
ATOM     21  C   UNL     1      -4.220   1.810  24.164  0.00  0.00    +0.113 C 
ATOM     22  C   UNL     1      -5.549   2.750  25.939  0.00  0.00    +0.113 C 
ATOM     25  C   UNL     1      -3.867   3.226  23.718  0.00  0.00    +0.175 C 
ATOM     26  C   UNL     1      -5.165   4.144  25.450  0.00  0.00    +0.175 C 
ENDBRANCH  19   7
ENDBRANCH  18  19
ENDBRANCH  12  15
ENDBRANCH   9  12
TORSDOF 6
ENDMDL
MODEL 9
REMARK VINA RESULT:       0.5     16.717     19.556
REMARK  Name = 56774213
REMARK  10 active torsions:
REMARK  status: ('A' for Active; 'I' for Inactive)
REMARK    1  A    between atoms: N_4  and  C_10
REMARK    2  A    between atoms: N_6  and  C_20
REMARK    3  A    between atoms: N_7  and  C_19
REMARK    4  A    between atoms: C_8  and  C_13
REMARK    5  A    between atoms: C_8  and  C_14
REMARK    6  A    between atoms: C_9  and  C_12
REMARK    7  A    between atoms: C_12  and  C_15
REMARK    8  A    between atoms: C_18  and  C_19
REMARK    9  A    between atoms: C_20  and  C_23
REMARK   10  A    between atoms: C_20  and  C_24
REMARK                            x       y       z     vdW  Elec       q    Type
REMARK                         _______ _______ _______ _____ _____    ______ ____
ROOT
ATOM      8  C   UNL     1      -1.448   4.783  24.874  0.00  0.00    -0.013 C 
ATOM      9  C   UNL     1      -0.357   3.703  25.026  0.00  0.00    +0.004 C 
ATOM     10  C   UNL     1      -2.006   4.300  26.229  0.00  0.00    +0.081 C 
ATOM     11  C   UNL     1      -1.347   2.938  25.928  0.00  0.00    +0.027 C 
ATOM     13  C   UNL     1      -2.342   4.577  23.672  0.00  0.00    +0.013 C 
ATOM     14  C   UNL     1      -0.966   6.222  24.916  0.00  0.00    +0.013 C 
ENDROOT
BRANCH  10   4
ATOM      2  O   UNL     1      -3.710   2.088  25.492  0.00  0.00    -0.253 OA
ATOM      4  N   UNL     1      -3.470   4.237  26.329  0.00  0.00    -0.296 N 
ATOM      6  N   UNL     1      -5.573   3.313  26.140  0.00  0.00    -0.297 N 
ATOM     16  C   UNL     1      -4.209   3.117  25.946  0.00  0.00    +0.300 C 
ATOM     27  H   UNL     1      -3.990   5.035  26.684  0.00  0.00    +0.151 HD
ATOM     28  H   UNL     1      -5.880   4.169  26.592  0.00  0.00    +0.150 HD
BRANCH   6  20
ATOM     20  C   UNL     1      -6.559   2.306  25.822  0.00  0.00    +0.068 C 
ATOM     23  C   UNL     1      -6.250   1.661  24.477  0.00  0.00    +0.027 C 
ATOM     24  C   UNL     1      -6.628   1.265  26.931  0.00  0.00    +0.027 C 
ENDBRANCH   6  20
ENDBRANCH  10   4
BRANCH   9  12
ATOM     12  C   UNL     1       0.071   2.953  23.756  0.00  0.00    +0.063 C 
BRANCH  12  15
ATOM      1  O   UNL     1       0.558  -0.582  23.639  0.00  0.00    -0.358 OA
ATOM      5  N   UNL     1       0.765   0.703  23.153  0.00  0.00    -0.083 NA
ATOM     15  C   UNL     1       0.075   1.498  23.976  0.00  0.00    +0.084 A 
ATOM     17  C   UNL     1      -0.581   0.778  24.990  0.00  0.00    +0.072 A 
ATOM     18  C   UNL     1      -0.245  -0.525  24.733  0.00  0.00    +0.151 A 
BRANCH  18  19
ATOM     19  C   UNL     1      -0.575  -1.837  25.393  0.00  0.00    +0.161 C 
BRANCH  19   7
ATOM      3  O   UNL     1      -4.509  -2.036  23.943  0.00  0.00    -0.377 OA
ATOM      7  N   UNL     1      -1.995  -2.164  25.272  0.00  0.00    -0.291 NA
ATOM     21  C   UNL     1      -2.252  -2.922  24.040  0.00  0.00    +0.113 C 
ATOM     22  C   UNL     1      -2.814  -0.944  25.293  0.00  0.00    +0.113 C 
ATOM     25  C   UNL     1      -3.740  -3.240  23.928  0.00  0.00    +0.175 C 
ATOM     26  C   UNL     1      -4.289  -1.310  25.153  0.00  0.00    +0.175 C 
ENDBRANCH  19   7
ENDBRANCH  18  19
ENDBRANCH  12  15
ENDBRANCH   9  12
TORSDOF 6
ENDMDL
