MODEL 1
REMARK VINA RESULT:       0.3      0.000      0.000
REMARK  Name = 45784389
REMARK  11 active torsions:
REMARK  status: ('A' for Active; 'I' for Inactive)
REMARK    1  A    between atoms: O_1  and  C_11
REMARK    2  A    between atoms: N_5  and  C_15
REMARK    3  A    between atoms: N_6  and  C_25
REMARK    4  A    between atoms: N_7  and  C_26
REMARK    5  A    between atoms: C_8  and  C_18
REMARK    6  A    between atoms: C_10  and  C_20
REMARK    7  A    between atoms: C_14  and  C_19
REMARK    8  A    between atoms: C_19  and  C_21
REMARK    9  A    between atoms: C_19  and  C_22
REMARK   10  A    between atoms: C_23  and  C_24
REMARK   11  A    between atoms: C_25  and  C_26
REMARK                            x       y       z     vdW  Elec       q    Type
REMARK                         _______ _______ _______ _____ _____    ______ ____
ROOT
ATOM      8  C   UNL     1      -3.028  -1.362  24.845  0.00  0.00    -0.027 C 
ATOM      9  C   UNL     1      -2.664  -0.030  24.109  0.00  0.00    +0.028 C 
ATOM     10  C   UNL     1      -1.122   0.258  24.203  0.00  0.00    +0.012 C 
ATOM     11  C   UNL     1      -3.588   1.136  24.563  0.00  0.00    +0.122 C 
ATOM     12  C   UNL     1      -4.529  -1.672  24.637  0.00  0.00    +0.007 C 
ATOM     13  C   UNL     1      -2.217  -2.520  24.219  0.00  0.00    +0.009 C 
ATOM     14  C   UNL     1      -5.090   0.783  24.451  0.00  0.00    +0.029 C 
ATOM     15  C   UNL     1      -0.315  -0.947  23.641  0.00  0.00    +0.076 C 
ATOM     16  C   UNL     1      -5.440  -0.549  25.116  0.00  0.00    +0.007 C 
ATOM     17  C   UNL     1      -0.713  -2.287  24.258  0.00  0.00    +0.023 C 
ATOM     18  C   UNL     1      -2.738  -1.300  26.366  0.00  0.00    +0.011 C 
ATOM     20  C   UNL     1      -0.688   1.541  23.475  0.00  0.00    +0.010 C 
ENDROOT
BRANCH  15   5
ATOM      3  O   UNL     1       1.595  -0.275  21.604  0.00  0.00    -0.270 OA
ATOM      5  N   UNL     1       1.111  -0.767  23.817  0.00  0.00    -0.308 N 
ATOM     23  C   UNL     1       1.952  -0.442  22.767  0.00  0.00    +0.244 C 
ATOM     36  H   UNL     1       1.492  -1.003  24.727  0.00  0.00    +0.149 HD
BRANCH  23  24
ATOM     24  C   UNL     1       3.393  -0.319  23.108  0.00  0.00    +0.037 A 
ATOM     27  C   UNL     1       4.074   0.869  22.841  0.00  0.00    +0.013 A 
ATOM     28  C   UNL     1       4.064  -1.392  23.695  0.00  0.00    +0.013 A 
ATOM     29  C   UNL     1       5.427   0.983  23.162  0.00  0.00    +0.001 A 
ATOM     30  C   UNL     1       5.416  -1.277  24.016  0.00  0.00    +0.001 A 
ATOM     33  C   UNL     1       6.097  -0.089  23.749  0.00  0.00    +0.000 A 
ENDBRANCH  23  24
ENDBRANCH  15   5
BRANCH  11   1
ATOM      1  O   UNL     1      -3.373   2.271  23.723  0.00  0.00    -0.391 OA
ATOM     37  H   UNL     1      -3.018   2.990  24.272  0.00  0.00    +0.210 HD
ENDBRANCH  11   1
BRANCH  14  19
ATOM     19  C   UNL     1      -5.980   1.891  25.024  0.00  0.00    +0.077 C 
ATOM     21  C   UNL     1      -7.203   2.094  24.137  0.00  0.00    +0.017 C 
BRANCH  19  22
ATOM      2  O   UNL     1      -5.032   3.979  24.246  0.00  0.00    -0.276 OA
ATOM      6  N   UNL     1      -4.643   3.334  26.439  0.00  0.00    -0.314 N 
ATOM     22  C   UNL     1      -5.178   3.180  25.168  0.00  0.00    +0.216 C 
ATOM     38  H   UNL     1      -4.796   2.613  27.138  0.00  0.00    +0.149 HD
BRANCH   6  25
ATOM     25  C   UNL     1      -3.843   4.475  26.817  0.00  0.00    +0.119 C 
BRANCH  25  26
ATOM     26  C   UNL     1      -2.939   4.917  25.675  0.00  0.00    +0.103 C 
BRANCH  26   7
ATOM      4  O   UNL     1       0.784   3.010  26.023  0.00  0.00    -0.377 OA
ATOM      7  N   UNL     1      -1.846   3.964  25.495  0.00  0.00    -0.297 NA
ATOM     31  C   UNL     1      -0.660   4.630  24.937  0.00  0.00    +0.112 C 
ATOM     32  C   UNL     1      -1.505   3.313  26.768  0.00  0.00    +0.112 C 
ATOM     34  C   UNL     1       0.471   3.618  24.770  0.00  0.00    +0.175 C 
ATOM     35  C   UNL     1      -0.354   2.333  26.558  0.00  0.00    +0.175 C 
ENDBRANCH  26   7
ENDBRANCH  25  26
ENDBRANCH   6  25
ENDBRANCH  19  22
ENDBRANCH  14  19
TORSDOF 8
ENDMDL
