MODEL 1
REMARK VINA RESULT:       4.4      0.000      0.000
REMARK  Name = 26761802
REMARK  5 active torsions:
REMARK  status: ('A' for Active; 'I' for Inactive)
REMARK    1  A    between atoms: O_1  and  C_13
REMARK    2  A    between atoms: O_1  and  C_22
REMARK    3  A    between atoms: C_7  and  C_13
REMARK    4  A    between atoms: C_12  and  C_15
REMARK    5  A    between atoms: C_18  and  C_21
REMARK                            x       y       z     vdW  Elec       q    Type
REMARK                         _______ _______ _______ _____ _____    ______ ____
ROOT
ATOM      2  O   UNL     1      -2.782  -1.422  26.170  0.00  0.00    -0.270 OA
ATOM      4  N   UNL     1      -3.400   0.627  25.208  0.00  0.00    -0.278 N 
ATOM      5  N   UNL     1      -3.758   4.247  24.316  0.00  0.00    -0.347 N 
ATOM      6  N   UNL     1      -5.575   4.172  25.612  0.00  0.00    -0.240 NA
ATOM      7  C   UNL     1      -4.830   0.457  25.576  0.00  0.00    +0.191 C 
ATOM      8  C   UNL     1      -5.484   1.712  26.194  0.00  0.00    +0.091 C 
ATOM      9  C   UNL     1      -3.001   1.817  24.402  0.00  0.00    +0.164 C 
ATOM     10  C   UNL     1      -3.876   2.956  24.736  0.00  0.00    +0.056 A 
ATOM     11  C   UNL     1      -5.000   2.935  25.525  0.00  0.00    +0.066 A 
ATOM     12  C   UNL     1      -2.511  -0.418  25.512  0.00  0.00    +0.248 C 
ATOM     14  C   UNL     1      -4.804   4.941  24.870  0.00  0.00    +0.197 A 
ATOM     28  H   UNL     1      -3.040   4.624  23.711  0.00  0.00    +0.167 HD
ENDROOT
BRANCH  12  15
ATOM     15  C   UNL     1      -1.134  -0.328  25.005  0.00  0.00    +0.037 A 
ATOM     16  C   UNL     1      -0.399  -1.491  24.775  0.00  0.00    +0.013 A 
ATOM     17  C   UNL     1      -0.564   0.920  24.754  0.00  0.00    +0.013 A 
ATOM     18  C   UNL     1       1.478  -0.158  24.042  0.00  0.00    -0.018 A 
ATOM     19  C   UNL     1       0.908  -1.405  24.293  0.00  0.00    +0.009 A 
ATOM     20  C   UNL     1       0.743   1.005  24.272  0.00  0.00    +0.009 A 
BRANCH  18  21
ATOM     21  C   UNL     1       2.833  -0.069  23.542  0.00  0.00    -0.018 A 
ATOM     23  C   UNL     1       3.763  -1.056  23.871  0.00  0.00    +0.008 A 
ATOM     24  C   UNL     1       3.210   1.003  22.734  0.00  0.00    +0.008 A 
ATOM     25  C   UNL     1       5.070  -0.971  23.389  0.00  0.00    +0.001 A 
ATOM     26  C   UNL     1       4.517   1.088  22.252  0.00  0.00    +0.001 A 
ATOM     27  C   UNL     1       5.446   0.101  22.581  0.00  0.00    +0.000 A 
ENDBRANCH  18  21
ENDBRANCH  12  15
BRANCH   7  13
ATOM      3  O   UNL     1      -6.689   0.294  24.051  0.00  0.00    -0.249 OA
ATOM     13  C   UNL     1      -5.529   0.014  24.323  0.00  0.00    +0.328 C 
BRANCH  13   1
ATOM      1  O   UNL     1      -4.678  -0.732  23.565  0.00  0.00    -0.467 OA
ATOM     22  C   UNL     1      -4.697  -2.139  23.821  0.00  0.00    +0.280 C 
ENDBRANCH  13   1
ENDBRANCH   7  13
TORSDOF 4
ENDMDL
MODEL 2
REMARK VINA RESULT:       4.8      2.024      3.902
REMARK  Name = 26761802
REMARK  5 active torsions:
REMARK  status: ('A' for Active; 'I' for Inactive)
REMARK    1  A    between atoms: O_1  and  C_13
REMARK    2  A    between atoms: O_1  and  C_22
REMARK    3  A    between atoms: C_7  and  C_13
REMARK    4  A    between atoms: C_12  and  C_15
REMARK    5  A    between atoms: C_18  and  C_21
REMARK                            x       y       z     vdW  Elec       q    Type
REMARK                         _______ _______ _______ _____ _____    ______ ____
ROOT
ATOM      2  O   UNL     1      -1.774   2.482  22.819  0.00  0.00    -0.270 OA
ATOM      4  N   UNL     1      -2.426   0.456  23.807  0.00  0.00    -0.278 N 
ATOM      5  N   UNL     1      -3.129  -3.146  24.556  0.00  0.00    -0.347 N 
ATOM      6  N   UNL     1      -5.207  -2.662  23.895  0.00  0.00    -0.240 NA
ATOM      7  C   UNL     1      -3.848   0.875  23.910  0.00  0.00    +0.191 C 
ATOM      8  C   UNL     1      -4.864  -0.194  23.455  0.00  0.00    +0.091 C 
ATOM      9  C   UNL     1      -2.020  -0.861  24.379  0.00  0.00    +0.164 C 
ATOM     10  C   UNL     1      -3.140  -1.814  24.268  0.00  0.00    +0.056 A 
ATOM     11  C   UNL     1      -4.425  -1.541  23.869  0.00  0.00    +0.066 A 
ATOM     12  C   UNL     1      -1.499   1.384  23.302  0.00  0.00    +0.248 C 
ATOM     14  C   UNL     1      -4.397  -3.613  24.315  0.00  0.00    +0.197 A 
ATOM     28  H   UNL     1      -2.342  -3.689  24.886  0.00  0.00    +0.167 HD
ENDROOT
BRANCH  12  15
ATOM     15  C   UNL     1      -0.072   1.036  23.351  0.00  0.00    +0.037 A 
ATOM     16  C   UNL     1       0.372  -0.163  22.792  0.00  0.00    +0.013 A 
ATOM     17  C   UNL     1       0.837   1.903  23.957  0.00  0.00    +0.013 A 
ATOM     18  C   UNL     1       2.636   0.374  23.444  0.00  0.00    -0.018 A 
ATOM     19  C   UNL     1       1.727  -0.493  22.837  0.00  0.00    +0.009 A 
ATOM     20  C   UNL     1       2.192   1.571  24.003  0.00  0.00    +0.009 A 
BRANCH  18  21
ATOM     21  C   UNL     1       4.041   0.030  23.492  0.00  0.00    -0.018 A 
ATOM     23  C   UNL     1       5.008   1.017  23.299  0.00  0.00    +0.008 A 
ATOM     24  C   UNL     1       4.429  -1.289  23.729  0.00  0.00    +0.008 A 
ATOM     25  C   UNL     1       6.362   0.686  23.345  0.00  0.00    +0.001 A 
ATOM     26  C   UNL     1       5.784  -1.620  23.776  0.00  0.00    +0.001 A 
ATOM     27  C   UNL     1       6.749  -0.632  23.583  0.00  0.00    +0.000 A 
ENDBRANCH  18  21
ENDBRANCH  12  15
BRANCH   7  13
ATOM      3  O   UNL     1      -4.749   0.656  26.136  0.00  0.00    -0.249 OA
ATOM     13  C   UNL     1      -4.056   1.279  25.342  0.00  0.00    +0.328 C 
BRANCH  13   1
ATOM      1  O   UNL     1      -3.363   2.424  25.598  0.00  0.00    -0.467 OA
ATOM     22  C   UNL     1      -4.054   3.641  25.301  0.00  0.00    +0.280 C 
ENDBRANCH  13   1
ENDBRANCH   7  13
TORSDOF 4
ENDMDL
MODEL 3
REMARK VINA RESULT:       7.0      1.520      2.273
REMARK  Name = 26761802
REMARK  5 active torsions:
REMARK  status: ('A' for Active; 'I' for Inactive)
REMARK    1  A    between atoms: O_1  and  C_13
REMARK    2  A    between atoms: O_1  and  C_22
REMARK    3  A    between atoms: C_7  and  C_13
REMARK    4  A    between atoms: C_12  and  C_15
REMARK    5  A    between atoms: C_18  and  C_21
REMARK                            x       y       z     vdW  Elec       q    Type
REMARK                         _______ _______ _______ _____ _____    ______ ____
ROOT
ATOM      2  O   UNL     1      -2.760  -0.592  25.119  0.00  0.00    -0.270 OA
ATOM      4  N   UNL     1      -2.620   1.742  24.929  0.00  0.00    -0.278 N 
ATOM      5  N   UNL     1      -1.808   5.370  25.385  0.00  0.00    -0.347 N 
ATOM      6  N   UNL     1      -3.760   5.457  26.467  0.00  0.00    -0.240 NA
ATOM      7  C   UNL     1      -4.081   1.925  25.134  0.00  0.00    +0.191 C 
ATOM      8  C   UNL     1      -4.452   3.047  26.127  0.00  0.00    +0.091 C 
ATOM      9  C   UNL     1      -1.780   2.939  24.630  0.00  0.00    +0.164 C 
ATOM     10  C   UNL     1      -2.348   4.121  25.305  0.00  0.00    +0.056 A 
ATOM     11  C   UNL     1      -3.545   4.202  25.971  0.00  0.00    +0.066 A 
ATOM     12  C   UNL     1      -2.118   0.430  24.883  0.00  0.00    +0.248 C 
ATOM     14  C   UNL     1      -2.696   6.139  26.095  0.00  0.00    +0.197 A 
ATOM     28  H   UNL     1      -0.926   5.676  24.997  0.00  0.00    +0.167 HD
ENDROOT
BRANCH  12  15
ATOM     15  C   UNL     1      -0.707   0.240  24.517  0.00  0.00    +0.037 A 
ATOM     16  C   UNL     1       0.079   1.341  24.174  0.00  0.00    +0.013 A 
ATOM     17  C   UNL     1      -0.154  -1.040  24.513  0.00  0.00    +0.013 A 
ATOM     18  C   UNL     1       1.971  -0.120  23.824  0.00  0.00    -0.018 A 
ATOM     19  C   UNL     1       1.418   1.161  23.828  0.00  0.00    +0.009 A 
ATOM     20  C   UNL     1       1.186  -1.220  24.166  0.00  0.00    +0.009 A 
BRANCH  18  21
ATOM     21  C   UNL     1       3.360  -0.306  23.463  0.00  0.00    -0.018 A 
ATOM     23  C   UNL     1       4.011   0.646  22.679  0.00  0.00    +0.008 A 
ATOM     24  C   UNL     1       4.047  -1.439  23.900  0.00  0.00    +0.008 A 
ATOM     25  C   UNL     1       5.350   0.466  22.332  0.00  0.00    +0.001 A 
ATOM     26  C   UNL     1       5.387  -1.619  23.552  0.00  0.00    +0.001 A 
ATOM     27  C   UNL     1       6.037  -0.666  22.768  0.00  0.00    +0.000 A 
ENDBRANCH  18  21
ENDBRANCH  12  15
BRANCH   7  13
ATOM      3  O   UNL     1      -3.994   2.374  22.767  0.00  0.00    -0.249 OA
ATOM     13  C   UNL     1      -4.663   2.161  23.770  0.00  0.00    +0.328 C 
BRANCH  13   1
ATOM      1  O   UNL     1      -6.023   2.101  23.837  0.00  0.00    -0.467 OA
ATOM     22  C   UNL     1      -6.552   1.402  24.967  0.00  0.00    +0.280 C 
ENDBRANCH  13   1
ENDBRANCH   7  13
TORSDOF 4
ENDMDL
MODEL 4
REMARK VINA RESULT:       7.2      2.313      3.675
REMARK  Name = 26761802
REMARK  5 active torsions:
REMARK  status: ('A' for Active; 'I' for Inactive)
REMARK    1  A    between atoms: O_1  and  C_13
REMARK    2  A    between atoms: O_1  and  C_22
REMARK    3  A    between atoms: C_7  and  C_13
REMARK    4  A    between atoms: C_12  and  C_15
REMARK    5  A    between atoms: C_18  and  C_21
REMARK                            x       y       z     vdW  Elec       q    Type
REMARK                         _______ _______ _______ _____ _____    ______ ____
ROOT
ATOM      2  O   UNL     1      -1.661   2.425  21.897  0.00  0.00    -0.270 OA
ATOM      4  N   UNL     1      -2.298   1.418  23.919  0.00  0.00    -0.278 N 
ATOM      5  N   UNL     1      -3.141  -1.000  26.651  0.00  0.00    -0.347 N 
ATOM      6  N   UNL     1      -5.255  -0.658  26.018  0.00  0.00    -0.240 NA
ATOM      7  C   UNL     1      -3.651   2.034  23.889  0.00  0.00    +0.191 C 
ATOM      8  C   UNL     1      -4.803   1.061  24.218  0.00  0.00    +0.091 C 
ATOM      9  C   UNL     1      -1.906   0.599  25.103  0.00  0.00    +0.164 C 
ATOM     10  C   UNL     1      -3.098  -0.071  25.656  0.00  0.00    +0.056 A 
ATOM     11  C   UNL     1      -4.406   0.125  25.288  0.00  0.00    +0.066 A 
ATOM     12  C   UNL     1      -1.396   1.755  22.895  0.00  0.00    +0.248 C 
ATOM     14  C   UNL     1      -4.462  -1.324  26.834  0.00  0.00    +0.197 A 
ATOM     28  H   UNL     1      -2.355  -1.380  27.162  0.00  0.00    +0.167 HD
ENDROOT
BRANCH  12  15
ATOM     15  C   UNL     1      -0.009   1.281  23.009  0.00  0.00    +0.037 A 
ATOM     16  C   UNL     1       0.928   2.033  23.718  0.00  0.00    +0.013 A 
ATOM     17  C   UNL     1       0.369   0.081  22.407  0.00  0.00    +0.013 A 
ATOM     18  C   UNL     1       2.622   0.383  23.225  0.00  0.00    -0.018 A 
ATOM     19  C   UNL     1       2.244   1.583  23.827  0.00  0.00    +0.009 A 
ATOM     20  C   UNL     1       1.686  -0.368  22.515  0.00  0.00    +0.009 A 
BRANCH  18  21
ATOM     21  C   UNL     1       3.988  -0.083  23.337  0.00  0.00    -0.018 A 
ATOM     23  C   UNL     1       4.247  -1.396  23.730  0.00  0.00    +0.008 A 
ATOM     24  C   UNL     1       5.045   0.782  23.054  0.00  0.00    +0.008 A 
ATOM     25  C   UNL     1       5.563  -1.845  23.838  0.00  0.00    +0.001 A 
ATOM     26  C   UNL     1       6.362   0.333  23.162  0.00  0.00    +0.001 A 
ATOM     27  C   UNL     1       6.620  -0.980  23.555  0.00  0.00    +0.000 A 
ENDBRANCH  18  21
ENDBRANCH  12  15
BRANCH   7  13
ATOM      3  O   UNL     1      -4.296   3.287  25.844  0.00  0.00    -0.249 OA
ATOM     13  C   UNL     1      -3.598   3.192  24.844  0.00  0.00    +0.328 C 
BRANCH  13   1
ATOM      1  O   UNL     1      -2.669   4.093  24.417  0.00  0.00    -0.467 OA
ATOM     22  C   UNL     1      -1.769   4.571  25.421  0.00  0.00    +0.280 C 
ENDBRANCH  13   1
ENDBRANCH   7  13
TORSDOF 4
ENDMDL
MODEL 5
REMARK VINA RESULT:       7.4      1.996      2.775
REMARK  Name = 26761802
REMARK  5 active torsions:
REMARK  status: ('A' for Active; 'I' for Inactive)
REMARK    1  A    between atoms: O_1  and  C_13
REMARK    2  A    between atoms: O_1  and  C_22
REMARK    3  A    between atoms: C_7  and  C_13
REMARK    4  A    between atoms: C_12  and  C_15
REMARK    5  A    between atoms: C_18  and  C_21
REMARK                            x       y       z     vdW  Elec       q    Type
REMARK                         _______ _______ _______ _____ _____    ______ ____
ROOT
ATOM      2  O   UNL     1      -2.943   0.040  22.620  0.00  0.00    -0.270 OA
ATOM      4  N   UNL     1      -2.783   1.905  24.035  0.00  0.00    -0.278 N 
ATOM      5  N   UNL     1      -2.267   4.212  26.939  0.00  0.00    -0.347 N 
ATOM      6  N   UNL     1      -4.484   4.073  27.177  0.00  0.00    -0.240 NA
ATOM      7  C   UNL     1      -4.218   2.255  23.863  0.00  0.00    +0.191 C 
ATOM      8  C   UNL     1      -4.954   2.597  25.176  0.00  0.00    +0.091 C 
ATOM      9  C   UNL     1      -1.914   2.806  24.846  0.00  0.00    +0.164 C 
ATOM     10  C   UNL     1      -2.715   3.431  25.916  0.00  0.00    +0.056 A 
ATOM     11  C   UNL     1      -4.076   3.365  26.081  0.00  0.00    +0.066 A 
ATOM     12  C   UNL     1      -2.277   0.816  23.305  0.00  0.00    +0.248 C 
ATOM     14  C   UNL     1      -3.370   4.574  27.671  0.00  0.00    +0.197 A 
ATOM     28  H   UNL     1      -1.310   4.478  27.126  0.00  0.00    +0.167 HD
ENDROOT
BRANCH  12  15
ATOM     15  C   UNL     1      -0.828   0.568  23.343  0.00  0.00    +0.037 A 
ATOM     16  C   UNL     1      -0.339  -0.728  23.180  0.00  0.00    +0.013 A 
ATOM     17  C   UNL     1       0.055   1.628  23.544  0.00  0.00    +0.013 A 
ATOM     18  C   UNL     1       1.920   0.096  23.417  0.00  0.00    -0.018 A 
ATOM     19  C   UNL     1       1.036  -0.964  23.216  0.00  0.00    +0.009 A 
ATOM     20  C   UNL     1       1.430   1.391  23.581  0.00  0.00    +0.009 A 
BRANCH  18  21
ATOM     21  C   UNL     1       3.345  -0.149  23.455  0.00  0.00    -0.018 A 
ATOM     23  C   UNL     1       3.828  -1.401  23.834  0.00  0.00    +0.008 A 
ATOM     24  C   UNL     1       4.237   0.868  23.114  0.00  0.00    +0.008 A 
ATOM     25  C   UNL     1       5.202  -1.637  23.871  0.00  0.00    +0.001 A 
ATOM     26  C   UNL     1       5.612   0.632  23.150  0.00  0.00    +0.001 A 
ATOM     27  C   UNL     1       6.094  -0.620  23.530  0.00  0.00    +0.000 A 
ENDBRANCH  18  21
ENDBRANCH  12  15
BRANCH   7  13
ATOM      3  O   UNL     1      -3.983   3.280  21.694  0.00  0.00    -0.249 OA
ATOM     13  C   UNL     1      -4.250   3.393  22.883  0.00  0.00    +0.328 C 
BRANCH  13   1
ATOM      1  O   UNL     1      -4.616   4.538  23.525  0.00  0.00    -0.467 OA
ATOM     22  C   UNL     1      -3.740   5.654  23.339  0.00  0.00    +0.280 C 
ENDBRANCH  13   1
ENDBRANCH   7  13
TORSDOF 4
ENDMDL
