MODEL 1
REMARK VINA RESULT:      -5.9      0.000      0.000
REMARK  Name = 75536654
REMARK  7 active torsions:
REMARK  status: ('A' for Active; 'I' for Inactive)
REMARK    1  A    between atoms: S_1  and  N_7
REMARK    2  A    between atoms: S_1  and  C_19
REMARK    3  A    between atoms: O_3  and  C_10
REMARK    4  A    between atoms: N_6  and  C_8
REMARK    5  A    between atoms: N_6  and  C_9
REMARK    6  A    between atoms: N_7  and  C_18
REMARK    7  A    between atoms: C_11  and  C_18
REMARK                            x       y       z     vdW  Elec       q    Type
REMARK                         _______ _______ _______ _____ _____    ______ ____
ROOT
ATOM      2  O   UNL     1      -2.644   3.163  23.605  0.00  0.00    -0.371 OA
ATOM      8  C   UNL     1      -4.647   2.079  24.283  0.00  0.00    +0.111 C 
ATOM     10  C   UNL     1      -4.077   2.848  25.461  0.00  0.00    +0.164 C 
ATOM     11  C   UNL     1      -3.178   3.851  24.749  0.00  0.00    +0.164 C 
ATOM     14  C   UNL     1      -3.434   1.983  23.371  0.00  0.00    +0.181 C 
ENDROOT
BRANCH  10   3
ATOM      3  O   UNL     1      -5.077   3.488  26.229  0.00  0.00    -0.388 OA
ATOM     21  H   UNL     1      -5.602   2.805  26.679  0.00  0.00    +0.210 HD
ENDBRANCH  10   3
BRANCH   8   6
ATOM      6  N   UNL     1      -5.188   0.778  24.642  0.00  0.00    -0.306 NA
ATOM     20  H   UNL     1      -5.964   0.539  24.025  0.00  0.00    +0.123 HD
BRANCH   6   9
ATOM      9  C   UNL     1      -4.154  -0.252  24.561  0.00  0.00    +0.054 C 
ATOM     12  C   UNL     1      -3.702  -0.647  25.971  0.00  0.00    +0.019 C 
ATOM     13  C   UNL     1      -4.687  -1.466  23.791  0.00  0.00    +0.019 C 
ATOM     15  C   UNL     1      -2.676  -1.778  25.929  0.00  0.00    +0.002 C 
ATOM     16  C   UNL     1      -3.658  -2.595  23.752  0.00  0.00    +0.002 C 
ATOM     17  C   UNL     1      -3.197  -2.984  25.153  0.00  0.00    +0.000 C 
ENDBRANCH   6   9
ENDBRANCH   8   6
BRANCH  11  18
ATOM     18  C   UNL     1      -2.041   4.360  25.619  0.00  0.00    +0.139 C 
BRANCH  18   7
ATOM      7  N   UNL     1      -0.753   3.879  25.081  0.00  0.00    -0.192 NA
ATOM     22  H   UNL     1      -0.077   4.633  24.906  0.00  0.00    +0.148 HD
BRANCH   7   1
ATOM      1  S   UNL     1      -0.110   2.407  25.657  0.00  0.00    +0.027 S 
ATOM      4  O   UNL     1      -1.187   1.490  25.975  0.00  0.00    -0.158 OA
ATOM      5  O   UNL     1       0.920   2.708  26.633  0.00  0.00    -0.158 OA
ATOM     19  C   UNL     1       0.704   1.811  24.193  0.00  0.00    +0.214 C 
ENDBRANCH   7   1
ENDBRANCH  18   7
ENDBRANCH  11  18
TORSDOF 6
ENDMDL
MODEL 2
REMARK VINA RESULT:      -5.9      2.730      5.248
REMARK  Name = 75536654
REMARK  7 active torsions:
REMARK  status: ('A' for Active; 'I' for Inactive)
REMARK    1  A    between atoms: S_1  and  N_7
REMARK    2  A    between atoms: S_1  and  C_19
REMARK    3  A    between atoms: O_3  and  C_10
REMARK    4  A    between atoms: N_6  and  C_8
REMARK    5  A    between atoms: N_6  and  C_9
REMARK    6  A    between atoms: N_7  and  C_18
REMARK    7  A    between atoms: C_11  and  C_18
REMARK                            x       y       z     vdW  Elec       q    Type
REMARK                         _______ _______ _______ _____ _____    ______ ____
ROOT
ATOM      2  O   UNL     1      -0.135  -0.464  23.369  0.00  0.00    -0.371 OA
ATOM      8  C   UNL     1      -0.286   1.793  24.096  0.00  0.00    +0.111 C 
ATOM     10  C   UNL     1      -0.717   0.879  25.229  0.00  0.00    +0.164 C 
ATOM     11  C   UNL     1      -0.073  -0.435  24.805  0.00  0.00    +0.164 C 
ATOM     14  C   UNL     1      -0.411   0.867  22.897  0.00  0.00    +0.181 C 
ENDROOT
BRANCH  10   3
ATOM      3  O   UNL     1      -0.248   1.314  26.489  0.00  0.00    -0.388 OA
ATOM     21  H   UNL     1       0.713   1.451  26.428  0.00  0.00    +0.210 HD
ENDBRANCH  10   3
BRANCH   8   6
ATOM      6  N   UNL     1      -1.099   2.992  23.973  0.00  0.00    -0.306 NA
ATOM     20  H   UNL     1      -1.300   3.179  22.991  0.00  0.00    +0.123 HD
BRANCH   6   9
ATOM      9  C   UNL     1      -2.349   2.847  24.716  0.00  0.00    +0.054 C 
ATOM     12  C   UNL     1      -2.547   4.053  25.641  0.00  0.00    +0.019 C 
ATOM     13  C   UNL     1      -3.522   2.700  23.741  0.00  0.00    +0.019 C 
ATOM     15  C   UNL     1      -3.883   3.974  26.379  0.00  0.00    +0.002 C 
ATOM     16  C   UNL     1      -4.856   2.623  24.481  0.00  0.00    +0.002 C 
ATOM     17  C   UNL     1      -5.053   3.816  25.412  0.00  0.00    +0.000 C 
ENDBRANCH   6   9
ENDBRANCH   8   6
BRANCH  11  18
ATOM     18  C   UNL     1      -0.773  -1.657  25.374  0.00  0.00    +0.139 C 
BRANCH  18   7
ATOM      7  N   UNL     1      -1.664  -2.238  24.350  0.00  0.00    -0.192 NA
ATOM     22  H   UNL     1      -1.419  -3.204  24.096  0.00  0.00    +0.148 HD
BRANCH   7   1
ATOM      1  S   UNL     1      -3.329  -1.868  24.392  0.00  0.00    +0.027 S 
ATOM      4  O   UNL     1      -4.106  -3.078  24.216  0.00  0.00    -0.158 OA
ATOM      5  O   UNL     1      -3.563  -0.708  23.554  0.00  0.00    -0.158 OA
ATOM     19  C   UNL     1      -3.505  -1.345  26.083  0.00  0.00    +0.214 C 
ENDBRANCH   7   1
ENDBRANCH  18   7
ENDBRANCH  11  18
TORSDOF 6
ENDMDL
MODEL 3
REMARK VINA RESULT:      -5.9      2.176      3.860
REMARK  Name = 75536654
REMARK  7 active torsions:
REMARK  status: ('A' for Active; 'I' for Inactive)
REMARK    1  A    between atoms: S_1  and  N_7
REMARK    2  A    between atoms: S_1  and  C_19
REMARK    3  A    between atoms: O_3  and  C_10
REMARK    4  A    between atoms: N_6  and  C_8
REMARK    5  A    between atoms: N_6  and  C_9
REMARK    6  A    between atoms: N_7  and  C_18
REMARK    7  A    between atoms: C_11  and  C_18
REMARK                            x       y       z     vdW  Elec       q    Type
REMARK                         _______ _______ _______ _____ _____    ______ ____
ROOT
ATOM      2  O   UNL     1      -0.244   3.653  25.989  0.00  0.00    -0.371 OA
ATOM      8  C   UNL     1      -0.409   1.387  25.293  0.00  0.00    +0.111 C 
ATOM     10  C   UNL     1      -1.717   2.095  24.989  0.00  0.00    +0.164 C 
ATOM     11  C   UNL     1      -1.269   3.551  24.985  0.00  0.00    +0.164 C 
ATOM     14  C   UNL     1       0.211   2.328  26.315  0.00  0.00    +0.181 C 
ENDROOT
BRANCH  10   3
ATOM      3  O   UNL     1      -2.269   1.710  23.745  0.00  0.00    -0.388 OA
ATOM     21  H   UNL     1      -2.007   0.791  23.565  0.00  0.00    +0.210 HD
ENDBRANCH  10   3
BRANCH   8   6
ATOM      6  N   UNL     1      -0.582   0.036  25.801  0.00  0.00    -0.306 NA
ATOM     20  H   UNL     1      -0.862   0.063  26.781  0.00  0.00    +0.123 HD
BRANCH   6   9
ATOM      9  C   UNL     1      -1.583  -0.686  25.018  0.00  0.00    +0.054 C 
ATOM     12  C   UNL     1      -1.075  -2.097  24.698  0.00  0.00    +0.019 C 
ATOM     13  C   UNL     1      -2.908  -0.738  25.787  0.00  0.00    +0.019 C 
ATOM     15  C   UNL     1      -2.127  -2.909  23.946  0.00  0.00    +0.002 C 
ATOM     16  C   UNL     1      -3.958  -1.552  25.032  0.00  0.00    +0.002 C 
ATOM     17  C   UNL     1      -3.452  -2.953  24.702  0.00  0.00    +0.000 C 
ENDBRANCH   6   9
ENDBRANCH   8   6
BRANCH  11  18
ATOM     18  C   UNL     1      -2.392   4.525  25.296  0.00  0.00    +0.139 C 
BRANCH  18   7
ATOM      7  N   UNL     1      -3.491   3.812  25.977  0.00  0.00    -0.192 NA
ATOM     22  H   UNL     1      -3.578   4.052  26.973  0.00  0.00    +0.148 HD
BRANCH   7   1
ATOM      1  S   UNL     1      -4.950   3.541  25.136  0.00  0.00    +0.027 S 
ATOM      4  O   UNL     1      -4.683   3.398  23.719  0.00  0.00    -0.158 OA
ATOM      5  O   UNL     1      -5.938   4.489  25.613  0.00  0.00    -0.158 OA
ATOM     19  C   UNL     1      -5.401   1.942  25.772  0.00  0.00    +0.214 C 
ENDBRANCH   7   1
ENDBRANCH  18   7
ENDBRANCH  11  18
TORSDOF 6
ENDMDL
MODEL 4
REMARK VINA RESULT:      -5.0      3.441      5.240
REMARK  Name = 75536654
REMARK  7 active torsions:
REMARK  status: ('A' for Active; 'I' for Inactive)
REMARK    1  A    between atoms: S_1  and  N_7
REMARK    2  A    between atoms: S_1  and  C_19
REMARK    3  A    between atoms: O_3  and  C_10
REMARK    4  A    between atoms: N_6  and  C_8
REMARK    5  A    between atoms: N_6  and  C_9
REMARK    6  A    between atoms: N_7  and  C_18
REMARK    7  A    between atoms: C_11  and  C_18
REMARK                            x       y       z     vdW  Elec       q    Type
REMARK                         _______ _______ _______ _____ _____    ______ ____
ROOT
ATOM      2  O   UNL     1       1.241   1.996  23.906  0.00  0.00    -0.371 OA
ATOM      8  C   UNL     1      -0.970   1.168  24.171  0.00  0.00    +0.111 C 
ATOM     10  C   UNL     1      -0.149   0.149  23.402  0.00  0.00    +0.164 C 
ATOM     11  C   UNL     1       1.266   0.563  23.785  0.00  0.00    +0.164 C 
ATOM     14  C   UNL     1      -0.130   2.423  23.998  0.00  0.00    +0.181 C 
ENDROOT
BRANCH  10   3
ATOM      3  O   UNL     1      -0.432  -1.182  23.788  0.00  0.00    -0.388 OA
ATOM     21  H   UNL     1       0.072  -1.380  24.595  0.00  0.00    +0.210 HD
ENDBRANCH  10   3
BRANCH   8   6
ATOM      6  N   UNL     1      -2.326   1.323  23.669  0.00  0.00    -0.306 NA
ATOM     20  H   UNL     1      -2.666   0.436  23.298  0.00  0.00    +0.123 HD
BRANCH   6   9
ATOM      9  C   UNL     1      -3.218   1.791  24.728  0.00  0.00    +0.054 C 
ATOM     12  C   UNL     1      -3.389   3.312  24.630  0.00  0.00    +0.019 C 
ATOM     13  C   UNL     1      -4.570   1.076  24.627  0.00  0.00    +0.019 C 
ATOM     15  C   UNL     1      -4.377   3.829  25.674  0.00  0.00    +0.002 C 
ATOM     16  C   UNL     1      -5.555   1.595  25.672  0.00  0.00    +0.002 C 
ATOM     17  C   UNL     1      -5.720   3.110  25.584  0.00  0.00    +0.000 C 
ENDBRANCH   6   9
ENDBRANCH   8   6
BRANCH  11  18
ATOM     18  C   UNL     1       2.309   0.152  22.761  0.00  0.00    +0.139 C 
BRANCH  18   7
ATOM      7  N   UNL     1       3.551   0.917  22.985  0.00  0.00    -0.192 NA
ATOM     22  H   UNL     1       3.387   1.860  23.362  0.00  0.00    +0.148 HD
BRANCH   7   1
ATOM      1  S   UNL     1       4.935   0.104  23.564  0.00  0.00    +0.027 S 
ATOM      4  O   UNL     1       5.331   0.656  24.844  0.00  0.00    -0.158 OA
ATOM      5  O   UNL     1       5.889  -0.010  22.478  0.00  0.00    -0.158 OA
ATOM     19  C   UNL     1       4.263  -1.518  23.852  0.00  0.00    +0.214 C 
ENDBRANCH   7   1
ENDBRANCH  18   7
ENDBRANCH  11  18
TORSDOF 6
ENDMDL
MODEL 5
REMARK VINA RESULT:      -5.0      2.565      4.843
REMARK  Name = 75536654
REMARK  7 active torsions:
REMARK  status: ('A' for Active; 'I' for Inactive)
REMARK    1  A    between atoms: S_1  and  N_7
REMARK    2  A    between atoms: S_1  and  C_19
REMARK    3  A    between atoms: O_3  and  C_10
REMARK    4  A    between atoms: N_6  and  C_8
REMARK    5  A    between atoms: N_6  and  C_9
REMARK    6  A    between atoms: N_7  and  C_18
REMARK    7  A    between atoms: C_11  and  C_18
REMARK                            x       y       z     vdW  Elec       q    Type
REMARK                         _______ _______ _______ _____ _____    ______ ____
ROOT
ATOM      2  O   UNL     1      -0.937   1.223  22.841  0.00  0.00    -0.371 OA
ATOM      8  C   UNL     1      -1.028   2.935  24.485  0.00  0.00    +0.111 C 
ATOM     10  C   UNL     1      -0.476   1.670  25.118  0.00  0.00    +0.164 C 
ATOM     11  C   UNL     1      -0.001   0.910  23.886  0.00  0.00    +0.164 C 
ATOM     14  C   UNL     1      -1.694   2.381  23.236  0.00  0.00    +0.181 C 
ENDROOT
BRANCH  10   3
ATOM      3  O   UNL     1       0.582   1.928  26.019  0.00  0.00    -0.388 OA
ATOM     21  H   UNL     1       0.246   1.818  26.925  0.00  0.00    +0.210 HD
ENDBRANCH  10   3
BRANCH   8   6
ATOM      6  N   UNL     1      -1.950   3.661  25.343  0.00  0.00    -0.306 NA
ATOM     20  H   UNL     1      -1.802   4.666  25.247  0.00  0.00    +0.123 HD
BRANCH   6   9
ATOM      9  C   UNL     1      -3.335   3.330  25.010  0.00  0.00    +0.054 C 
ATOM     12  C   UNL     1      -3.603   1.851  25.312  0.00  0.00    +0.019 C 
ATOM     13  C   UNL     1      -4.291   4.236  25.794  0.00  0.00    +0.019 C 
ATOM     15  C   UNL     1      -5.063   1.487  25.049  0.00  0.00    +0.002 C 
ATOM     16  C   UNL     1      -5.749   3.869  25.529  0.00  0.00    +0.002 C 
ATOM     17  C   UNL     1      -6.019   2.395  25.818  0.00  0.00    +0.000 C 
ENDBRANCH   6   9
ENDBRANCH   8   6
BRANCH  11  18
ATOM     18  C   UNL     1       0.054  -0.594  24.093  0.00  0.00    +0.139 C 
BRANCH  18   7
ATOM      7  N   UNL     1      -0.921  -0.986  25.131  0.00  0.00    -0.192 NA
ATOM     22  H   UNL     1      -0.996  -0.305  25.898  0.00  0.00    +0.148 HD
BRANCH   7   1
ATOM      1  S   UNL     1      -2.369  -1.756  24.661  0.00  0.00    +0.027 S 
ATOM      4  O   UNL     1      -2.117  -3.158  24.394  0.00  0.00    -0.158 OA
ATOM      5  O   UNL     1      -3.035  -0.921  23.679  0.00  0.00    -0.158 OA
ATOM     19  C   UNL     1      -3.302  -1.645  26.171  0.00  0.00    +0.214 C 
ENDBRANCH   7   1
ENDBRANCH  18   7
ENDBRANCH  11  18
TORSDOF 6
ENDMDL
MODEL 6
REMARK VINA RESULT:      -4.7      2.856      5.442
REMARK  Name = 75536654
REMARK  7 active torsions:
REMARK  status: ('A' for Active; 'I' for Inactive)
REMARK    1  A    between atoms: S_1  and  N_7
REMARK    2  A    between atoms: S_1  and  C_19
REMARK    3  A    between atoms: O_3  and  C_10
REMARK    4  A    between atoms: N_6  and  C_8
REMARK    5  A    between atoms: N_6  and  C_9
REMARK    6  A    between atoms: N_7  and  C_18
REMARK    7  A    between atoms: C_11  and  C_18
REMARK                            x       y       z     vdW  Elec       q    Type
REMARK                         _______ _______ _______ _____ _____    ______ ____
ROOT
ATOM      2  O   UNL     1       0.253   0.508  23.371  0.00  0.00    -0.371 OA
ATOM      8  C   UNL     1      -0.173   1.560  25.458  0.00  0.00    +0.111 C 
ATOM     10  C   UNL     1      -0.935   0.248  25.400  0.00  0.00    +0.164 C 
ATOM     11  C   UNL     1      -0.162  -0.492  24.317  0.00  0.00    +0.164 C 
ATOM     14  C   UNL     1       0.122   1.802  23.987  0.00  0.00    +0.181 C 
ENDROOT
BRANCH  10   3
ATOM      3  O   UNL     1      -0.917  -0.448  26.631  0.00  0.00    -0.388 OA
ATOM     21  H   UNL     1      -0.061  -0.902  26.713  0.00  0.00    +0.210 HD
ENDBRANCH  10   3
BRANCH   8   6
ATOM      6  N   UNL     1      -0.924   2.644  26.070  0.00  0.00    -0.306 NA
ATOM     20  H   UNL     1      -0.337   3.474  26.153  0.00  0.00    +0.123 HD
BRANCH   6   9
ATOM      9  C   UNL     1      -2.116   2.956  25.284  0.00  0.00    +0.054 C 
ATOM     12  C   UNL     1      -3.200   1.903  25.542  0.00  0.00    +0.019 C 
ATOM     13  C   UNL     1      -2.617   4.362  25.631  0.00  0.00    +0.019 C 
ATOM     15  C   UNL     1      -4.490   2.239  24.795  0.00  0.00    +0.002 C 
ATOM     16  C   UNL     1      -3.907   4.694  24.883  0.00  0.00    +0.002 C 
ATOM     17  C   UNL     1      -4.986   3.643  25.129  0.00  0.00    +0.000 C 
ENDBRANCH   6   9
ENDBRANCH   8   6
BRANCH  11  18
ATOM     18  C   UNL     1      -0.987  -1.555  23.612  0.00  0.00    +0.139 C 
BRANCH  18   7
ATOM      7  N   UNL     1      -1.676  -2.392  24.613  0.00  0.00    -0.192 NA
ATOM     22  H   UNL     1      -1.134  -2.525  25.477  0.00  0.00    +0.148 HD
BRANCH   7   1
ATOM      1  S   UNL     1      -3.366  -2.242  24.800  0.00  0.00    +0.027 S 
ATOM      4  O   UNL     1      -3.667  -1.623  26.075  0.00  0.00    -0.158 OA
ATOM      5  O   UNL     1      -3.983  -3.499  24.422  0.00  0.00    -0.158 OA
ATOM     19  C   UNL     1      -3.732  -1.064  23.519  0.00  0.00    +0.214 C 
ENDBRANCH   7   1
ENDBRANCH  18   7
ENDBRANCH  11  18
TORSDOF 6
ENDMDL
MODEL 7
REMARK VINA RESULT:      -4.5      3.424      4.756
REMARK  Name = 75536654
REMARK  7 active torsions:
REMARK  status: ('A' for Active; 'I' for Inactive)
REMARK    1  A    between atoms: S_1  and  N_7
REMARK    2  A    between atoms: S_1  and  C_19
REMARK    3  A    between atoms: O_3  and  C_10
REMARK    4  A    between atoms: N_6  and  C_8
REMARK    5  A    between atoms: N_6  and  C_9
REMARK    6  A    between atoms: N_7  and  C_18
REMARK    7  A    between atoms: C_11  and  C_18
REMARK                            x       y       z     vdW  Elec       q    Type
REMARK                         _______ _______ _______ _____ _____    ______ ____
ROOT
ATOM      2  O   UNL     1       1.342   1.995  24.006  0.00  0.00    -0.371 OA
ATOM      8  C   UNL     1      -0.851   1.112  24.239  0.00  0.00    +0.111 C 
ATOM     10  C   UNL     1      -0.043   0.197  23.336  0.00  0.00    +0.164 C 
ATOM     11  C   UNL     1       1.378   0.586  23.722  0.00  0.00    +0.164 C 
ATOM     14  C   UNL     1      -0.030   2.390  24.186  0.00  0.00    +0.181 C 
ENDROOT
BRANCH  10   3
ATOM      3  O   UNL     1      -0.300  -1.172  23.576  0.00  0.00    -0.388 OA
ATOM     21  H   UNL     1      -0.393  -1.621  22.718  0.00  0.00    +0.210 HD
ENDBRANCH  10   3
BRANCH   8   6
ATOM      6  N   UNL     1      -2.223   1.303  23.799  0.00  0.00    -0.306 NA
ATOM     20  H   UNL     1      -2.276   1.254  22.782  0.00  0.00    +0.123 HD
BRANCH   6   9
ATOM      9  C   UNL     1      -3.101   0.294  24.389  0.00  0.00    +0.054 C 
ATOM     12  C   UNL     1      -3.489  -0.743  23.329  0.00  0.00    +0.019 C 
ATOM     13  C   UNL     1      -2.405  -0.369  25.583  0.00  0.00    +0.019 C 
ATOM     15  C   UNL     1      -4.345  -1.858  23.929  0.00  0.00    +0.002 C 
ATOM     16  C   UNL     1      -3.263  -1.483  26.180  0.00  0.00    +0.002 C 
ATOM     17  C   UNL     1      -3.660  -2.512  25.126  0.00  0.00    +0.000 C 
ENDBRANCH   6   9
ENDBRANCH   8   6
BRANCH  11  18
ATOM     18  C   UNL     1       2.394   0.308  22.628  0.00  0.00    +0.139 C 
BRANCH  18   7
ATOM      7  N   UNL     1       3.656   1.010  22.934  0.00  0.00    -0.192 NA
ATOM     22  H   UNL     1       3.515   1.951  23.326  0.00  0.00    +0.148 HD
BRANCH   7   1
ATOM      1  S   UNL     1       4.969   0.120  23.562  0.00  0.00    +0.027 S 
ATOM      4  O   UNL     1       5.337   0.640  24.865  0.00  0.00    -0.158 OA
ATOM      5  O   UNL     1       5.963  -0.032  22.517  0.00  0.00    -0.158 OA
ATOM     19  C   UNL     1       4.203  -1.467  23.802  0.00  0.00    +0.214 C 
ENDBRANCH   7   1
ENDBRANCH  18   7
ENDBRANCH  11  18
TORSDOF 6
ENDMDL
MODEL 8
REMARK VINA RESULT:      -4.4      1.960      2.369
REMARK  Name = 75536654
REMARK  7 active torsions:
REMARK  status: ('A' for Active; 'I' for Inactive)
REMARK    1  A    between atoms: S_1  and  N_7
REMARK    2  A    between atoms: S_1  and  C_19
REMARK    3  A    between atoms: O_3  and  C_10
REMARK    4  A    between atoms: N_6  and  C_8
REMARK    5  A    between atoms: N_6  and  C_9
REMARK    6  A    between atoms: N_7  and  C_18
REMARK    7  A    between atoms: C_11  and  C_18
REMARK                            x       y       z     vdW  Elec       q    Type
REMARK                         _______ _______ _______ _____ _____    ______ ____
ROOT
ATOM      2  O   UNL     1      -1.825   2.996  22.986  0.00  0.00    -0.371 OA
ATOM      8  C   UNL     1      -3.123   2.321  24.858  0.00  0.00    +0.111 C 
ATOM     10  C   UNL     1      -1.651   2.242  25.222  0.00  0.00    +0.164 C 
ATOM     11  C   UNL     1      -1.041   3.170  24.179  0.00  0.00    +0.164 C 
ATOM     14  C   UNL     1      -3.057   2.342  23.339  0.00  0.00    +0.181 C 
ENDROOT
BRANCH  10   3
ATOM      3  O   UNL     1      -1.390   2.685  26.539  0.00  0.00    -0.388 OA
ATOM     21  H   UNL     1      -2.166   3.179  26.855  0.00  0.00    +0.210 HD
ENDBRANCH  10   3
BRANCH   8   6
ATOM      6  N   UNL     1      -3.912   1.215  25.375  0.00  0.00    -0.306 NA
ATOM     20  H   UNL     1      -4.901   1.367  25.179  0.00  0.00    +0.123 HD
BRANCH   6   9
ATOM      9  C   UNL     1      -3.478  -0.050  24.783  0.00  0.00    +0.054 C 
ATOM     12  C   UNL     1      -2.780  -0.909  25.844  0.00  0.00    +0.019 C 
ATOM     13  C   UNL     1      -4.682  -0.784  24.181  0.00  0.00    +0.019 C 
ATOM     15  C   UNL     1      -2.381  -2.272  25.280  0.00  0.00    +0.002 C 
ATOM     16  C   UNL     1      -4.279  -2.146  23.620  0.00  0.00    +0.002 C 
ATOM     17  C   UNL     1      -3.574  -3.001  24.669  0.00  0.00    +0.000 C 
ENDBRANCH   6   9
ENDBRANCH   8   6
BRANCH  11  18
ATOM     18  C   UNL     1       0.417   2.864  23.884  0.00  0.00    +0.139 C 
BRANCH  18   7
ATOM      7  N   UNL     1       0.774   1.552  24.460  0.00  0.00    -0.192 NA
ATOM     22  H   UNL     1       0.511   1.456  25.449  0.00  0.00    +0.148 HD
BRANCH   7   1
ATOM      1  S   UNL     1       0.615   0.152  23.497  0.00  0.00    +0.027 S 
ATOM      4  O   UNL     1      -0.361   0.383  22.451  0.00  0.00    -0.158 OA
ATOM      5  O   UNL     1       0.506  -0.997  24.374  0.00  0.00    -0.158 OA
ATOM     19  C   UNL     1       2.225   0.092  22.742  0.00  0.00    +0.214 C 
ENDBRANCH   7   1
ENDBRANCH  18   7
ENDBRANCH  11  18
TORSDOF 6
ENDMDL
MODEL 9
REMARK VINA RESULT:      -4.2     15.025     16.447
REMARK  Name = 75536654
REMARK  7 active torsions:
REMARK  status: ('A' for Active; 'I' for Inactive)
REMARK    1  A    between atoms: S_1  and  N_7
REMARK    2  A    between atoms: S_1  and  C_19
REMARK    3  A    between atoms: O_3  and  C_10
REMARK    4  A    between atoms: N_6  and  C_8
REMARK    5  A    between atoms: N_6  and  C_9
REMARK    6  A    between atoms: N_7  and  C_18
REMARK    7  A    between atoms: C_11  and  C_18
REMARK                            x       y       z     vdW  Elec       q    Type
REMARK                         _______ _______ _______ _____ _____    ______ ____
ROOT
ATOM      2  O   UNL     1      -4.013 -10.551  14.955  0.00  0.00    -0.371 OA
ATOM      8  C   UNL     1      -6.197 -10.080  15.764  0.00  0.00    +0.111 C 
ATOM     10  C   UNL     1      -6.184  -9.925  14.254  0.00  0.00    +0.164 C 
ATOM     11  C   UNL     1      -4.954 -10.745  13.885  0.00  0.00    +0.164 C 
ATOM     14  C   UNL     1      -4.713 -10.003  16.087  0.00  0.00    +0.181 C 
ENDROOT
BRANCH  10   3
ATOM      3  O   UNL     1      -7.356 -10.430  13.644  0.00  0.00    -0.388 OA
ATOM     21  H   UNL     1      -7.807  -9.696  13.193  0.00  0.00    +0.210 HD
ENDBRANCH  10   3
BRANCH   8   6
ATOM      6  N   UNL     1      -6.977  -9.062  16.448  0.00  0.00    -0.306 NA
ATOM     20  H   UNL     1      -7.063  -8.233  15.862  0.00  0.00    +0.123 HD
BRANCH   6   9
ATOM      9  C   UNL     1      -8.305  -9.570  16.786  0.00  0.00    +0.054 C 
ATOM     12  C   UNL     1      -8.276 -10.221  18.175  0.00  0.00    +0.019 C 
ATOM     13  C   UNL     1      -9.329  -8.431  16.732  0.00  0.00    +0.019 C 
ATOM     15  C   UNL     1      -9.666 -10.696  18.595  0.00  0.00    +0.002 C 
ATOM     16  C   UNL     1     -10.718  -8.909  17.154  0.00  0.00    +0.002 C 
ATOM     17  C   UNL     1     -10.691  -9.567  18.531  0.00  0.00    +0.000 C 
ENDBRANCH   6   9
ENDBRANCH   8   6
BRANCH  11  18
ATOM     18  C   UNL     1      -4.327 -10.325  12.567  0.00  0.00    +0.139 C 
BRANCH  18   7
ATOM      7  N   UNL     1      -5.335  -9.636  11.737  0.00  0.00    -0.192 NA
ATOM     22  H   UNL     1      -5.883  -8.938  12.256  0.00  0.00    +0.148 HD
BRANCH   7   1
ATOM      1  S   UNL     1      -4.953  -9.246  10.120  0.00  0.00    +0.027 S 
ATOM      4  O   UNL     1      -5.339  -7.877   9.840  0.00  0.00    -0.158 OA
ATOM      5  O   UNL     1      -5.398 -10.332   9.268  0.00  0.00    -0.158 OA
ATOM     19  C   UNL     1      -3.176  -9.312  10.180  0.00  0.00    +0.214 C 
ENDBRANCH   7   1
ENDBRANCH  18   7
ENDBRANCH  11  18
TORSDOF 6
ENDMDL
MODEL 10
REMARK VINA RESULT:      -3.7      3.439      5.124
REMARK  Name = 75536654
REMARK  7 active torsions:
REMARK  status: ('A' for Active; 'I' for Inactive)
REMARK    1  A    between atoms: S_1  and  N_7
REMARK    2  A    between atoms: S_1  and  C_19
REMARK    3  A    between atoms: O_3  and  C_10
REMARK    4  A    between atoms: N_6  and  C_8
REMARK    5  A    between atoms: N_6  and  C_9
REMARK    6  A    between atoms: N_7  and  C_18
REMARK    7  A    between atoms: C_11  and  C_18
REMARK                            x       y       z     vdW  Elec       q    Type
REMARK                         _______ _______ _______ _____ _____    ______ ____
ROOT
ATOM      2  O   UNL     1       0.286   2.071  23.567  0.00  0.00    -0.371 OA
ATOM      8  C   UNL     1      -1.343   0.802  24.741  0.00  0.00    +0.111 C 
ATOM     10  C   UNL     1      -0.281  -0.138  24.200  0.00  0.00    +0.164 C 
ATOM     11  C   UNL     1       0.878   0.827  23.980  0.00  0.00    +0.164 C 
ATOM     14  C   UNL     1      -1.116   2.038  23.886  0.00  0.00    +0.181 C 
ENDROOT
BRANCH  10   3
ATOM      3  O   UNL     1       0.054  -1.165  25.111  0.00  0.00    -0.388 OA
ATOM     21  H   UNL     1       0.843  -0.889  25.608  0.00  0.00    +0.210 HD
ENDBRANCH  10   3
BRANCH   8   6
ATOM      6  N   UNL     1      -2.695   0.278  24.630  0.00  0.00    -0.306 NA
ATOM     20  H   UNL     1      -2.915  -0.300  25.441  0.00  0.00    +0.123 HD
BRANCH   6   9
ATOM      9  C   UNL     1      -3.664   1.368  24.522  0.00  0.00    +0.054 C 
ATOM     12  C   UNL     1      -5.056   0.869  24.928  0.00  0.00    +0.019 C 
ATOM     13  C   UNL     1      -3.223   2.547  25.396  0.00  0.00    +0.019 C 
ATOM     15  C   UNL     1      -6.081   2.002  24.901  0.00  0.00    +0.002 C 
ATOM     16  C   UNL     1      -4.250   3.677  25.368  0.00  0.00    +0.002 C 
ATOM     17  C   UNL     1      -5.640   3.183  25.761  0.00  0.00    +0.000 C 
ENDBRANCH   6   9
ENDBRANCH   8   6
BRANCH  11  18
ATOM     18  C   UNL     1       1.862   0.351  22.925  0.00  0.00    +0.139 C 
BRANCH  18   7
ATOM      7  N   UNL     1       3.201   0.903  23.213  0.00  0.00    -0.192 NA
ATOM     22  H   UNL     1       3.191   1.647  23.922  0.00  0.00    +0.148 HD
BRANCH   7   1
ATOM      1  S   UNL     1       4.544  -0.149  23.242  0.00  0.00    +0.027 S 
ATOM      4  O   UNL     1       5.308  -0.005  22.019  0.00  0.00    -0.158 OA
ATOM      5  O   UNL     1       4.095  -1.454  23.687  0.00  0.00    -0.158 OA
ATOM     19  C   UNL     1       5.491   0.567  24.566  0.00  0.00    +0.214 C 
ENDBRANCH   7   1
ENDBRANCH  18   7
ENDBRANCH  11  18
TORSDOF 6
ENDMDL
