MODEL 1
REMARK VINA RESULT:      -1.1      0.000      0.000
REMARK  Name = 51138142
REMARK  9 active torsions:
REMARK  status: ('A' for Active; 'I' for Inactive)
REMARK    1  A    between atoms: N_3  and  C_7
REMARK    2  A    between atoms: N_5  and  C_23
REMARK    3  A    between atoms: C_10  and  C_17
REMARK    4  A    between atoms: C_11  and  C_16
REMARK    5  A    between atoms: C_16  and  C_19
REMARK    6  A    between atoms: C_19  and  C_25
REMARK    7  A    between atoms: C_19  and  C_26
REMARK    8  A    between atoms: C_23  and  C_27
REMARK    9  A    between atoms: C_29  and  C_30
REMARK                            x       y       z     vdW  Elec       q    Type
REMARK                         _______ _______ _______ _____ _____    ______ ____
ROOT
ATOM      4  N   UNL     1       0.815  -0.503  23.820  0.00  0.00    -0.299 NA
ATOM      5  N   UNL     1      -2.480   3.262  24.513  0.00  0.00    -0.340 N 
ATOM     10  C   UNL     1       1.267   0.734  23.200  0.00  0.00    +0.145 C 
ATOM     11  C   UNL     1      -0.473  -1.004  23.322  0.00  0.00    +0.085 C 
ATOM     12  C   UNL     1       0.911   1.951  24.051  0.00  0.00    +0.065 C 
ATOM     13  C   UNL     1      -1.688  -0.110  23.588  0.00  0.00    -0.021 A 
ATOM     14  C   UNL     1      -1.629   1.267  23.955  0.00  0.00    +0.008 A 
ATOM     15  C   UNL     1      -0.555   2.199  24.167  0.00  0.00    -0.020 A 
ATOM     18  C   UNL     1      -2.818   1.978  24.157  0.00  0.00    +0.050 A 
ATOM     20  C   UNL     1      -1.123   3.408  24.517  0.00  0.00    +0.091 A 
ATOM     21  C   UNL     1      -2.984  -0.647  23.387  0.00  0.00    +0.006 A 
ATOM     22  C   UNL     1      -4.085   1.417  23.998  0.00  0.00    +0.026 A 
ATOM     24  C   UNL     1      -4.149   0.089  23.595  0.00  0.00    +0.002 A 
ATOM     32  H   UNL     1       0.805  -0.423  24.836  0.00  0.00    +0.123 HD
ENDROOT
BRANCH  10  17
ATOM      1  O   UNL     1       3.473   1.553  22.789  0.00  0.00    -0.274 OA
ATOM      3  N   UNL     1       3.202  -0.666  23.426  0.00  0.00    -0.311 N 
ATOM     17  C   UNL     1       2.758   0.610  23.120  0.00  0.00    +0.231 C 
ATOM     31  H   UNL     1       2.534  -1.386  23.689  0.00  0.00    +0.149 HD
BRANCH   3   7
ATOM      7  C   UNL     1       4.589  -1.030  23.388  0.00  0.00    +0.073 C 
ATOM      8  C   UNL     1       5.660   0.012  23.251  0.00  0.00    +0.024 C 
ATOM      9  C   UNL     1       5.503  -0.738  24.542  0.00  0.00    +0.024 C 
ENDBRANCH   3   7
ENDBRANCH  10  17
BRANCH  11  16
ATOM     16  C   UNL     1      -0.619  -2.400  23.954  0.00  0.00    +0.026 C 
BRANCH  16  19
ATOM     19  C   UNL     1      -1.161  -2.354  25.386  0.00  0.00    -0.015 C 
ATOM     25  C   UNL     1      -2.661  -2.662  25.368  0.00  0.00    +0.007 C 
ATOM     26  C   UNL     1      -0.918  -1.007  26.066  0.00  0.00    +0.007 C 
ENDBRANCH  16  19
ENDBRANCH  11  16
BRANCH   5  23
ATOM     23  C   UNL     1      -3.413   4.324  24.822  0.00  0.00    +0.180 C 
BRANCH  23  27
ATOM      2  O   UNL     1      -6.739   3.867  26.143  0.00  0.00    -0.360 OA
ATOM      6  N   UNL     1      -5.769   4.610  25.480  0.00  0.00    -0.081 NA
ATOM     27  C   UNL     1      -4.683   3.833  25.472  0.00  0.00    +0.103 A 
ATOM     28  C   UNL     1      -4.904   2.599  26.108  0.00  0.00    +0.072 A 
ATOM     29  C   UNL     1      -6.211   2.671  26.512  0.00  0.00    +0.135 A 
ATOM     30  C   UNL     1      -7.105   1.754  27.228  0.00  0.00    +0.089 C 
ENDBRANCH  23  27
ENDBRANCH   5  23
TORSDOF 6
ENDMDL
MODEL 2
REMARK VINA RESULT:      -0.9      1.659      7.690
REMARK  Name = 51138142
REMARK  9 active torsions:
REMARK  status: ('A' for Active; 'I' for Inactive)
REMARK    1  A    between atoms: N_3  and  C_7
REMARK    2  A    between atoms: N_5  and  C_23
REMARK    3  A    between atoms: C_10  and  C_17
REMARK    4  A    between atoms: C_11  and  C_16
REMARK    5  A    between atoms: C_16  and  C_19
REMARK    6  A    between atoms: C_19  and  C_25
REMARK    7  A    between atoms: C_19  and  C_26
REMARK    8  A    between atoms: C_23  and  C_27
REMARK    9  A    between atoms: C_29  and  C_30
REMARK                            x       y       z     vdW  Elec       q    Type
REMARK                         _______ _______ _______ _____ _____    ______ ____
ROOT
ATOM      4  N   UNL     1      -3.108   1.412  25.324  0.00  0.00    -0.299 NA
ATOM      5  N   UNL     1       1.167   0.240  22.901  0.00  0.00    -0.340 N 
ATOM     10  C   UNL     1      -2.115   2.472  25.431  0.00  0.00    +0.145 C 
ATOM     11  C   UNL     1      -2.682   0.116  25.870  0.00  0.00    +0.085 C 
ATOM     12  C   UNL     1      -1.321   2.630  24.136  0.00  0.00    +0.065 C 
ATOM     13  C   UNL     1      -1.498  -0.551  25.165  0.00  0.00    -0.021 A 
ATOM     14  C   UNL     1      -0.591   0.106  24.283  0.00  0.00    +0.008 A 
ATOM     15  C   UNL     1      -0.462   1.456  23.806  0.00  0.00    -0.020 A 
ATOM     18  C   UNL     1       0.463  -0.619  23.713  0.00  0.00    +0.050 A 
ATOM     20  C   UNL     1       0.623   1.490  22.954  0.00  0.00    +0.091 A 
ATOM     21  C   UNL     1      -1.213  -1.910  25.455  0.00  0.00    +0.006 A 
ATOM     22  C   UNL     1       0.698  -1.968  23.976  0.00  0.00    +0.026 A 
ATOM     24  C   UNL     1      -0.154  -2.602  24.871  0.00  0.00    +0.002 A 
ATOM     32  H   UNL     1      -3.437   1.312  24.363  0.00  0.00    +0.123 HD
ENDROOT
BRANCH  10  17
ATOM      1  O   UNL     1      -2.362   4.820  25.797  0.00  0.00    -0.274 OA
ATOM      3  N   UNL     1      -4.263   3.481  25.784  0.00  0.00    -0.311 N 
ATOM     17  C   UNL     1      -2.903   3.723  25.679  0.00  0.00    +0.231 C 
ATOM     31  H   UNL     1      -4.621   2.536  25.672  0.00  0.00    +0.149 HD
BRANCH   3   7
ATOM      7  C   UNL     1      -5.212   4.522  26.050  0.00  0.00    +0.073 C 
ATOM      8  C   UNL     1      -5.776   5.360  24.940  0.00  0.00    +0.024 C 
ATOM      9  C   UNL     1      -6.655   4.380  25.661  0.00  0.00    +0.024 C 
ENDBRANCH   3   7
ENDBRANCH  10  17
BRANCH  11  16
ATOM     16  C   UNL     1      -3.952  -0.754  25.841  0.00  0.00    +0.026 C 
BRANCH  16  19
ATOM     19  C   UNL     1      -4.469  -1.010  24.422  0.00  0.00    -0.015 C 
ATOM     25  C   UNL     1      -4.174  -2.461  24.033  0.00  0.00    +0.007 C 
ATOM     26  C   UNL     1      -3.857  -0.063  23.391  0.00  0.00    +0.007 C 
ENDBRANCH  16  19
ENDBRANCH  11  16
BRANCH   5  23
ATOM     23  C   UNL     1       2.330  -0.109  22.114  0.00  0.00    +0.180 C 
BRANCH  23  27
ATOM      2  O   UNL     1       5.367   0.862  23.802  0.00  0.00    -0.360 OA
ATOM      6  N   UNL     1       4.230   1.145  23.054  0.00  0.00    -0.081 NA
ATOM     27  C   UNL     1       3.621  -0.033  22.891  0.00  0.00    +0.103 A 
ATOM     28  C   UNL     1       4.321  -1.085  23.507  0.00  0.00    +0.072 A 
ATOM     29  C   UNL     1       5.409  -0.469  24.065  0.00  0.00    +0.135 A 
ATOM     30  C   UNL     1       6.553  -0.945  24.852  0.00  0.00    +0.089 C 
ENDBRANCH  23  27
ENDBRANCH   5  23
TORSDOF 6
ENDMDL
MODEL 3
REMARK VINA RESULT:       0.5      1.638      7.740
REMARK  Name = 51138142
REMARK  9 active torsions:
REMARK  status: ('A' for Active; 'I' for Inactive)
REMARK    1  A    between atoms: N_3  and  C_7
REMARK    2  A    between atoms: N_5  and  C_23
REMARK    3  A    between atoms: C_10  and  C_17
REMARK    4  A    between atoms: C_11  and  C_16
REMARK    5  A    between atoms: C_16  and  C_19
REMARK    6  A    between atoms: C_19  and  C_25
REMARK    7  A    between atoms: C_19  and  C_26
REMARK    8  A    between atoms: C_23  and  C_27
REMARK    9  A    between atoms: C_29  and  C_30
REMARK                            x       y       z     vdW  Elec       q    Type
REMARK                         _______ _______ _______ _____ _____    ______ ____
ROOT
ATOM      4  N   UNL     1      -3.672   1.810  24.845  0.00  0.00    -0.299 NA
ATOM      5  N   UNL     1       0.560  -0.377  23.168  0.00  0.00    -0.340 N 
ATOM     10  C   UNL     1      -2.485   2.559  25.231  0.00  0.00    +0.145 C 
ATOM     11  C   UNL     1      -3.714   0.428  25.342  0.00  0.00    +0.085 C 
ATOM     12  C   UNL     1      -1.430   2.547  24.126  0.00  0.00    +0.065 C 
ATOM     13  C   UNL     1      -2.622  -0.506  24.814  0.00  0.00    -0.021 A 
ATOM     14  C   UNL     1      -1.417  -0.085  24.180  0.00  0.00    +0.008 A 
ATOM     15  C   UNL     1      -0.852   1.198  23.858  0.00  0.00    -0.020 A 
ATOM     18  C   UNL     1      -0.490  -1.044  23.753  0.00  0.00    +0.050 A 
ATOM     20  C   UNL     1       0.356   0.970  23.230  0.00  0.00    +0.091 A 
ATOM     21  C   UNL     1      -2.760  -1.901  25.028  0.00  0.00    +0.006 A 
ATOM     22  C   UNL     1      -0.667  -2.416  23.933  0.00  0.00    +0.026 A 
ATOM     24  C   UNL     1      -1.817  -2.830  24.592  0.00  0.00    +0.002 A 
ATOM     32  H   UNL     1      -3.813   1.838  23.836  0.00  0.00    +0.123 HD
ENDROOT
BRANCH  10  17
ATOM      1  O   UNL     1      -2.182   4.887  25.676  0.00  0.00    -0.274 OA
ATOM      3  N   UNL     1      -4.338   4.077  25.364  0.00  0.00    -0.311 N 
ATOM     17  C   UNL     1      -2.960   3.966  25.439  0.00  0.00    +0.231 C 
ATOM     31  H   UNL     1      -4.904   3.255  25.164  0.00  0.00    +0.149 HD
BRANCH   3   7
ATOM      7  C   UNL     1      -5.023   5.322  25.561  0.00  0.00    +0.073 C 
ATOM      8  C   UNL     1      -6.122   5.756  24.635  0.00  0.00    +0.024 C 
ATOM      9  C   UNL     1      -6.443   5.362  26.048  0.00  0.00    +0.024 C 
ENDBRANCH   3   7
ENDBRANCH  10  17
BRANCH  11  16
ATOM     16  C   UNL     1      -5.131  -0.066  24.999  0.00  0.00    +0.026 C 
BRANCH  16  19
ATOM     19  C   UNL     1      -6.229   0.889  25.475  0.00  0.00    -0.015 C 
ATOM     25  C   UNL     1      -6.523   1.909  24.372  0.00  0.00    +0.007 C 
ATOM     26  C   UNL     1      -5.859   1.617  26.768  0.00  0.00    +0.007 C 
ENDBRANCH  16  19
ENDBRANCH  11  16
BRANCH   5  23
ATOM     23  C   UNL     1       1.730  -0.996  22.583  0.00  0.00    +0.180 C 
BRANCH  23  27
ATOM      2  O   UNL     1       4.428   1.344  23.092  0.00  0.00    -0.360 OA
ATOM      6  N   UNL     1       3.152   1.014  22.653  0.00  0.00    -0.081 NA
ATOM     27  C   UNL     1       3.017  -0.286  22.928  0.00  0.00    +0.103 A 
ATOM     28  C   UNL     1       4.164  -0.826  23.533  0.00  0.00    +0.072 A 
ATOM     29  C   UNL     1       5.021   0.239  23.613  0.00  0.00    +0.135 A 
ATOM     30  C   UNL     1       6.385   0.410  24.128  0.00  0.00    +0.089 C 
ENDBRANCH  23  27
ENDBRANCH   5  23
TORSDOF 6
ENDMDL
MODEL 4
REMARK VINA RESULT:       1.8      1.999      7.602
REMARK  Name = 51138142
REMARK  9 active torsions:
REMARK  status: ('A' for Active; 'I' for Inactive)
REMARK    1  A    between atoms: N_3  and  C_7
REMARK    2  A    between atoms: N_5  and  C_23
REMARK    3  A    between atoms: C_10  and  C_17
REMARK    4  A    between atoms: C_11  and  C_16
REMARK    5  A    between atoms: C_16  and  C_19
REMARK    6  A    between atoms: C_19  and  C_25
REMARK    7  A    between atoms: C_19  and  C_26
REMARK    8  A    between atoms: C_23  and  C_27
REMARK    9  A    between atoms: C_29  and  C_30
REMARK                            x       y       z     vdW  Elec       q    Type
REMARK                         _______ _______ _______ _____ _____    ______ ____
ROOT
ATOM      4  N   UNL     1      -3.514   1.176  25.246  0.00  0.00    -0.299 NA
ATOM      5  N   UNL     1       1.163   2.032  23.540  0.00  0.00    -0.340 N 
ATOM     10  C   UNL     1      -3.205   0.363  24.079  0.00  0.00    +0.145 C 
ATOM     11  C   UNL     1      -3.430   2.626  25.023  0.00  0.00    +0.085 C 
ATOM     12  C   UNL     1      -1.754  -0.115  24.095  0.00  0.00    +0.065 C 
ATOM     13  C   UNL     1      -2.041   3.170  24.674  0.00  0.00    -0.021 A 
ATOM     14  C   UNL     1      -0.940   2.384  24.227  0.00  0.00    +0.008 A 
ATOM     15  C   UNL     1      -0.754   0.984  23.961  0.00  0.00    -0.020 A 
ATOM     18  C   UNL     1       0.277   3.009  23.928  0.00  0.00    +0.050 A 
ATOM     20  C   UNL     1       0.553   0.812  23.551  0.00  0.00    +0.091 A 
ATOM     21  C   UNL     1      -1.831   4.572  24.718  0.00  0.00    +0.006 A 
ATOM     22  C   UNL     1       0.477   4.387  24.022  0.00  0.00    +0.026 A 
ATOM     24  C   UNL     1      -0.607   5.163  24.412  0.00  0.00    +0.002 A 
ATOM     32  H   UNL     1      -2.948   0.898  26.048  0.00  0.00    +0.123 HD
ENDROOT
BRANCH  10  17
ATOM      1  O   UNL     1      -5.334  -0.705  24.261  0.00  0.00    -0.274 OA
ATOM      3  N   UNL     1      -3.421  -2.023  24.192  0.00  0.00    -0.311 N 
ATOM     17  C   UNL     1      -4.114  -0.825  24.177  0.00  0.00    +0.231 C 
ATOM     31  H   UNL     1      -2.407  -2.025  24.118  0.00  0.00    +0.149 HD
BRANCH   3   7
ATOM      7  C   UNL     1      -4.079  -3.293  24.310  0.00  0.00    +0.073 C 
ATOM      8  C   UNL     1      -4.993  -3.795  23.231  0.00  0.00    +0.024 C 
ATOM      9  C   UNL     1      -3.670  -4.464  23.465  0.00  0.00    +0.024 C 
ENDBRANCH   3   7
ENDBRANCH  10  17
BRANCH  11  16
ATOM     16  C   UNL     1      -4.003   3.251  26.307  0.00  0.00    +0.026 C 
BRANCH  16  19
ATOM     19  C   UNL     1      -5.518   3.467  26.242  0.00  0.00    -0.015 C 
ATOM     25  C   UNL     1      -6.176   2.239  25.608  0.00  0.00    +0.007 C 
ATOM     26  C   UNL     1      -5.902   4.723  25.458  0.00  0.00    +0.007 C 
ENDBRANCH  16  19
ENDBRANCH  11  16
BRANCH   5  23
ATOM     23  C   UNL     1       2.541   2.249  23.153  0.00  0.00    +0.180 C 
BRANCH  23  27
ATOM      2  O   UNL     1       3.911  -1.088  23.141  0.00  0.00    -0.360 OA
ATOM      6  N   UNL     1       2.879  -0.181  22.936  0.00  0.00    -0.081 NA
ATOM     27  C   UNL     1       3.393   1.008  23.259  0.00  0.00    +0.103 A 
ATOM     28  C   UNL     1       4.733   0.916  23.672  0.00  0.00    +0.072 A 
ATOM     29  C   UNL     1       5.010  -0.422  23.580  0.00  0.00    +0.135 A 
ATOM     30  C   UNL     1       6.203  -1.234  23.849  0.00  0.00    +0.089 C 
ENDBRANCH  23  27
ENDBRANCH   5  23
TORSDOF 6
ENDMDL
MODEL 5
REMARK VINA RESULT:       2.1      3.480      6.686
REMARK  Name = 51138142
REMARK  9 active torsions:
REMARK  status: ('A' for Active; 'I' for Inactive)
REMARK    1  A    between atoms: N_3  and  C_7
REMARK    2  A    between atoms: N_5  and  C_23
REMARK    3  A    between atoms: C_10  and  C_17
REMARK    4  A    between atoms: C_11  and  C_16
REMARK    5  A    between atoms: C_16  and  C_19
REMARK    6  A    between atoms: C_19  and  C_25
REMARK    7  A    between atoms: C_19  and  C_26
REMARK    8  A    between atoms: C_23  and  C_27
REMARK    9  A    between atoms: C_29  and  C_30
REMARK                            x       y       z     vdW  Elec       q    Type
REMARK                         _______ _______ _______ _____ _____    ______ ____
ROOT
ATOM      4  N   UNL     1      -4.110   1.025  24.464  0.00  0.00    -0.299 NA
ATOM      5  N   UNL     1       0.281   2.677  26.335  0.00  0.00    -0.340 N 
ATOM     10  C   UNL     1      -3.020   0.099  24.189  0.00  0.00    +0.145 C 
ATOM     11  C   UNL     1      -3.923   2.373  23.911  0.00  0.00    +0.085 C 
ATOM     12  C   UNL     1      -2.043   0.018  25.361  0.00  0.00    +0.065 C 
ATOM     13  C   UNL     1      -2.743   3.170  24.474  0.00  0.00    -0.021 A 
ATOM     14  C   UNL     1      -1.652   2.616  25.205  0.00  0.00    +0.008 A 
ATOM     15  C   UNL     1      -1.297   1.284  25.614  0.00  0.00    -0.020 A 
ATOM     18  C   UNL     1      -0.626   3.455  25.654  0.00  0.00    +0.050 A 
ATOM     20  C   UNL     1      -0.110   1.370  26.312  0.00  0.00    +0.091 A 
ATOM     21  C   UNL     1      -2.667   4.559  24.196  0.00  0.00    +0.006 A 
ATOM     22  C   UNL     1      -0.593   4.828  25.409  0.00  0.00    +0.026 A 
ATOM     24  C   UNL     1      -1.630   5.367  24.658  0.00  0.00    +0.002 A 
ATOM     32  H   UNL     1      -4.314   1.066  25.462  0.00  0.00    +0.123 HD
ENDROOT
BRANCH  10  17
ATOM      1  O   UNL     1      -4.824  -1.342  23.575  0.00  0.00    -0.274 OA
ATOM      3  N   UNL     1      -2.864  -2.286  24.397  0.00  0.00    -0.311 N 
ATOM     17  C   UNL     1      -3.677  -1.236  24.005  0.00  0.00    +0.231 C 
ATOM     31  H   UNL     1      -1.926  -2.100  24.742  0.00  0.00    +0.149 HD
BRANCH   3   7
ATOM      7  C   UNL     1      -3.291  -3.654  24.339  0.00  0.00    +0.073 C 
ATOM      8  C   UNL     1      -4.468  -4.064  23.503  0.00  0.00    +0.024 C 
ATOM      9  C   UNL     1      -3.084  -4.484  23.105  0.00  0.00    +0.024 C 
ENDBRANCH   3   7
ENDBRANCH  10  17
BRANCH  11  16
ATOM     16  C   UNL     1      -5.273   3.077  24.138  0.00  0.00    +0.026 C 
BRANCH  16  19
ATOM     19  C   UNL     1      -5.505   3.467  25.601  0.00  0.00    -0.015 C 
ATOM     25  C   UNL     1      -6.327   2.375  26.290  0.00  0.00    +0.007 C 
ATOM     26  C   UNL     1      -6.211   4.815  25.748  0.00  0.00    +0.007 C 
ENDBRANCH  16  19
ENDBRANCH  11  16
BRANCH   5  23
ATOM     23  C   UNL     1       1.490   3.155  26.972  0.00  0.00    +0.180 C 
BRANCH  23  27
ATOM      2  O   UNL     1       2.492   2.083  30.268  0.00  0.00    -0.360 OA
ATOM      6  N   UNL     1       2.748   2.338  28.926  0.00  0.00    -0.081 NA
ATOM     27  C   UNL     1       1.587   2.774  28.429  0.00  0.00    +0.103 A 
ATOM     28  C   UNL     1       0.572   2.813  29.400  0.00  0.00    +0.072 A 
ATOM     29  C   UNL     1       1.193   2.370  30.537  0.00  0.00    +0.135 A 
ATOM     30  C   UNL     1       0.749   2.156  31.920  0.00  0.00    +0.089 C 
ENDBRANCH  23  27
ENDBRANCH   5  23
TORSDOF 6
ENDMDL
