MODEL 1
REMARK VINA RESULT:      -3.1      0.000      0.000
REMARK  Name = 45361501
REMARK  12 active torsions:
REMARK  status: ('A' for Active; 'I' for Inactive)
REMARK    1  A    between atoms: O_2  and  C_11
REMARK    2  A    between atoms: O_5  and  C_24
REMARK    3  A    between atoms: O_5  and  C_27
REMARK    4  A    between atoms: N_6  and  C_15
REMARK    5  A    between atoms: N_7  and  C_25
REMARK    6  A    between atoms: C_8  and  C_18
REMARK    7  A    between atoms: C_10  and  C_20
REMARK    8  A    between atoms: C_14  and  C_19
REMARK    9  A    between atoms: C_19  and  C_21
REMARK   10  A    between atoms: C_19  and  C_22
REMARK   11  A    between atoms: C_23  and  C_24
REMARK   12  A    between atoms: C_25  and  C_26
REMARK                            x       y       z     vdW  Elec       q    Type
REMARK                         _______ _______ _______ _____ _____    ______ ____
ROOT
ATOM      8  C   UNL     1      -2.238  -1.010  25.128  0.00  0.00    -0.027 C 
ATOM      9  C   UNL     1      -2.253   0.209  24.147  0.00  0.00    +0.028 C 
ATOM     10  C   UNL     1      -0.801   0.768  23.928  0.00  0.00    +0.012 C 
ATOM     11  C   UNL     1      -3.316   1.262  24.573  0.00  0.00    +0.122 C 
ATOM     12  C   UNL     1      -3.662  -1.605  25.233  0.00  0.00    +0.007 C 
ATOM     13  C   UNL     1      -1.312  -2.107  24.554  0.00  0.00    +0.009 C 
ATOM     14  C   UNL     1      -4.718   0.642  24.779  0.00  0.00    +0.029 C 
ATOM     15  C   UNL     1       0.140  -0.362  23.422  0.00  0.00    +0.076 C 
ATOM     16  C   UNL     1      -4.700  -0.586  25.688  0.00  0.00    +0.007 C 
ATOM     17  C   UNL     1       0.106  -1.616  24.296  0.00  0.00    +0.023 C 
ATOM     18  C   UNL     1      -1.753  -0.625  26.549  0.00  0.00    +0.011 C 
ATOM     20  C   UNL     1      -0.738   1.953  22.950  0.00  0.00    +0.010 C 
ENDROOT
BRANCH  15   6
ATOM      4  O   UNL     1       1.823  -0.412  21.070  0.00  0.00    -0.273 OA
ATOM      6  N   UNL     1       1.512   0.088  23.320  0.00  0.00    -0.310 N 
ATOM     23  C   UNL     1       2.237   0.022  22.142  0.00  0.00    +0.239 C 
ATOM     33  H   UNL     1       1.975   0.406  24.167  0.00  0.00    +0.149 HD
BRANCH  23  24
ATOM     24  C   UNL     1       3.640   0.562  22.320  0.00  0.00    +0.255 C 
BRANCH  24   5
ATOM      5  O   UNL     1       4.407  -0.303  23.130  0.00  0.00    -0.374 OA
ATOM     27  C   UNL     1       5.429   0.397  23.834  0.00  0.00    +0.194 C 
ENDBRANCH  24   5
ENDBRANCH  23  24
ENDBRANCH  15   6
BRANCH  11   2
ATOM      2  O   UNL     1      -3.451   2.246  23.546  0.00  0.00    -0.391 OA
ATOM     34  H   UNL     1      -4.251   2.768  23.730  0.00  0.00    +0.210 HD
ENDBRANCH  11   2
BRANCH  14  19
ATOM     19  C   UNL     1      -5.720   1.668  25.323  0.00  0.00    +0.077 C 
ATOM     21  C   UNL     1      -6.858   1.868  24.328  0.00  0.00    +0.017 C 
BRANCH  19  22
ATOM      3  O   UNL     1      -5.303   4.040  25.070  0.00  0.00    -0.276 OA
ATOM      7  N   UNL     1      -4.007   2.841  26.574  0.00  0.00    -0.311 N 
ATOM     22  C   UNL     1      -5.007   2.983  25.623  0.00  0.00    +0.216 C 
ATOM     35  H   UNL     1      -3.860   1.942  27.023  0.00  0.00    +0.149 HD
BRANCH   7  25
ATOM     25  C   UNL     1      -3.192   3.945  27.021  0.00  0.00    +0.141 C 
BRANCH  25  26
ATOM      1 CL   UNL     1      -0.566   2.323  27.036  0.00  0.00    -0.083 Cl
ATOM     26  C   UNL     1      -2.135   4.306  26.018  0.00  0.00    -0.012 A 
ATOM     28  C   UNL     1      -0.919   3.624  25.957  0.00  0.00    +0.046 A 
ATOM     29  C   UNL     1      -2.391   5.352  25.133  0.00  0.00    +0.006 A 
ATOM     30  C   UNL     1       0.038   3.987  25.011  0.00  0.00    +0.020 A 
ATOM     31  C   UNL     1      -1.434   5.717  24.186  0.00  0.00    +0.000 A 
ATOM     32  C   UNL     1      -0.219   5.034  24.126  0.00  0.00    +0.001 A 
ENDBRANCH  25  26
ENDBRANCH   7  25
ENDBRANCH  19  22
ENDBRANCH  14  19
TORSDOF 8
ENDMDL
