MODEL 1
REMARK VINA RESULT:      -6.0      0.000      0.000
REMARK  Name = 56775731
REMARK  7 active torsions:
REMARK  status: ('A' for Active; 'I' for Inactive)
REMARK    1  A    between atoms: O_3  and  C_23
REMARK    2  A    between atoms: N_4  and  C_6
REMARK    3  A    between atoms: N_4  and  C_8
REMARK    4  A    between atoms: C_6  and  C_13
REMARK    5  A    between atoms: C_7  and  C_8
REMARK    6  A    between atoms: C_13  and  C_17
REMARK    7  A    between atoms: C_19  and  C_20
REMARK                            x       y       z     vdW  Elec       q    Type
REMARK                         _______ _______ _______ _____ _____    ______ ____
ROOT
ATOM     13  C   UNL     1      -2.541   3.882  25.825  0.00  0.00    +0.085 C 
ENDROOT
BRANCH  13  17
ATOM      2  O   UNL     1       0.517   1.963  25.697  0.00  0.00    -0.354 OA
ATOM      5  N   UNL     1      -0.446   2.697  26.377  0.00  0.00    -0.083 NA
ATOM     17  C   UNL     1      -1.331   3.056  25.442  0.00  0.00    +0.086 A 
ATOM     18  C   UNL     1      -0.980   2.583  24.166  0.00  0.00    +0.076 A 
ATOM     19  C   UNL     1       0.189   1.902  24.381  0.00  0.00    +0.168 A 
BRANCH  19  20
ATOM     20  C   UNL     1       1.096   1.170  23.546  0.00  0.00    +0.023 A 
ATOM     21  C   UNL     1       2.463   1.442  23.593  0.00  0.00    +0.057 A 
ATOM     22  C   UNL     1       0.610   0.185  22.685  0.00  0.00    +0.012 A 
ATOM     23  C   UNL     1       3.345   0.731  22.778  0.00  0.00    +0.118 A 
ATOM     24  C   UNL     1       1.492  -0.526  21.871  0.00  0.00    +0.004 A 
ATOM     25  C   UNL     1       2.859  -0.254  21.918  0.00  0.00    +0.045 A 
BRANCH  23   3
ATOM      3  O   UNL     1       4.678   0.998  22.823  0.00  0.00    -0.507 OA
ATOM     27  H   UNL     1       4.922   1.515  22.036  0.00  0.00    +0.292 HD
ENDBRANCH  23   3
ENDBRANCH  19  20
ENDBRANCH  13  17
BRANCH  13   6
ATOM      1  O   UNL     1      -5.797   4.003  25.397  0.00  0.00    -0.376 OA
ATOM      6  C   UNL     1      -3.797   3.267  25.288  0.00  0.00    +0.072 C 
ATOM     11  C   UNL     1      -5.000   3.114  26.211  0.00  0.00    +0.184 C 
ATOM     12  C   UNL     1      -4.728   4.117  24.430  0.00  0.00    +0.184 C 
BRANCH   6   4
ATOM      4  N   UNL     1      -3.560   1.989  24.604  0.00  0.00    -0.306 NA
ATOM     26  H   UNL     1      -3.540   2.041  23.586  0.00  0.00    +0.123 HD
BRANCH   4   8
ATOM      8  C   UNL     1      -4.559   1.020  25.030  0.00  0.00    +0.085 C 
BRANCH   8   7
ATOM      7  C   UNL     1      -3.928  -0.356  25.236  0.00  0.00    +0.003 C 
ATOM      9  C   UNL     1      -4.337  -1.313  24.110  0.00  0.00    +0.005 C 
ATOM     10  C   UNL     1      -2.401  -0.242  25.330  0.00  0.00    +0.005 C 
ATOM     14  C   UNL     1      -3.676  -2.681  24.265  0.00  0.00    +0.000 C 
ATOM     15  C   UNL     1      -1.742  -1.613  25.482  0.00  0.00    +0.000 C 
ATOM     16  C   UNL     1      -2.159  -2.564  24.366  0.00  0.00    +0.000 C 
ENDBRANCH   8   7
ENDBRANCH   4   8
ENDBRANCH   6   4
ENDBRANCH  13   6
TORSDOF 7
ENDMDL
MODEL 2
REMARK VINA RESULT:      -5.6      1.444      6.085
REMARK  Name = 56775731
REMARK  7 active torsions:
REMARK  status: ('A' for Active; 'I' for Inactive)
REMARK    1  A    between atoms: O_3  and  C_23
REMARK    2  A    between atoms: N_4  and  C_6
REMARK    3  A    between atoms: N_4  and  C_8
REMARK    4  A    between atoms: C_6  and  C_13
REMARK    5  A    between atoms: C_7  and  C_8
REMARK    6  A    between atoms: C_13  and  C_17
REMARK    7  A    between atoms: C_19  and  C_20
REMARK                            x       y       z     vdW  Elec       q    Type
REMARK                         _______ _______ _______ _____ _____    ______ ____
ROOT
ATOM     13  C   UNL     1       1.132   2.125  23.537  0.00  0.00    +0.085 C 
ENDROOT
BRANCH  13  17
ATOM      2  O   UNL     1      -1.562   2.648  25.887  0.00  0.00    -0.354 OA
ATOM      5  N   UNL     1      -0.214   2.590  25.555  0.00  0.00    -0.083 NA
ATOM     17  C   UNL     1      -0.192   2.276  24.256  0.00  0.00    +0.086 A 
ATOM     18  C   UNL     1      -1.484   2.126  23.722  0.00  0.00    +0.076 A 
ATOM     19  C   UNL     1      -2.308   2.370  24.788  0.00  0.00    +0.168 A 
BRANCH  19  20
ATOM     20  C   UNL     1      -3.729   2.395  24.978  0.00  0.00    +0.023 A 
ATOM     21  C   UNL     1      -4.362   3.576  25.367  0.00  0.00    +0.057 A 
ATOM     22  C   UNL     1      -4.479   1.236  24.772  0.00  0.00    +0.012 A 
ATOM     23  C   UNL     1      -5.744   3.598  25.553  0.00  0.00    +0.118 A 
ATOM     24  C   UNL     1      -5.862   1.259  24.959  0.00  0.00    +0.004 A 
ATOM     25  C   UNL     1      -6.494   2.440  25.348  0.00  0.00    +0.045 A 
BRANCH  23   3
ATOM      3  O   UNL     1      -6.360   4.749  25.935  0.00  0.00    -0.507 OA
ATOM     27  H   UNL     1      -7.069   4.533  26.565  0.00  0.00    +0.292 HD
ENDBRANCH  23   3
ENDBRANCH  19  20
ENDBRANCH  13  17
BRANCH  13   6
ATOM      1  O   UNL     1       2.543  -0.228  21.729  0.00  0.00    -0.376 OA
ATOM      6  C   UNL     1       1.464   0.679  23.332  0.00  0.00    +0.072 C 
ATOM     11  C   UNL     1       1.145   0.030  21.990  0.00  0.00    +0.184 C 
ATOM     12  C   UNL     1       2.906   0.287  23.030  0.00  0.00    +0.184 C 
BRANCH   6   4
ATOM      4  N   UNL     1       0.955  -0.183  24.406  0.00  0.00    -0.306 NA
ATOM     26  H   UNL     1       1.666  -0.554  25.035  0.00  0.00    +0.123 HD
BRANCH   4   8
ATOM      8  C   UNL     1       0.188  -1.276  23.828  0.00  0.00    +0.085 C 
BRANCH   8   7
ATOM      7  C   UNL     1      -1.262  -1.234  24.306  0.00  0.00    +0.003 C 
ATOM      9  C   UNL     1      -1.987  -2.538  23.952  0.00  0.00    +0.005 C 
ATOM     10  C   UNL     1      -1.327  -0.965  25.815  0.00  0.00    +0.005 C 
ATOM     14  C   UNL     1      -3.425  -2.542  24.467  0.00  0.00    +0.000 C 
ATOM     15  C   UNL     1      -2.767  -0.972  26.327  0.00  0.00    +0.000 C 
ATOM     16  C   UNL     1      -3.486  -2.267  25.965  0.00  0.00    +0.000 C 
ENDBRANCH   8   7
ENDBRANCH   4   8
ENDBRANCH   6   4
ENDBRANCH  13   6
TORSDOF 7
ENDMDL
MODEL 3
REMARK VINA RESULT:      -4.7      1.855      2.483
REMARK  Name = 56775731
REMARK  7 active torsions:
REMARK  status: ('A' for Active; 'I' for Inactive)
REMARK    1  A    between atoms: O_3  and  C_23
REMARK    2  A    between atoms: N_4  and  C_6
REMARK    3  A    between atoms: N_4  and  C_8
REMARK    4  A    between atoms: C_6  and  C_13
REMARK    5  A    between atoms: C_7  and  C_8
REMARK    6  A    between atoms: C_13  and  C_17
REMARK    7  A    between atoms: C_19  and  C_20
REMARK                            x       y       z     vdW  Elec       q    Type
REMARK                         _______ _______ _______ _____ _____    ______ ____
ROOT
ATOM     13  C   UNL     1      -2.138   1.975  23.359  0.00  0.00    +0.085 C 
ENDROOT
BRANCH  13  17
ATOM      2  O   UNL     1       0.432  -0.537  23.732  0.00  0.00    -0.354 OA
ATOM      5  N   UNL     1      -0.894  -0.123  23.745  0.00  0.00    -0.083 NA
ATOM     17  C   UNL     1      -0.853   1.177  23.440  0.00  0.00    +0.086 A 
ATOM     18  C   UNL     1       0.459   1.634  23.227  0.00  0.00    +0.076 A 
ATOM     19  C   UNL     1       1.228   0.518  23.423  0.00  0.00    +0.168 A 
BRANCH  19  20
ATOM     20  C   UNL     1       2.634   0.243  23.370  0.00  0.00    +0.023 A 
ATOM     21  C   UNL     1       3.109  -1.030  23.685  0.00  0.00    +0.057 A 
ATOM     22  C   UNL     1       3.528   1.250  23.003  0.00  0.00    +0.012 A 
ATOM     23  C   UNL     1       4.478  -1.296  23.635  0.00  0.00    +0.118 A 
ATOM     24  C   UNL     1       4.897   0.983  22.954  0.00  0.00    +0.004 A 
ATOM     25  C   UNL     1       5.371  -0.290  23.269  0.00  0.00    +0.045 A 
BRANCH  23   3
ATOM      3  O   UNL     1       4.940  -2.538  23.945  0.00  0.00    -0.507 OA
ATOM     27  H   UNL     1       4.901  -3.096  23.148  0.00  0.00    +0.292 HD
ENDBRANCH  23   3
ENDBRANCH  19  20
ENDBRANCH  13  17
BRANCH  13   6
ATOM      1  O   UNL     1      -2.153   4.602  25.333  0.00  0.00    -0.376 OA
ATOM      6  C   UNL     1      -2.465   2.593  24.684  0.00  0.00    +0.072 C 
ATOM     11  C   UNL     1      -1.387   3.380  25.420  0.00  0.00    +0.184 C 
ATOM     12  C   UNL     1      -3.255   3.897  24.717  0.00  0.00    +0.184 C 
BRANCH   6   4
ATOM      4  N   UNL     1      -3.080   1.645  25.621  0.00  0.00    -0.306 NA
ATOM     26  H   UNL     1      -2.487   0.862  25.895  0.00  0.00    +0.123 HD
BRANCH   4   8
ATOM      8  C   UNL     1      -4.326   1.148  25.059  0.00  0.00    +0.085 C 
BRANCH   8   7
ATOM      7  C   UNL     1      -4.362  -0.380  25.081  0.00  0.00    +0.003 C 
ATOM      9  C   UNL     1      -4.292  -0.944  23.656  0.00  0.00    +0.005 C 
ATOM     10  C   UNL     1      -3.222  -0.935  25.945  0.00  0.00    +0.005 C 
ATOM     14  C   UNL     1      -4.272  -2.471  23.655  0.00  0.00    +0.000 C 
ATOM     15  C   UNL     1      -3.204  -2.462  25.940  0.00  0.00    +0.000 C 
ATOM     16  C   UNL     1      -3.143  -3.019  24.522  0.00  0.00    +0.000 C 
ENDBRANCH   8   7
ENDBRANCH   4   8
ENDBRANCH   6   4
ENDBRANCH  13   6
TORSDOF 7
ENDMDL
MODEL 4
REMARK VINA RESULT:      -4.7      1.535      6.087
REMARK  Name = 56775731
REMARK  7 active torsions:
REMARK  status: ('A' for Active; 'I' for Inactive)
REMARK    1  A    between atoms: O_3  and  C_23
REMARK    2  A    between atoms: N_4  and  C_6
REMARK    3  A    between atoms: N_4  and  C_8
REMARK    4  A    between atoms: C_6  and  C_13
REMARK    5  A    between atoms: C_7  and  C_8
REMARK    6  A    between atoms: C_13  and  C_17
REMARK    7  A    between atoms: C_19  and  C_20
REMARK                            x       y       z     vdW  Elec       q    Type
REMARK                         _______ _______ _______ _____ _____    ______ ____
ROOT
ATOM     13  C   UNL     1       1.452   1.948  23.537  0.00  0.00    +0.085 C 
ENDROOT
BRANCH  13  17
ATOM      2  O   UNL     1      -1.093   2.637  26.007  0.00  0.00    -0.354 OA
ATOM      5  N   UNL     1       0.222   2.389  25.632  0.00  0.00    -0.083 NA
ATOM     17  C   UNL     1       0.179   2.236  24.305  0.00  0.00    +0.086 A 
ATOM     18  C   UNL     1      -1.122   2.375  23.794  0.00  0.00    +0.076 A 
ATOM     19  C   UNL     1      -1.884   2.626  24.904  0.00  0.00    +0.168 A 
BRANCH  19  20
ATOM     20  C   UNL     1      -3.278   2.871  25.135  0.00  0.00    +0.023 A 
ATOM     21  C   UNL     1      -4.225   1.918  24.761  0.00  0.00    +0.057 A 
ATOM     22  C   UNL     1      -3.686   4.064  25.734  0.00  0.00    +0.012 A 
ATOM     23  C   UNL     1      -5.582   2.159  24.984  0.00  0.00    +0.118 A 
ATOM     24  C   UNL     1      -5.042   4.303  25.956  0.00  0.00    +0.004 A 
ATOM     25  C   UNL     1      -5.990   3.350  25.582  0.00  0.00    +0.045 A 
BRANCH  23   3
ATOM      3  O   UNL     1      -6.505   1.229  24.617  0.00  0.00    -0.507 OA
ATOM     27  H   UNL     1      -6.043   0.421  24.335  0.00  0.00    +0.292 HD
ENDBRANCH  23   3
ENDBRANCH  19  20
ENDBRANCH  13  17
BRANCH  13   6
ATOM      1  O   UNL     1       2.598  -0.503  21.673  0.00  0.00    -0.376 OA
ATOM      6  C   UNL     1       1.600   0.479  23.283  0.00  0.00    +0.072 C 
ATOM     11  C   UNL     1       1.239  -0.074  21.909  0.00  0.00    +0.184 C 
ATOM     12  C   UNL     1       2.987  -0.087  23.001  0.00  0.00    +0.184 C 
BRANCH   6   4
ATOM      4  N   UNL     1       0.952  -0.347  24.309  0.00  0.00    -0.306 NA
ATOM     26  H   UNL     1       1.588  -0.800  24.964  0.00  0.00    +0.123 HD
BRANCH   4   8
ATOM      8  C   UNL     1       0.110  -1.345  23.667  0.00  0.00    +0.085 C 
BRANCH   8   7
ATOM      7  C   UNL     1      -1.326  -1.257  24.182  0.00  0.00    +0.003 C 
ATOM      9  C   UNL     1      -2.062  -2.585  23.963  0.00  0.00    +0.005 C 
ATOM     10  C   UNL     1      -1.346  -0.859  25.663  0.00  0.00    +0.005 C 
ATOM     14  C   UNL     1      -3.484  -2.540  24.519  0.00  0.00    +0.000 C 
ATOM     15  C   UNL     1      -2.770  -0.817  26.216  0.00  0.00    +0.000 C 
ATOM     16  C   UNL     1      -3.501  -2.136  25.989  0.00  0.00    +0.000 C 
ENDBRANCH   8   7
ENDBRANCH   4   8
ENDBRANCH   6   4
ENDBRANCH  13   6
TORSDOF 7
ENDMDL
MODEL 5
REMARK VINA RESULT:      -2.4      2.044      7.051
REMARK  Name = 56775731
REMARK  7 active torsions:
REMARK  status: ('A' for Active; 'I' for Inactive)
REMARK    1  A    between atoms: O_3  and  C_23
REMARK    2  A    between atoms: N_4  and  C_6
REMARK    3  A    between atoms: N_4  and  C_8
REMARK    4  A    between atoms: C_6  and  C_13
REMARK    5  A    between atoms: C_7  and  C_8
REMARK    6  A    between atoms: C_13  and  C_17
REMARK    7  A    between atoms: C_19  and  C_20
REMARK                            x       y       z     vdW  Elec       q    Type
REMARK                         _______ _______ _______ _____ _____    ______ ____
ROOT
ATOM     13  C   UNL     1      -0.260  -1.502  23.726  0.00  0.00    +0.085 C 
ENDROOT
BRANCH  13  17
ATOM      2  O   UNL     1      -3.447  -0.959  25.338  0.00  0.00    -0.354 OA
ATOM      5  N   UNL     1      -2.360  -1.756  25.000  0.00  0.00    -0.083 NA
ATOM     17  C   UNL     1      -1.564  -0.964  24.275  0.00  0.00    +0.086 A 
ATOM     18  C   UNL     1      -2.092   0.330  24.125  0.00  0.00    +0.076 A 
ATOM     19  C   UNL     1      -3.277   0.280  24.812  0.00  0.00    +0.168 A 
BRANCH  19  20
ATOM     20  C   UNL     1      -4.325   1.221  25.080  0.00  0.00    +0.023 A 
ATOM     21  C   UNL     1      -5.279   0.943  26.059  0.00  0.00    +0.057 A 
ATOM     22  C   UNL     1      -4.391   2.415  24.361  0.00  0.00    +0.012 A 
ATOM     23  C   UNL     1      -6.300   1.858  26.318  0.00  0.00    +0.118 A 
ATOM     24  C   UNL     1      -5.412   3.329  24.621  0.00  0.00    +0.004 A 
ATOM     25  C   UNL     1      -6.366   3.051  25.600  0.00  0.00    +0.045 A 
BRANCH  23   3
ATOM      3  O   UNL     1      -7.231   1.584  27.272  0.00  0.00    -0.507 OA
ATOM     27  H   UNL     1      -6.822   1.036  27.963  0.00  0.00    +0.292 HD
ENDBRANCH  23   3
ENDBRANCH  19  20
ENDBRANCH  13  17
BRANCH  13   6
ATOM      1  O   UNL     1       2.243  -0.172  22.064  0.00  0.00    -0.376 OA
ATOM      6  C   UNL     1       0.746  -0.403  23.566  0.00  0.00    +0.072 C 
ATOM     11  C   UNL     1       2.215  -0.765  23.381  0.00  0.00    +0.184 C 
ATOM     12  C   UNL     1       0.879   0.285  22.213  0.00  0.00    +0.184 C 
BRANCH   6   4
ATOM      4  N   UNL     1       0.640   0.624  24.611  0.00  0.00    -0.306 NA
ATOM     26  H   UNL     1      -0.217   0.594  25.161  0.00  0.00    +0.123 HD
BRANCH   4   8
ATOM      8  C   UNL     1       0.797   1.940  24.012  0.00  0.00    +0.085 C 
BRANCH   8   7
ATOM      7  C   UNL     1       0.146   3.014  24.882  0.00  0.00    +0.003 C 
ATOM      9  C   UNL     1      -0.473   4.115  24.011  0.00  0.00    +0.005 C 
ATOM     10  C   UNL     1      -0.907   2.394  25.810  0.00  0.00    +0.005 C 
ATOM     14  C   UNL     1      -1.177   5.174  24.857  0.00  0.00    +0.000 C 
ATOM     15  C   UNL     1      -1.611   3.456  26.653  0.00  0.00    +0.000 C 
ATOM     16  C   UNL     1      -2.217   4.553  25.784  0.00  0.00    +0.000 C 
ENDBRANCH   8   7
ENDBRANCH   4   8
ENDBRANCH   6   4
ENDBRANCH  13   6
TORSDOF 7
ENDMDL
MODEL 6
REMARK VINA RESULT:      -2.4      2.438      5.419
REMARK  Name = 56775731
REMARK  7 active torsions:
REMARK  status: ('A' for Active; 'I' for Inactive)
REMARK    1  A    between atoms: O_3  and  C_23
REMARK    2  A    between atoms: N_4  and  C_6
REMARK    3  A    between atoms: N_4  and  C_8
REMARK    4  A    between atoms: C_6  and  C_13
REMARK    5  A    between atoms: C_7  and  C_8
REMARK    6  A    between atoms: C_13  and  C_17
REMARK    7  A    between atoms: C_19  and  C_20
REMARK                            x       y       z     vdW  Elec       q    Type
REMARK                         _______ _______ _______ _____ _____    ______ ____
ROOT
ATOM     13  C   UNL     1      -1.044  -1.988  24.579  0.00  0.00    +0.085 C 
ENDROOT
BRANCH  13  17
ATOM      2  O   UNL     1       0.341   1.276  23.882  0.00  0.00    -0.354 OA
ATOM      5  N   UNL     1       0.361  -0.111  23.802  0.00  0.00    -0.083 NA
ATOM     17  C   UNL     1      -0.732  -0.511  24.459  0.00  0.00    +0.086 A 
ATOM     18  C   UNL     1      -1.472   0.570  24.970  0.00  0.00    +0.076 A 
ATOM     19  C   UNL     1      -0.755   1.669  24.580  0.00  0.00    +0.168 A 
BRANCH  19  20
ATOM     20  C   UNL     1      -0.913   3.085  24.745  0.00  0.00    +0.023 A 
ATOM     21  C   UNL     1      -1.920   3.584  25.571  0.00  0.00    +0.057 A 
ATOM     22  C   UNL     1      -0.059   3.964  24.078  0.00  0.00    +0.012 A 
ATOM     23  C   UNL     1      -2.075   4.961  25.729  0.00  0.00    +0.118 A 
ATOM     24  C   UNL     1      -0.214   5.341  24.236  0.00  0.00    +0.004 A 
ATOM     25  C   UNL     1      -1.221   5.840  25.063  0.00  0.00    +0.045 A 
BRANCH  23   3
ATOM      3  O   UNL     1      -3.059   5.447  26.534  0.00  0.00    -0.507 OA
ATOM     27  H   UNL     1      -2.651   5.953  27.258  0.00  0.00    +0.292 HD
ENDBRANCH  23   3
ENDBRANCH  19  20
ENDBRANCH  13  17
BRANCH  13   6
ATOM      1  O   UNL     1      -3.687  -3.817  25.259  0.00  0.00    -0.376 OA
ATOM      6  C   UNL     1      -2.515  -2.235  24.437  0.00  0.00    +0.072 C 
ATOM     11  C   UNL     1      -2.995  -3.616  24.006  0.00  0.00    +0.184 C 
ATOM     12  C   UNL     1      -3.347  -2.480  25.691  0.00  0.00    +0.184 C 
BRANCH   6   4
ATOM      4  N   UNL     1      -3.188  -1.222  23.614  0.00  0.00    -0.306 NA
ATOM     26  H   UNL     1      -2.632  -0.393  23.408  0.00  0.00    +0.123 HD
BRANCH   4   8
ATOM      8  C   UNL     1      -4.437  -0.834  24.250  0.00  0.00    +0.085 C 
BRANCH   8   7
ATOM      7  C   UNL     1      -4.380   0.619  24.719  0.00  0.00    +0.003 C 
ATOM      9  C   UNL     1      -4.305   1.572  23.519  0.00  0.00    +0.005 C 
ATOM     10  C   UNL     1      -5.588   0.950  25.605  0.00  0.00    +0.005 C 
ATOM     14  C   UNL     1      -4.301   3.034  23.960  0.00  0.00    +0.000 C 
ATOM     15  C   UNL     1      -5.582   2.414  26.042  0.00  0.00    +0.000 C 
ATOM     16  C   UNL     1      -5.498   3.358  24.847  0.00  0.00    +0.000 C 
ENDBRANCH   8   7
ENDBRANCH   4   8
ENDBRANCH   6   4
ENDBRANCH  13   6
TORSDOF 7
ENDMDL
MODEL 7
REMARK VINA RESULT:      -2.1      1.797      3.865
REMARK  Name = 56775731
REMARK  7 active torsions:
REMARK  status: ('A' for Active; 'I' for Inactive)
REMARK    1  A    between atoms: O_3  and  C_23
REMARK    2  A    between atoms: N_4  and  C_6
REMARK    3  A    between atoms: N_4  and  C_8
REMARK    4  A    between atoms: C_6  and  C_13
REMARK    5  A    between atoms: C_7  and  C_8
REMARK    6  A    between atoms: C_13  and  C_17
REMARK    7  A    between atoms: C_19  and  C_20
REMARK                            x       y       z     vdW  Elec       q    Type
REMARK                         _______ _______ _______ _____ _____    ______ ____
ROOT
ATOM     13  C   UNL     1      -2.636  -0.850  25.922  0.00  0.00    +0.085 C 
ENDROOT
BRANCH  13  17
ATOM      2  O   UNL     1       0.219   1.124  24.922  0.00  0.00    -0.354 OA
ATOM      5  N   UNL     1      -0.929   0.917  25.676  0.00  0.00    -0.083 NA
ATOM     17  C   UNL     1      -1.378  -0.284  25.299  0.00  0.00    +0.086 A 
ATOM     18  C   UNL     1      -0.561  -0.875  24.319  0.00  0.00    +0.076 A 
ATOM     19  C   UNL     1       0.428   0.051  24.118  0.00  0.00    +0.168 A 
BRANCH  19  20
ATOM     20  C   UNL     1       1.587   0.119  23.276  0.00  0.00    +0.023 A 
ATOM     21  C   UNL     1       2.812   0.525  23.805  0.00  0.00    +0.057 A 
ATOM     22  C   UNL     1       1.488  -0.220  21.926  0.00  0.00    +0.012 A 
ATOM     23  C   UNL     1       3.938   0.593  22.984  0.00  0.00    +0.118 A 
ATOM     24  C   UNL     1       2.614  -0.151  21.106  0.00  0.00    +0.004 A 
ATOM     25  C   UNL     1       3.839   0.254  21.635  0.00  0.00    +0.045 A 
BRANCH  23   3
ATOM      3  O   UNL     1       5.132   0.991  23.500  0.00  0.00    -0.507 OA
ATOM     27  H   UNL     1       5.002   1.252  24.429  0.00  0.00    +0.292 HD
ENDBRANCH  23   3
ENDBRANCH  19  20
ENDBRANCH  13  17
BRANCH  13   6
ATOM      1  O   UNL     1      -4.153  -1.760  23.153  0.00  0.00    -0.376 OA
ATOM      6  C   UNL     1      -3.798  -0.725  24.985  0.00  0.00    +0.072 C 
ATOM     11  C   UNL     1      -3.531  -0.502  23.501  0.00  0.00    +0.184 C 
ATOM     12  C   UNL     1      -4.522  -1.988  24.532  0.00  0.00    +0.184 C 
BRANCH   6   4
ATOM      4  N   UNL     1      -4.794   0.254  25.437  0.00  0.00    -0.306 NA
ATOM     26  H   UNL     1      -5.755  -0.085  25.457  0.00  0.00    +0.123 HD
BRANCH   4   8
ATOM      8  C   UNL     1      -4.709   1.449  24.611  0.00  0.00    +0.085 C 
BRANCH   8   7
ATOM      7  C   UNL     1      -3.566   2.350  25.074  0.00  0.00    +0.003 C 
ATOM      9  C   UNL     1      -2.799   2.914  23.871  0.00  0.00    +0.005 C 
ATOM     10  C   UNL     1      -4.095   3.481  25.964  0.00  0.00    +0.005 C 
ATOM     14  C   UNL     1      -1.684   3.861  24.306  0.00  0.00    +0.000 C 
ATOM     15  C   UNL     1      -2.977   4.428  26.397  0.00  0.00    +0.000 C 
ATOM     16  C   UNL     1      -2.211   4.979  25.198  0.00  0.00    +0.000 C 
ENDBRANCH   8   7
ENDBRANCH   4   8
ENDBRANCH   6   4
ENDBRANCH  13   6
TORSDOF 7
ENDMDL
