MODEL 1
REMARK VINA RESULT:       1.7      0.000      0.000
REMARK  Name = 11884149
REMARK  7 active torsions:
REMARK  status: ('A' for Active; 'I' for Inactive)
REMARK    1  A    between atoms: O_3  and  C_13
REMARK    2  A    between atoms: O_3  and  C_17
REMARK    3  A    between atoms: N_8  and  C_12
REMARK    4  A    between atoms: N_9  and  C_20
REMARK    5  A    between atoms: C_16  and  C_18
REMARK    6  A    between atoms: C_27  and  C_28
REMARK    7  A    between atoms: C_28  and  C_29
REMARK                            x       y       z     vdW  Elec       q    Type
REMARK                         _______ _______ _______ _____ _____    ______ ____
ROOT
ATOM      1  O   UNL     1      -0.766   1.621  25.014  0.00  0.00    -0.368 OA
ATOM      2  O   UNL     1      -0.414   4.279  23.525  0.00  0.00    -0.368 OA
ATOM     10  C   UNL     1       0.542   3.409  24.164  0.00  0.00    +0.173 C 
ATOM     11  C   UNL     1      -0.132   2.851  25.403  0.00  0.00    +0.192 C 
ATOM     12  C   UNL     1       0.789   2.189  23.306  0.00  0.00    +0.130 C 
ATOM     13  C   UNL     1      -1.142   3.922  25.734  0.00  0.00    +0.235 C 
ATOM     14  C   UNL     1      -0.388   1.299  23.667  0.00  0.00    +0.185 C 
ATOM     15  C   UNL     1      -1.575   4.389  24.363  0.00  0.00    +0.207 C 
ENDROOT
BRANCH  12   8
ATOM      4  O   UNL     1       1.987   0.057  21.903  0.00  0.00    -0.267 OA
ATOM      8  N   UNL     1       2.043   1.560  23.639  0.00  0.00    -0.301 N 
ATOM     16  C   UNL     1       2.569   0.506  22.891  0.00  0.00    +0.280 C 
ATOM     30  H   UNL     1       2.583   1.931  24.416  0.00  0.00    +0.150 HD
BRANCH  16  18
ATOM      6  O   UNL     1       3.912  -1.301  23.671  0.00  0.00    -0.458 OA
ATOM     18  C   UNL     1       3.872  -0.007  23.336  0.00  0.00    +0.189 A 
ATOM     19  C   UNL     1       5.053   0.624  23.463  0.00  0.00    +0.054 A 
ATOM     21  C   UNL     1       5.943  -0.373  23.929  0.00  0.00    +0.042 A 
ATOM     22  C   UNL     1       5.202  -1.526  24.038  0.00  0.00    +0.196 A 
ENDBRANCH  16  18
ENDBRANCH  12   8
BRANCH  13   3
ATOM      3  O   UNL     1      -2.228   3.453  26.502  0.00  0.00    -0.442 OA
BRANCH   3  17
ATOM      5  O   UNL     1      -4.212   2.912  25.502  0.00  0.00    -0.226 OA
ATOM      9  N   UNL     1      -2.506   1.333  25.782  0.00  0.00    -0.251 N 
ATOM     17  C   UNL     1      -3.097   2.578  25.883  0.00  0.00    +0.405 C 
ATOM     31  H   UNL     1      -1.566   1.252  26.160  0.00  0.00    +0.158 HD
BRANCH   9  20
ATOM     20  C   UNL     1      -3.048   0.156  25.218  0.00  0.00    +0.036 A 
ATOM     23  C   UNL     1      -3.861   0.250  24.099  0.00  0.00    +0.024 A 
ATOM     24  C   UNL     1      -2.756  -1.069  25.795  0.00  0.00    +0.024 A 
ATOM     25  C   UNL     1      -4.395  -0.912  23.542  0.00  0.00    +0.013 A 
ATOM     26  C   UNL     1      -3.290  -2.232  25.239  0.00  0.00    +0.013 A 
ATOM     27  C   UNL     1      -4.110  -2.153  24.113  0.00  0.00    +0.017 A 
BRANCH  27  28
ATOM      7  O   UNL     1      -5.882  -3.463  23.272  0.00  0.00    -0.292 OA
ATOM     28  C   UNL     1      -4.666  -3.365  23.533  0.00  0.00    +0.160 C 
ATOM     29  C   UNL     1      -3.764  -4.557  23.228  0.00  0.00    +0.091 C 
ENDBRANCH  27  28
ENDBRANCH   9  20
ENDBRANCH   3  17
ENDBRANCH  13   3
TORSDOF 6
ENDMDL
MODEL 2
REMARK VINA RESULT:       2.0      2.049      5.613
REMARK  Name = 11884149
REMARK  7 active torsions:
REMARK  status: ('A' for Active; 'I' for Inactive)
REMARK    1  A    between atoms: O_3  and  C_13
REMARK    2  A    between atoms: O_3  and  C_17
REMARK    3  A    between atoms: N_8  and  C_12
REMARK    4  A    between atoms: N_9  and  C_20
REMARK    5  A    between atoms: C_16  and  C_18
REMARK    6  A    between atoms: C_27  and  C_28
REMARK    7  A    between atoms: C_28  and  C_29
REMARK                            x       y       z     vdW  Elec       q    Type
REMARK                         _______ _______ _______ _____ _____    ______ ____
ROOT
ATOM      1  O   UNL     1      -2.631  -0.635  25.549  0.00  0.00    -0.368 OA
ATOM      2  O   UNL     1      -2.548  -3.506  24.473  0.00  0.00    -0.368 OA
ATOM     10  C   UNL     1      -1.739  -2.349  24.173  0.00  0.00    +0.173 C 
ATOM     11  C   UNL     1      -2.663  -1.148  24.207  0.00  0.00    +0.192 C 
ATOM     12  C   UNL     1      -0.766  -2.089  25.300  0.00  0.00    +0.130 C 
ATOM     13  C   UNL     1      -4.003  -1.756  23.872  0.00  0.00    +0.235 C 
ATOM     14  C   UNL     1      -1.625  -1.334  26.299  0.00  0.00    +0.185 C 
ATOM     15  C   UNL     1      -3.923  -3.102  24.557  0.00  0.00    +0.207 C 
ENDROOT
BRANCH  12   8
ATOM      4  O   UNL     1      -0.422  -1.043  22.704  0.00  0.00    -0.267 OA
ATOM      8  N   UNL     1       0.348  -1.289  24.855  0.00  0.00    -0.301 N 
ATOM     16  C   UNL     1       0.443  -0.808  23.548  0.00  0.00    +0.280 C 
ATOM     30  H   UNL     1       1.060  -1.026  25.530  0.00  0.00    +0.150 HD
BRANCH  16  18
ATOM      6  O   UNL     1       2.673  -0.614  22.729  0.00  0.00    -0.458 OA
ATOM     18  C   UNL     1       1.621   0.021  23.255  0.00  0.00    +0.189 A 
ATOM     19  C   UNL     1       1.815   1.341  23.433  0.00  0.00    +0.054 A 
ATOM     21  C   UNL     1       3.133   1.573  22.972  0.00  0.00    +0.042 A 
ATOM     22  C   UNL     1       3.612   0.353  22.553  0.00  0.00    +0.196 A 
ENDBRANCH  16  18
ENDBRANCH  12   8
BRANCH  13   3
ATOM      3  O   UNL     1      -5.097  -0.994  24.327  0.00  0.00    -0.442 OA
BRANCH   3  17
ATOM      5  O   UNL     1      -5.455   0.769  25.739  0.00  0.00    -0.226 OA
ATOM      9  N   UNL     1      -3.752   0.807  24.133  0.00  0.00    -0.251 N 
ATOM     17  C   UNL     1      -4.819   0.263  24.823  0.00  0.00    +0.405 C 
ATOM     31  H   UNL     1      -3.352   0.228  23.399  0.00  0.00    +0.158 HD
BRANCH   9  20
ATOM     20  C   UNL     1      -3.148   2.071  24.320  0.00  0.00    +0.036 A 
ATOM     23  C   UNL     1      -1.767   2.157  24.401  0.00  0.00    +0.024 A 
ATOM     24  C   UNL     1      -3.947   3.198  24.417  0.00  0.00    +0.024 A 
ATOM     25  C   UNL     1      -1.169   3.405  24.585  0.00  0.00    +0.013 A 
ATOM     26  C   UNL     1      -3.350   4.446  24.600  0.00  0.00    +0.013 A 
ATOM     27  C   UNL     1      -1.962   4.549  24.685  0.00  0.00    +0.017 A 
BRANCH  27  28
ATOM      7  O   UNL     1      -1.990   6.827  25.294  0.00  0.00    -0.292 OA
ATOM     28  C   UNL     1      -1.339   5.849  24.875  0.00  0.00    +0.160 C 
ATOM     29  C   UNL     1       0.140   6.047  24.561  0.00  0.00    +0.091 C 
ENDBRANCH  27  28
ENDBRANCH   9  20
ENDBRANCH   3  17
ENDBRANCH  13   3
TORSDOF 6
ENDMDL
MODEL 3
REMARK VINA RESULT:       2.6      1.884      2.985
REMARK  Name = 11884149
REMARK  7 active torsions:
REMARK  status: ('A' for Active; 'I' for Inactive)
REMARK    1  A    between atoms: O_3  and  C_13
REMARK    2  A    between atoms: O_3  and  C_17
REMARK    3  A    between atoms: N_8  and  C_12
REMARK    4  A    between atoms: N_9  and  C_20
REMARK    5  A    between atoms: C_16  and  C_18
REMARK    6  A    between atoms: C_27  and  C_28
REMARK    7  A    between atoms: C_28  and  C_29
REMARK                            x       y       z     vdW  Elec       q    Type
REMARK                         _______ _______ _______ _____ _____    ______ ____
ROOT
ATOM      1  O   UNL     1      -3.382   3.287  24.211  0.00  0.00    -0.368 OA
ATOM      2  O   UNL     1      -2.452   5.457  26.169  0.00  0.00    -0.368 OA
ATOM     10  C   UNL     1      -1.865   4.194  25.794  0.00  0.00    +0.173 C 
ATOM     11  C   UNL     1      -3.010   3.219  25.598  0.00  0.00    +0.192 C 
ATOM     12  C   UNL     1      -1.240   4.298  24.421  0.00  0.00    +0.130 C 
ATOM     13  C   UNL     1      -4.082   3.790  26.494  0.00  0.00    +0.235 C 
ATOM     14  C   UNL     1      -2.438   4.108  23.507  0.00  0.00    +0.185 C 
ATOM     15  C   UNL     1      -3.866   5.279  26.341  0.00  0.00    +0.207 C 
ENDROOT
BRANCH  12   8
ATOM      4  O   UNL     1      -1.679   1.838  23.116  0.00  0.00    -0.267 OA
ATOM      8  N   UNL     1      -0.255   3.266  24.216  0.00  0.00    -0.301 N 
ATOM     16  C   UNL     1      -0.554   2.072  23.558  0.00  0.00    +0.280 C 
ATOM     30  H   UNL     1       0.700   3.437  24.517  0.00  0.00    +0.150 HD
BRANCH  16  18
ATOM      6  O   UNL     1       1.792   1.656  23.490  0.00  0.00    -0.458 OA
ATOM     18  C   UNL     1       0.565   1.133  23.397  0.00  0.00    +0.189 A 
ATOM     19  C   UNL     1       0.556  -0.193  23.168  0.00  0.00    +0.054 A 
ATOM     21  C   UNL     1       1.922  -0.556  23.107  0.00  0.00    +0.042 A 
ATOM     22  C   UNL     1       2.634   0.604  23.310  0.00  0.00    +0.196 A 
ENDBRANCH  16  18
ENDBRANCH  12   8
BRANCH  13   3
ATOM      3  O   UNL     1      -5.387   3.403  26.128  0.00  0.00    -0.442 OA
BRANCH   3  17
ATOM      5  O   UNL     1      -6.539   1.853  24.903  0.00  0.00    -0.226 OA
ATOM      9  N   UNL     1      -4.367   1.443  25.674  0.00  0.00    -0.251 N 
ATOM     17  C   UNL     1      -5.523   2.180  25.504  0.00  0.00    +0.405 C 
ATOM     31  H   UNL     1      -3.625   1.889  26.207  0.00  0.00    +0.158 HD
BRANCH   9  20
ATOM     20  C   UNL     1      -4.086   0.142  25.199  0.00  0.00    +0.036 A 
ATOM     23  C   UNL     1      -3.560  -0.800  26.070  0.00  0.00    +0.024 A 
ATOM     24  C   UNL     1      -4.341  -0.167  23.873  0.00  0.00    +0.024 A 
ATOM     25  C   UNL     1      -3.284  -2.085  25.601  0.00  0.00    +0.013 A 
ATOM     26  C   UNL     1      -4.066  -1.452  23.404  0.00  0.00    +0.013 A 
ATOM     27  C   UNL     1      -3.536  -2.410  24.268  0.00  0.00    +0.017 A 
BRANCH  27  28
ATOM      7  O   UNL     1      -4.106  -4.654  23.816  0.00  0.00    -0.292 OA
ATOM     28  C   UNL     1      -3.248  -3.750  23.779  0.00  0.00    +0.160 C 
ATOM     29  C   UNL     1      -1.874  -4.081  23.208  0.00  0.00    +0.091 C 
ENDBRANCH  27  28
ENDBRANCH   9  20
ENDBRANCH   3  17
ENDBRANCH  13   3
TORSDOF 6
ENDMDL
MODEL 4
REMARK VINA RESULT:       3.0      1.903      6.257
REMARK  Name = 11884149
REMARK  7 active torsions:
REMARK  status: ('A' for Active; 'I' for Inactive)
REMARK    1  A    between atoms: O_3  and  C_13
REMARK    2  A    between atoms: O_3  and  C_17
REMARK    3  A    between atoms: N_8  and  C_12
REMARK    4  A    between atoms: N_9  and  C_20
REMARK    5  A    between atoms: C_16  and  C_18
REMARK    6  A    between atoms: C_27  and  C_28
REMARK    7  A    between atoms: C_28  and  C_29
REMARK                            x       y       z     vdW  Elec       q    Type
REMARK                         _______ _______ _______ _____ _____    ______ ____
ROOT
ATOM      1  O   UNL     1      -3.501   2.202  25.936  0.00  0.00    -0.368 OA
ATOM      2  O   UNL     1      -6.289   3.075  25.001  0.00  0.00    -0.368 OA
ATOM     10  C   UNL     1      -5.384   2.069  24.500  0.00  0.00    +0.173 C 
ATOM     11  C   UNL     1      -3.982   2.625  24.649  0.00  0.00    +0.192 C 
ATOM     12  C   UNL     1      -5.394   0.862  25.411  0.00  0.00    +0.130 C 
ATOM     13  C   UNL     1      -4.216   4.116  24.601  0.00  0.00    +0.235 C 
ATOM     14  C   UNL     1      -4.442   1.286  26.516  0.00  0.00    +0.185 C 
ATOM     15  C   UNL     1      -5.537   4.255  25.323  0.00  0.00    +0.207 C 
ENDROOT
BRANCH  12   8
ATOM      4  O   UNL     1      -3.262  -0.780  26.255  0.00  0.00    -0.267 OA
ATOM      8  N   UNL     1      -4.913  -0.313  24.727  0.00  0.00    -0.301 N 
ATOM     16  C   UNL     1      -3.848  -1.073  25.212  0.00  0.00    +0.280 C 
ATOM     30  H   UNL     1      -5.399  -0.623  23.890  0.00  0.00    +0.150 HD
BRANCH  16  18
ATOM      6  O   UNL     1      -2.193  -2.543  24.330  0.00  0.00    -0.458 OA
ATOM     18  C   UNL     1      -3.497  -2.261  24.421  0.00  0.00    +0.189 A 
ATOM     19  C   UNL     1      -4.287  -3.127  23.762  0.00  0.00    +0.054 A 
ATOM     21  C   UNL     1      -3.394  -4.062  23.188  0.00  0.00    +0.042 A 
ATOM     22  C   UNL     1      -2.132  -3.664  23.563  0.00  0.00    +0.196 A 
ENDBRANCH  16  18
ENDBRANCH  12   8
BRANCH  13   3
ATOM      3  O   UNL     1      -3.193   4.865  25.217  0.00  0.00    -0.442 OA
BRANCH   3  17
ATOM      5  O   UNL     1      -0.962   5.308  24.980  0.00  0.00    -0.226 OA
ATOM      9  N   UNL     1      -1.847   3.184  24.548  0.00  0.00    -0.251 N 
ATOM     17  C   UNL     1      -1.894   4.515  24.915  0.00  0.00    +0.405 C 
ATOM     31  H   UNL     1      -2.733   2.686  24.555  0.00  0.00    +0.158 HD
BRANCH   9  20
ATOM     20  C   UNL     1      -0.718   2.426  24.162  0.00  0.00    +0.036 A 
ATOM     23  C   UNL     1      -0.886   1.104  23.781  0.00  0.00    +0.024 A 
ATOM     24  C   UNL     1       0.534   3.019  24.173  0.00  0.00    +0.024 A 
ATOM     25  C   UNL     1       0.228   0.356  23.399  0.00  0.00    +0.013 A 
ATOM     26  C   UNL     1       1.648   2.272  23.791  0.00  0.00    +0.013 A 
ATOM     27  C   UNL     1       1.495   0.940  23.405  0.00  0.00    +0.017 A 
BRANCH  27  28
ATOM      7  O   UNL     1       2.617  -1.085  22.954  0.00  0.00    -0.292 OA
ATOM     28  C   UNL     1       2.657   0.160  23.007  0.00  0.00    +0.160 C 
ATOM     29  C   UNL     1       3.964   0.858  22.643  0.00  0.00    +0.091 C 
ENDBRANCH  27  28
ENDBRANCH   9  20
ENDBRANCH   3  17
ENDBRANCH  13   3
TORSDOF 6
ENDMDL
MODEL 5
REMARK VINA RESULT:       3.1      2.608      7.823
REMARK  Name = 11884149
REMARK  7 active torsions:
REMARK  status: ('A' for Active; 'I' for Inactive)
REMARK    1  A    between atoms: O_3  and  C_13
REMARK    2  A    between atoms: O_3  and  C_17
REMARK    3  A    between atoms: N_8  and  C_12
REMARK    4  A    between atoms: N_9  and  C_20
REMARK    5  A    between atoms: C_16  and  C_18
REMARK    6  A    between atoms: C_27  and  C_28
REMARK    7  A    between atoms: C_28  and  C_29
REMARK                            x       y       z     vdW  Elec       q    Type
REMARK                         _______ _______ _______ _____ _____    ______ ____
ROOT
ATOM      1  O   UNL     1      -2.172  -0.684  23.767  0.00  0.00    -0.368 OA
ATOM      2  O   UNL     1      -3.382  -3.316  24.776  0.00  0.00    -0.368 OA
ATOM     10  C   UNL     1      -3.569  -1.952  25.205  0.00  0.00    +0.173 C 
ATOM     11  C   UNL     1      -2.224  -1.264  25.081  0.00  0.00    +0.192 C 
ATOM     12  C   UNL     1      -4.446  -1.213  24.220  0.00  0.00    +0.130 C 
ATOM     13  C   UNL     1      -1.255  -2.412  25.225  0.00  0.00    +0.235 C 
ATOM     14  C   UNL     1      -3.455  -0.824  23.137  0.00  0.00    +0.185 C 
ATOM     15  C   UNL     1      -1.985  -3.536  24.524  0.00  0.00    +0.207 C 
ENDROOT
BRANCH  12   8
ATOM      4  O   UNL     1      -3.756   1.467  23.678  0.00  0.00    -0.267 OA
ATOM      8  N   UNL     1      -5.046  -0.050  24.825  0.00  0.00    -0.301 N 
ATOM     16  C   UNL     1      -4.646   1.247  24.501  0.00  0.00    +0.280 C 
ATOM     30  H   UNL     1      -5.819  -0.180  25.471  0.00  0.00    +0.150 HD
BRANCH  16  18
ATOM      6  O   UNL     1      -4.959   3.574  24.915  0.00  0.00    -0.458 OA
ATOM     18  C   UNL     1      -5.375   2.330  25.177  0.00  0.00    +0.189 A 
ATOM     19  C   UNL     1      -6.413   2.273  26.030  0.00  0.00    +0.054 A 
ATOM     21  C   UNL     1      -6.689   3.624  26.349  0.00  0.00    +0.042 A 
ATOM     22  C   UNL     1      -5.778   4.376  25.645  0.00  0.00    +0.196 A 
ENDBRANCH  16  18
ENDBRANCH  12   8
BRANCH  13   3
ATOM      3  O   UNL     1       0.007  -2.159  24.650  0.00  0.00    -0.442 OA
BRANCH   3  17
ATOM      5  O   UNL     1       1.100  -0.568  23.425  0.00  0.00    -0.226 OA
ATOM      9  N   UNL     1      -0.512   0.004  25.023  0.00  0.00    -0.251 N 
ATOM     17  C   UNL     1       0.276  -0.857  24.284  0.00  0.00    +0.405 C 
ATOM     31  H   UNL     1      -1.142  -0.429  25.694  0.00  0.00    +0.158 HD
BRANCH   9  20
ATOM     20  C   UNL     1      -0.552   1.416  24.964  0.00  0.00    +0.036 A 
ATOM     23  C   UNL     1       0.152   2.073  23.967  0.00  0.00    +0.024 A 
ATOM     24  C   UNL     1      -1.293   2.114  25.903  0.00  0.00    +0.024 A 
ATOM     25  C   UNL     1       0.112   3.467  23.908  0.00  0.00    +0.013 A 
ATOM     26  C   UNL     1      -1.333   3.507  25.845  0.00  0.00    +0.013 A 
ATOM     27  C   UNL     1      -0.630   4.183  24.848  0.00  0.00    +0.017 A 
BRANCH  27  28
ATOM      7  O   UNL     1       0.351   6.306  24.543  0.00  0.00    -0.292 OA
ATOM     28  C   UNL     1      -0.672   5.636  24.787  0.00  0.00    +0.160 C 
ATOM     29  C   UNL     1      -1.983   6.378  25.024  0.00  0.00    +0.091 C 
ENDBRANCH  27  28
ENDBRANCH   9  20
ENDBRANCH   3  17
ENDBRANCH  13   3
TORSDOF 6
ENDMDL
MODEL 6
REMARK VINA RESULT:       4.1      2.253      4.892
REMARK  Name = 11884149
REMARK  7 active torsions:
REMARK  status: ('A' for Active; 'I' for Inactive)
REMARK    1  A    between atoms: O_3  and  C_13
REMARK    2  A    between atoms: O_3  and  C_17
REMARK    3  A    between atoms: N_8  and  C_12
REMARK    4  A    between atoms: N_9  and  C_20
REMARK    5  A    between atoms: C_16  and  C_18
REMARK    6  A    between atoms: C_27  and  C_28
REMARK    7  A    between atoms: C_28  and  C_29
REMARK                            x       y       z     vdW  Elec       q    Type
REMARK                         _______ _______ _______ _____ _____    ______ ____
ROOT
ATOM      1  O   UNL     1      -1.793  -0.834  23.637  0.00  0.00    -0.368 OA
ATOM      2  O   UNL     1      -1.458  -1.226  26.660  0.00  0.00    -0.368 OA
ATOM     10  C   UNL     1      -0.539  -1.418  25.564  0.00  0.00    +0.173 C 
ATOM     11  C   UNL     1      -1.348  -1.965  24.405  0.00  0.00    +0.192 C 
ATOM     12  C   UNL     1      -0.044  -0.081  25.062  0.00  0.00    +0.130 C 
ATOM     13  C   UNL     1      -2.496  -2.654  25.103  0.00  0.00    +0.235 C 
ATOM     14  C   UNL     1      -1.175   0.357  24.147  0.00  0.00    +0.185 C 
ATOM     15  C   UNL     1      -2.743  -1.743  26.284  0.00  0.00    +0.207 C 
ENDROOT
BRANCH  12   8
ATOM      4  O   UNL     1       1.402   2.014  23.849  0.00  0.00    -0.267 OA
ATOM      8  N   UNL     1       1.194  -0.222  24.335  0.00  0.00    -0.301 N 
ATOM     16  C   UNL     1       1.848   0.869  23.762  0.00  0.00    +0.280 C 
ATOM     30  H   UNL     1       1.626  -1.140  24.283  0.00  0.00    +0.150 HD
BRANCH  16  18
ATOM      6  O   UNL     1       4.210   0.564  23.853  0.00  0.00    -0.458 OA
ATOM     18  C   UNL     1       3.117   0.570  23.083  0.00  0.00    +0.189 A 
ATOM     19  C   UNL     1       3.362   0.295  21.789  0.00  0.00    +0.054 A 
ATOM     21  C   UNL     1       4.761   0.092  21.724  0.00  0.00    +0.042 A 
ATOM     22  C   UNL     1       5.231   0.266  23.005  0.00  0.00    +0.196 A 
ENDBRANCH  16  18
ENDBRANCH  12   8
BRANCH  13   3
ATOM      3  O   UNL     1      -3.641  -2.797  24.295  0.00  0.00    -0.442 OA
BRANCH   3  17
ATOM      5  O   UNL     1      -5.338  -1.636  23.294  0.00  0.00    -0.226 OA
ATOM      9  N   UNL     1      -3.932  -0.637  24.876  0.00  0.00    -0.251 N 
ATOM     17  C   UNL     1      -4.400  -1.665  24.081  0.00  0.00    +0.405 C 
ATOM     31  H   UNL     1      -3.136  -0.857  25.470  0.00  0.00    +0.158 HD
BRANCH   9  20
ATOM     20  C   UNL     1      -4.419   0.687  24.965  0.00  0.00    +0.036 A 
ATOM     23  C   UNL     1      -5.545   0.944  25.732  0.00  0.00    +0.024 A 
ATOM     24  C   UNL     1      -3.764   1.700  24.286  0.00  0.00    +0.024 A 
ATOM     25  C   UNL     1      -6.027   2.251  25.821  0.00  0.00    +0.013 A 
ATOM     26  C   UNL     1      -4.244   3.006  24.375  0.00  0.00    +0.013 A 
ATOM     27  C   UNL     1      -5.376   3.281  25.142  0.00  0.00    +0.017 A 
BRANCH  27  28
ATOM      7  O   UNL     1      -6.748   4.961  26.070  0.00  0.00    -0.292 OA
ATOM     28  C   UNL     1      -5.878   4.644  25.235  0.00  0.00    +0.160 C 
ATOM     29  C   UNL     1      -5.344   5.726  24.302  0.00  0.00    +0.091 C 
ENDBRANCH  27  28
ENDBRANCH   9  20
ENDBRANCH   3  17
ENDBRANCH  13   3
TORSDOF 6
ENDMDL
