MODEL 1
REMARK VINA RESULT:      -5.2      0.000      0.000
REMARK  Name = 40777875
REMARK  13 active torsions:
REMARK  status: ('A' for Active; 'I' for Inactive)
REMARK    1  A    between atoms: O_3  and  C_10
REMARK    2  A    between atoms: O_4  and  C_11
REMARK    3  A    between atoms: N_7  and  C_13
REMARK    4  A    between atoms: N_8  and  C_20
REMARK    5  A    between atoms: C_9  and  C_13
REMARK    6  A    between atoms: C_12  and  C_14
REMARK    7  A    between atoms: C_14  and  C_15
REMARK    8  A    between atoms: C_16  and  C_17
REMARK    9  A    between atoms: C_16  and  C_18
REMARK   10  A    between atoms: C_16  and  C_19
REMARK   11  A    between atoms: C_18  and  C_21
REMARK   12  A    between atoms: C_19  and  C_22
REMARK   13  A    between atoms: C_20  and  C_23
REMARK                            x       y       z     vdW  Elec       q    Type
REMARK                         _______ _______ _______ _____ _____    ______ ____
ROOT
ATOM      2  O   UNL     1      -2.696   0.189  23.723  0.00  0.00    -0.366 OA
ATOM      9  C   UNL     1      -4.136   0.117  23.829  0.00  0.00    +0.167 C 
ATOM     10  C   UNL     1      -4.449  -1.199  24.534  0.00  0.00    +0.176 C 
ATOM     11  C   UNL     1      -3.212  -1.404  25.384  0.00  0.00    +0.175 C 
ATOM     12  C   UNL     1      -2.119  -0.908  24.453  0.00  0.00    +0.158 C 
ENDROOT
BRANCH  10   3
ATOM      3  O   UNL     1      -4.544  -2.221  23.543  0.00  0.00    -0.387 OA
ATOM     30  H   UNL     1      -4.196  -1.853  22.713  0.00  0.00    +0.210 HD
ENDBRANCH  10   3
BRANCH  11   4
ATOM      4  O   UNL     1      -3.013  -2.747  25.767  0.00  0.00    -0.387 OA
ATOM     31  H   UNL     1      -2.122  -2.813  26.147  0.00  0.00    +0.210 HD
ENDBRANCH  11   4
BRANCH   9  13
ATOM     13  C   UNL     1      -4.609   1.337  24.607  0.00  0.00    +0.138 C 
BRANCH  13   7
ATOM      6  O   UNL     1      -4.716   4.006  25.666  0.00  0.00    -0.276 OA
ATOM      7  N   UNL     1      -3.495   2.124  25.084  0.00  0.00    -0.313 N 
ATOM     17  C   UNL     1      -3.644   3.410  25.580  0.00  0.00    +0.216 C 
ATOM     29  H   UNL     1      -2.576   1.695  25.054  0.00  0.00    +0.149 HD
BRANCH  17  16
ATOM     16  C   UNL     1      -2.311   4.034  26.005  0.00  0.00    +0.074 C 
BRANCH  16  18
ATOM     18  C   UNL     1      -2.026   5.354  25.268  0.00  0.00    +0.009 C 
ATOM     21  C   UNL     1      -0.670   5.350  24.572  0.00  0.00    +0.004 C 
ENDBRANCH  16  18
BRANCH  16  19
ATOM     19  C   UNL     1      -1.167   3.014  25.827  0.00  0.00    +0.009 C 
ATOM     22  C   UNL     1      -0.335   2.764  27.078  0.00  0.00    +0.004 C 
ENDBRANCH  16  19
ENDBRANCH  17  16
ENDBRANCH  13   7
ENDBRANCH   9  13
BRANCH  12  14
ATOM     14  C   UNL     1      -0.873  -0.438  25.183  0.00  0.00    +0.130 C 
BRANCH  14  15
ATOM      5  O   UNL     1       0.501   1.393  24.400  0.00  0.00    -0.276 OA
ATOM      8  N   UNL     1       0.548  -0.630  23.255  0.00  0.00    -0.311 N 
ATOM     15  C   UNL     1       0.127   0.232  24.258  0.00  0.00    +0.216 C 
ATOM     32  H   UNL     1       0.190  -1.580  23.236  0.00  0.00    +0.149 HD
BRANCH   8  20
ATOM     20  C   UNL     1       1.499  -0.248  22.236  0.00  0.00    +0.139 C 
BRANCH  20  23
ATOM      1  F   UNL     1       6.762  -0.055  24.230  0.00  0.00    -0.205 F 
ATOM     23  C   UNL     1       2.902  -0.197  22.768  0.00  0.00    -0.030 A 
ATOM     24  C   UNL     1       3.663   0.962  22.616  0.00  0.00    +0.008 A 
ATOM     25  C   UNL     1       3.445  -1.307  23.414  0.00  0.00    +0.008 A 
ATOM     26  C   UNL     1       4.967   1.010  23.110  0.00  0.00    +0.038 A 
ATOM     27  C   UNL     1       4.748  -1.260  23.908  0.00  0.00    +0.038 A 
ATOM     28  C   UNL     1       5.509  -0.102  23.755  0.00  0.00    +0.123 A 
ENDBRANCH  20  23
ENDBRANCH   8  20
ENDBRANCH  14  15
ENDBRANCH  12  14
TORSDOF 11
ENDMDL
MODEL 2
REMARK VINA RESULT:      -5.0      1.301      2.032
REMARK  Name = 40777875
REMARK  13 active torsions:
REMARK  status: ('A' for Active; 'I' for Inactive)
REMARK    1  A    between atoms: O_3  and  C_10
REMARK    2  A    between atoms: O_4  and  C_11
REMARK    3  A    between atoms: N_7  and  C_13
REMARK    4  A    between atoms: N_8  and  C_20
REMARK    5  A    between atoms: C_9  and  C_13
REMARK    6  A    between atoms: C_12  and  C_14
REMARK    7  A    between atoms: C_14  and  C_15
REMARK    8  A    between atoms: C_16  and  C_17
REMARK    9  A    between atoms: C_16  and  C_18
REMARK   10  A    between atoms: C_16  and  C_19
REMARK   11  A    between atoms: C_18  and  C_21
REMARK   12  A    between atoms: C_19  and  C_22
REMARK   13  A    between atoms: C_20  and  C_23
REMARK                            x       y       z     vdW  Elec       q    Type
REMARK                         _______ _______ _______ _____ _____    ______ ____
ROOT
ATOM      2  O   UNL     1      -2.699   0.044  23.892  0.00  0.00    -0.366 OA
ATOM      9  C   UNL     1      -3.633  -0.912  24.446  0.00  0.00    +0.167 C 
ATOM     10  C   UNL     1      -2.798  -1.932  25.212  0.00  0.00    +0.176 C 
ATOM     11  C   UNL     1      -1.597  -1.108  25.629  0.00  0.00    +0.175 C 
ATOM     12  C   UNL     1      -1.384  -0.239  24.402  0.00  0.00    +0.158 C 
ENDROOT
BRANCH  10   3
ATOM      3  O   UNL     1      -2.404  -2.956  24.301  0.00  0.00    -0.387 OA
ATOM     30  H   UNL     1      -1.445  -3.081  24.401  0.00  0.00    +0.210 HD
ENDBRANCH  10   3
BRANCH  11   4
ATOM      4  O   UNL     1      -0.460  -1.890  25.928  0.00  0.00    -0.387 OA
ATOM     31  H   UNL     1      -0.669  -2.417  26.718  0.00  0.00    +0.210 HD
ENDBRANCH  11   4
BRANCH   9  13
ATOM     13  C   UNL     1      -4.607  -0.151  25.334  0.00  0.00    +0.138 C 
BRANCH  13   7
ATOM      6  O   UNL     1      -6.424   2.010  24.796  0.00  0.00    -0.276 OA
ATOM      7  N   UNL     1      -4.305   1.262  25.363  0.00  0.00    -0.313 N 
ATOM     17  C   UNL     1      -5.251   2.237  25.088  0.00  0.00    +0.216 C 
ATOM     29  H   UNL     1      -3.356   1.529  25.605  0.00  0.00    +0.149 HD
BRANCH  17  16
ATOM     16  C   UNL     1      -4.675   3.654  25.169  0.00  0.00    +0.074 C 
BRANCH  16  18
ATOM     18  C   UNL     1      -4.181   4.159  23.803  0.00  0.00    +0.009 C 
ATOM     21  C   UNL     1      -3.676   3.030  22.913  0.00  0.00    +0.004 C 
ENDBRANCH  16  18
BRANCH  16  19
ATOM     19  C   UNL     1      -3.568   3.716  26.242  0.00  0.00    +0.009 C 
ATOM     22  C   UNL     1      -2.249   4.309  25.764  0.00  0.00    +0.004 C 
ENDBRANCH  16  19
ENDBRANCH  17  16
ENDBRANCH  13   7
ENDBRANCH   9  13
BRANCH  12  14
ATOM     14  C   UNL     1      -0.662   1.062  24.702  0.00  0.00    +0.130 C 
BRANCH  14  15
ATOM      5  O   UNL     1       1.271   2.266  23.885  0.00  0.00    -0.276 OA
ATOM      8  N   UNL     1       0.787   0.170  23.006  0.00  0.00    -0.311 N 
ATOM     15  C   UNL     1       0.570   1.259  23.838  0.00  0.00    +0.216 C 
ATOM     32  H   UNL     1       0.156  -0.625  23.055  0.00  0.00    +0.149 HD
BRANCH   8  20
ATOM     20  C   UNL     1       1.891   0.095  22.077  0.00  0.00    +0.139 C 
BRANCH  20  23
ATOM      1  F   UNL     1       6.802  -0.732  24.705  0.00  0.00    -0.205 F 
ATOM     23  C   UNL     1       3.201  -0.125  22.777  0.00  0.00    -0.030 A 
ATOM     24  C   UNL     1       3.467  -1.350  23.388  0.00  0.00    +0.008 A 
ATOM     25  C   UNL     1       4.151   0.895  22.817  0.00  0.00    +0.008 A 
ATOM     26  C   UNL     1       4.683  -1.555  24.039  0.00  0.00    +0.038 A 
ATOM     27  C   UNL     1       5.367   0.691  23.468  0.00  0.00    +0.038 A 
ATOM     28  C   UNL     1       5.633  -0.534  24.080  0.00  0.00    +0.123 A 
ENDBRANCH  20  23
ENDBRANCH   8  20
ENDBRANCH  14  15
ENDBRANCH  12  14
TORSDOF 11
ENDMDL
MODEL 3
REMARK VINA RESULT:      -4.8      1.480      4.326
REMARK  Name = 40777875
REMARK  13 active torsions:
REMARK  status: ('A' for Active; 'I' for Inactive)
REMARK    1  A    between atoms: O_3  and  C_10
REMARK    2  A    between atoms: O_4  and  C_11
REMARK    3  A    between atoms: N_7  and  C_13
REMARK    4  A    between atoms: N_8  and  C_20
REMARK    5  A    between atoms: C_9  and  C_13
REMARK    6  A    between atoms: C_12  and  C_14
REMARK    7  A    between atoms: C_14  and  C_15
REMARK    8  A    between atoms: C_16  and  C_17
REMARK    9  A    between atoms: C_16  and  C_18
REMARK   10  A    between atoms: C_16  and  C_19
REMARK   11  A    between atoms: C_18  and  C_21
REMARK   12  A    between atoms: C_19  and  C_22
REMARK   13  A    between atoms: C_20  and  C_23
REMARK                            x       y       z     vdW  Elec       q    Type
REMARK                         _______ _______ _______ _____ _____    ______ ____
ROOT
ATOM      2  O   UNL     1      -2.301   2.829  26.262  0.00  0.00    -0.366 OA
ATOM      9  C   UNL     1      -3.177   3.836  25.707  0.00  0.00    +0.167 C 
ATOM     10  C   UNL     1      -2.338   4.639  24.719  0.00  0.00    +0.176 C 
ATOM     11  C   UNL     1      -1.317   3.615  24.268  0.00  0.00    +0.175 C 
ATOM     12  C   UNL     1      -1.044   2.868  25.562  0.00  0.00    +0.158 C 
ENDROOT
BRANCH  10   3
ATOM      3  O   UNL     1      -1.699   5.694  25.435  0.00  0.00    -0.387 OA
ATOM     30  H   UNL     1      -2.387   6.164  25.936  0.00  0.00    +0.210 HD
ENDBRANCH  10   3
BRANCH  11   4
ATOM      4  O   UNL     1      -0.146   4.192  23.733  0.00  0.00    -0.387 OA
ATOM     31  H   UNL     1       0.219   3.566  23.086  0.00  0.00    +0.210 HD
ENDBRANCH  11   4
BRANCH   9  13
ATOM     13  C   UNL     1      -4.352   3.123  25.051  0.00  0.00    +0.138 C 
BRANCH  13   7
ATOM      6  O   UNL     1      -3.471   1.018  23.305  0.00  0.00    -0.276 OA
ATOM      7  N   UNL     1      -4.339   1.708  25.340  0.00  0.00    -0.313 N 
ATOM     17  C   UNL     1      -3.894   0.761  24.431  0.00  0.00    +0.216 C 
ATOM     29  H   UNL     1      -4.666   1.417  26.256  0.00  0.00    +0.149 HD
BRANCH  17  16
ATOM     16  C   UNL     1      -3.999  -0.668  24.972  0.00  0.00    +0.074 C 
BRANCH  16  18
ATOM     18  C   UNL     1      -2.783  -1.054  25.832  0.00  0.00    +0.009 C 
ATOM     21  C   UNL     1      -1.711  -1.782  25.029  0.00  0.00    +0.004 C 
ENDBRANCH  16  18
BRANCH  16  19
ATOM     19  C   UNL     1      -4.224  -1.660  23.812  0.00  0.00    +0.009 C 
ATOM     22  C   UNL     1      -4.038  -3.127  24.181  0.00  0.00    +0.004 C 
ENDBRANCH  16  19
ENDBRANCH  17  16
ENDBRANCH  13   7
ENDBRANCH   9  13
BRANCH  12  14
ATOM     14  C   UNL     1      -0.536   1.454  25.346  0.00  0.00    +0.130 C 
BRANCH  14  15
ATOM      5  O   UNL     1       1.322   2.268  24.028  0.00  0.00    -0.276 OA
ATOM      8  N   UNL     1       0.431   0.173  23.558  0.00  0.00    -0.311 N 
ATOM     15  C   UNL     1       0.513   1.372  24.252  0.00  0.00    +0.216 C 
ATOM     32  H   UNL     1      -0.266  -0.513  23.834  0.00  0.00    +0.149 HD
BRANCH   8  20
ATOM     20  C   UNL     1       1.311  -0.165  22.463  0.00  0.00    +0.139 C 
BRANCH  20  23
ATOM      1  F   UNL     1       6.717  -0.196  24.039  0.00  0.00    -0.205 F 
ATOM     23  C   UNL     1       2.753  -0.173  22.883  0.00  0.00    -0.030 A 
ATOM     24  C   UNL     1       3.290  -1.297  23.510  0.00  0.00    +0.008 A 
ATOM     25  C   UNL     1       3.555   0.943  22.646  0.00  0.00    +0.008 A 
ATOM     26  C   UNL     1       4.629  -1.305  23.900  0.00  0.00    +0.038 A 
ATOM     27  C   UNL     1       4.894   0.936  23.036  0.00  0.00    +0.038 A 
ATOM     28  C   UNL     1       5.431  -0.188  23.665  0.00  0.00    +0.123 A 
ENDBRANCH  20  23
ENDBRANCH   8  20
ENDBRANCH  14  15
ENDBRANCH  12  14
TORSDOF 11
ENDMDL
MODEL 4
REMARK VINA RESULT:      -4.7      1.255      1.888
REMARK  Name = 40777875
REMARK  13 active torsions:
REMARK  status: ('A' for Active; 'I' for Inactive)
REMARK    1  A    between atoms: O_3  and  C_10
REMARK    2  A    between atoms: O_4  and  C_11
REMARK    3  A    between atoms: N_7  and  C_13
REMARK    4  A    between atoms: N_8  and  C_20
REMARK    5  A    between atoms: C_9  and  C_13
REMARK    6  A    between atoms: C_12  and  C_14
REMARK    7  A    between atoms: C_14  and  C_15
REMARK    8  A    between atoms: C_16  and  C_17
REMARK    9  A    between atoms: C_16  and  C_18
REMARK   10  A    between atoms: C_16  and  C_19
REMARK   11  A    between atoms: C_18  and  C_21
REMARK   12  A    between atoms: C_19  and  C_22
REMARK   13  A    between atoms: C_20  and  C_23
REMARK                            x       y       z     vdW  Elec       q    Type
REMARK                         _______ _______ _______ _____ _____    ______ ____
ROOT
ATOM      2  O   UNL     1      -1.889  -0.868  23.944  0.00  0.00    -0.366 OA
ATOM      9  C   UNL     1      -3.261  -1.265  23.722  0.00  0.00    +0.167 C 
ATOM     10  C   UNL     1      -3.817  -1.670  25.083  0.00  0.00    +0.176 C 
ATOM     11  C   UNL     1      -2.994  -0.817  26.026  0.00  0.00    +0.175 C 
ATOM     12  C   UNL     1      -1.630  -0.855  25.359  0.00  0.00    +0.158 C 
ENDROOT
BRANCH  10   3
ATOM      3  O   UNL     1      -3.527  -3.052  25.285  0.00  0.00    -0.387 OA
ATOM     30  H   UNL     1      -2.586  -3.185  25.082  0.00  0.00    +0.210 HD
ENDBRANCH  10   3
BRANCH  11   4
ATOM      4  O   UNL     1      -2.954  -1.321  27.344  0.00  0.00    -0.387 OA
ATOM     31  H   UNL     1      -2.199  -1.930  27.400  0.00  0.00    +0.210 HD
ENDBRANCH  11   4
BRANCH   9  13
ATOM     13  C   UNL     1      -3.995  -0.081  23.107  0.00  0.00    +0.138 C 
BRANCH  13   7
ATOM      6  O   UNL     1      -2.541   2.377  22.787  0.00  0.00    -0.276 OA
ATOM      7  N   UNL     1      -4.009   1.055  24.000  0.00  0.00    -0.313 N 
ATOM     17  C   UNL     1      -3.271   2.204  23.762  0.00  0.00    +0.216 C 
ATOM     29  H   UNL     1      -4.596   0.991  24.825  0.00  0.00    +0.149 HD
BRANCH  17  16
ATOM     16  C   UNL     1      -3.445   3.253  24.865  0.00  0.00    +0.074 C 
BRANCH  16  18
ATOM     18  C   UNL     1      -2.136   3.515  25.629  0.00  0.00    +0.009 C 
ATOM     21  C   UNL     1      -1.402   4.750  25.119  0.00  0.00    +0.004 C 
ENDBRANCH  16  18
BRANCH  16  19
ATOM     19  C   UNL     1      -4.593   2.843  25.810  0.00  0.00    +0.009 C 
ATOM     22  C   UNL     1      -5.873   3.655  25.649  0.00  0.00    +0.004 C 
ENDBRANCH  16  19
ENDBRANCH  17  16
ENDBRANCH  13   7
ENDBRANCH   9  13
BRANCH  12  14
ATOM     14  C   UNL     1      -0.755   0.335  25.708  0.00  0.00    +0.130 C 
BRANCH  14  15
ATOM      5  O   UNL     1       0.460   1.935  24.359  0.00  0.00    -0.276 OA
ATOM      8  N   UNL     1       0.501  -0.312  23.764  0.00  0.00    -0.311 N 
ATOM     15  C   UNL     1       0.129   0.768  24.552  0.00  0.00    +0.216 C 
ATOM     32  H   UNL     1       0.187  -1.243  24.020  0.00  0.00    +0.149 HD
BRANCH   8  20
ATOM     20  C   UNL     1       1.341  -0.183  22.596  0.00  0.00    +0.139 C 
BRANCH  20  23
ATOM      1  F   UNL     1       6.807  -0.021  23.937  0.00  0.00    -0.205 F 
ATOM     23  C   UNL     1       2.799  -0.140  22.954  0.00  0.00    -0.030 A 
ATOM     24  C   UNL     1       3.543   1.014  22.707  0.00  0.00    +0.008 A 
ATOM     25  C   UNL     1       3.408  -1.253  23.532  0.00  0.00    +0.008 A 
ATOM     26  C   UNL     1       4.897   1.054  23.040  0.00  0.00    +0.038 A 
ATOM     27  C   UNL     1       4.762  -1.214  23.864  0.00  0.00    +0.038 A 
ATOM     28  C   UNL     1       5.507  -0.060  23.617  0.00  0.00    +0.123 A 
ENDBRANCH  20  23
ENDBRANCH   8  20
ENDBRANCH  14  15
ENDBRANCH  12  14
TORSDOF 11
ENDMDL
MODEL 5
REMARK VINA RESULT:      -4.6      3.447      7.305
REMARK  Name = 40777875
REMARK  13 active torsions:
REMARK  status: ('A' for Active; 'I' for Inactive)
REMARK    1  A    between atoms: O_3  and  C_10
REMARK    2  A    between atoms: O_4  and  C_11
REMARK    3  A    between atoms: N_7  and  C_13
REMARK    4  A    between atoms: N_8  and  C_20
REMARK    5  A    between atoms: C_9  and  C_13
REMARK    6  A    between atoms: C_12  and  C_14
REMARK    7  A    between atoms: C_14  and  C_15
REMARK    8  A    between atoms: C_16  and  C_17
REMARK    9  A    between atoms: C_16  and  C_18
REMARK   10  A    between atoms: C_16  and  C_19
REMARK   11  A    between atoms: C_18  and  C_21
REMARK   12  A    between atoms: C_19  and  C_22
REMARK   13  A    between atoms: C_20  and  C_23
REMARK                            x       y       z     vdW  Elec       q    Type
REMARK                         _______ _______ _______ _____ _____    ______ ____
ROOT
ATOM      2  O   UNL     1      -0.124   0.703  23.467  0.00  0.00    -0.366 OA
ATOM      9  C   UNL     1       0.384  -0.581  23.035  0.00  0.00    +0.167 C 
ATOM     10  C   UNL     1       1.840  -0.357  22.642  0.00  0.00    +0.176 C 
ATOM     11  C   UNL     1       2.231   0.806  23.532  0.00  0.00    +0.175 C 
ATOM     12  C   UNL     1       0.964   1.643  23.512  0.00  0.00    +0.158 C 
ENDROOT
BRANCH  10   3
ATOM      3  O   UNL     1       1.875   0.035  21.272  0.00  0.00    -0.387 OA
ATOM     30  H   UNL     1       2.649   0.612  21.153  0.00  0.00    +0.210 HD
ENDBRANCH  10   3
BRANCH  11   4
ATOM      4  O   UNL     1       3.349   1.523  23.054  0.00  0.00    -0.387 OA
ATOM     31  H   UNL     1       4.145   1.080  23.390  0.00  0.00    +0.210 HD
ENDBRANCH  11   4
BRANCH   9  13
ATOM     13  C   UNL     1       0.221  -1.559  24.189  0.00  0.00    +0.138 C 
BRANCH  13   7
ATOM      6  O   UNL     1      -1.338  -0.368  26.289  0.00  0.00    -0.276 OA
ATOM      7  N   UNL     1      -1.173  -1.807  24.480  0.00  0.00    -0.313 N 
ATOM     17  C   UNL     1      -1.844  -1.183  25.519  0.00  0.00    +0.216 C 
ATOM     29  H   UNL     1      -1.663  -2.463  23.881  0.00  0.00    +0.149 HD
BRANCH  17  16
ATOM     16  C   UNL     1      -3.306  -1.629  25.626  0.00  0.00    +0.074 C 
BRANCH  16  18
ATOM     18  C   UNL     1      -3.526  -3.039  25.054  0.00  0.00    +0.009 C 
ATOM     21  C   UNL     1      -4.356  -3.026  23.775  0.00  0.00    +0.004 C 
ENDBRANCH  16  18
BRANCH  16  19
ATOM     19  C   UNL     1      -4.229  -0.586  24.963  0.00  0.00    +0.009 C 
ATOM     22  C   UNL     1      -3.645   0.089  23.729  0.00  0.00    +0.004 C 
ENDBRANCH  16  19
ENDBRANCH  17  16
ENDBRANCH  13   7
ENDBRANCH   9  13
BRANCH  12  14
ATOM     14  C   UNL     1       0.815   2.538  24.729  0.00  0.00    +0.130 C 
BRANCH  14  15
ATOM      5  O   UNL     1      -0.424   4.273  23.585  0.00  0.00    -0.276 OA
ATOM      8  N   UNL     1      -1.145   3.556  25.675  0.00  0.00    -0.311 N 
ATOM     15  C   UNL     1      -0.302   3.554  24.573  0.00  0.00    +0.216 C 
ATOM     32  H   UNL     1      -0.967   2.908  26.436  0.00  0.00    +0.149 HD
BRANCH   8  20
ATOM     20  C   UNL     1      -2.291   4.429  25.789  0.00  0.00    +0.139 C 
BRANCH  20  23
ATOM      1  F   UNL     1      -7.094   1.774  24.525  0.00  0.00    -0.205 F 
ATOM     23  C   UNL     1      -3.572   3.721  25.452  0.00  0.00    -0.030 A 
ATOM     24  C   UNL     1      -3.901   3.471  24.120  0.00  0.00    +0.008 A 
ATOM     25  C   UNL     1      -4.433   3.313  26.471  0.00  0.00    +0.008 A 
ATOM     26  C   UNL     1      -5.090   2.813  23.807  0.00  0.00    +0.038 A 
ATOM     27  C   UNL     1      -5.622   2.655  26.159  0.00  0.00    +0.038 A 
ATOM     28  C   UNL     1      -5.951   2.407  24.826  0.00  0.00    +0.123 A 
ENDBRANCH  20  23
ENDBRANCH   8  20
ENDBRANCH  14  15
ENDBRANCH  12  14
TORSDOF 11
ENDMDL
MODEL 6
REMARK VINA RESULT:      -4.3      1.585      4.349
REMARK  Name = 40777875
REMARK  13 active torsions:
REMARK  status: ('A' for Active; 'I' for Inactive)
REMARK    1  A    between atoms: O_3  and  C_10
REMARK    2  A    between atoms: O_4  and  C_11
REMARK    3  A    between atoms: N_7  and  C_13
REMARK    4  A    between atoms: N_8  and  C_20
REMARK    5  A    between atoms: C_9  and  C_13
REMARK    6  A    between atoms: C_12  and  C_14
REMARK    7  A    between atoms: C_14  and  C_15
REMARK    8  A    between atoms: C_16  and  C_17
REMARK    9  A    between atoms: C_16  and  C_18
REMARK   10  A    between atoms: C_16  and  C_19
REMARK   11  A    between atoms: C_18  and  C_21
REMARK   12  A    between atoms: C_19  and  C_22
REMARK   13  A    between atoms: C_20  and  C_23
REMARK                            x       y       z     vdW  Elec       q    Type
REMARK                         _______ _______ _______ _____ _____    ______ ____
ROOT
ATOM      2  O   UNL     1      -2.659   2.162  25.725  0.00  0.00    -0.366 OA
ATOM      9  C   UNL     1      -3.681   2.686  24.847  0.00  0.00    +0.167 C 
ATOM     10  C   UNL     1      -3.375   4.170  24.669  0.00  0.00    +0.176 C 
ATOM     11  C   UNL     1      -1.871   4.205  24.851  0.00  0.00    +0.175 C 
ATOM     12  C   UNL     1      -1.674   3.185  25.958  0.00  0.00    +0.158 C 
ENDROOT
BRANCH  10   3
ATOM      3  O   UNL     1      -4.018   4.884  25.723  0.00  0.00    -0.387 OA
ATOM     30  H   UNL     1      -4.632   4.268  26.159  0.00  0.00    +0.210 HD
ENDBRANCH  10   3
BRANCH  11   4
ATOM      4  O   UNL     1      -1.382   5.479  25.210  0.00  0.00    -0.387 OA
ATOM     31  H   UNL     1      -1.963   5.829  25.906  0.00  0.00    +0.210 HD
ENDBRANCH  11   4
BRANCH   9  13
ATOM     13  C   UNL     1      -3.621   1.904  23.542  0.00  0.00    +0.138 C 
BRANCH  13   7
ATOM      6  O   UNL     1      -4.499  -0.277  25.193  0.00  0.00    -0.276 OA
ATOM      7  N   UNL     1      -2.960   0.631  23.718  0.00  0.00    -0.313 N 
ATOM     17  C   UNL     1      -3.462  -0.366  24.540  0.00  0.00    +0.216 C 
ATOM     29  H   UNL     1      -2.100   0.479  23.202  0.00  0.00    +0.149 HD
BRANCH  17  16
ATOM     16  C   UNL     1      -2.567  -1.610  24.567  0.00  0.00    +0.074 C 
BRANCH  16  18
ATOM     18  C   UNL     1      -3.380  -2.906  24.724  0.00  0.00    +0.009 C 
ATOM     21  C   UNL     1      -4.384  -3.104  23.594  0.00  0.00    +0.004 C 
ENDBRANCH  16  18
BRANCH  16  19
ATOM     19  C   UNL     1      -1.491  -1.466  25.663  0.00  0.00    +0.009 C 
ATOM     22  C   UNL     1      -0.180  -2.184  25.367  0.00  0.00    +0.004 C 
ENDBRANCH  16  19
ENDBRANCH  17  16
ENDBRANCH  13   7
ENDBRANCH   9  13
BRANCH  12  14
ATOM     14  C   UNL     1      -0.288   2.567  25.969  0.00  0.00    +0.130 C 
BRANCH  14  15
ATOM      5  O   UNL     1       0.424   3.162  23.735  0.00  0.00    -0.276 OA
ATOM      8  N   UNL     1       0.465   0.929  24.379  0.00  0.00    -0.311 N 
ATOM     15  C   UNL     1       0.236   2.284  24.572  0.00  0.00    +0.216 C 
ATOM     32  H   UNL     1       0.292   0.284  25.144  0.00  0.00    +0.149 HD
BRANCH   8  20
ATOM     20  C   UNL     1       0.963   0.383  23.137  0.00  0.00    +0.139 C 
BRANCH  20  23
ATOM      1  F   UNL     1       6.542  -0.371  23.258  0.00  0.00    -0.205 F 
ATOM     23  C   UNL     1       2.451   0.182  23.170  0.00  0.00    -0.030 A 
ATOM     24  C   UNL     1       3.302   1.211  22.765  0.00  0.00    +0.008 A 
ATOM     25  C   UNL     1       2.982  -1.033  23.604  0.00  0.00    +0.008 A 
ATOM     26  C   UNL     1       4.684   1.023  22.796  0.00  0.00    +0.038 A 
ATOM     27  C   UNL     1       4.363  -1.220  23.633  0.00  0.00    +0.038 A 
ATOM     28  C   UNL     1       5.214  -0.192  23.228  0.00  0.00    +0.123 A 
ENDBRANCH  20  23
ENDBRANCH   8  20
ENDBRANCH  14  15
ENDBRANCH  12  14
TORSDOF 11
ENDMDL
MODEL 7
REMARK VINA RESULT:      -4.2      2.292      6.178
REMARK  Name = 40777875
REMARK  13 active torsions:
REMARK  status: ('A' for Active; 'I' for Inactive)
REMARK    1  A    between atoms: O_3  and  C_10
REMARK    2  A    between atoms: O_4  and  C_11
REMARK    3  A    between atoms: N_7  and  C_13
REMARK    4  A    between atoms: N_8  and  C_20
REMARK    5  A    between atoms: C_9  and  C_13
REMARK    6  A    between atoms: C_12  and  C_14
REMARK    7  A    between atoms: C_14  and  C_15
REMARK    8  A    between atoms: C_16  and  C_17
REMARK    9  A    between atoms: C_16  and  C_18
REMARK   10  A    between atoms: C_16  and  C_19
REMARK   11  A    between atoms: C_18  and  C_21
REMARK   12  A    between atoms: C_19  and  C_22
REMARK   13  A    between atoms: C_20  and  C_23
REMARK                            x       y       z     vdW  Elec       q    Type
REMARK                         _______ _______ _______ _____ _____    ______ ____
ROOT
ATOM      2  O   UNL     1      -2.474   3.133  23.215  0.00  0.00    -0.366 OA
ATOM      9  C   UNL     1      -1.172   2.899  23.799  0.00  0.00    +0.167 C 
ATOM     10  C   UNL     1      -1.221   3.486  25.206  0.00  0.00    +0.176 C 
ATOM     11  C   UNL     1      -2.689   3.351  25.553  0.00  0.00    +0.175 C 
ATOM     12  C   UNL     1      -3.348   3.673  24.223  0.00  0.00    +0.158 C 
ENDROOT
BRANCH  10   3
ATOM      3  O   UNL     1      -0.856   4.863  25.125  0.00  0.00    -0.387 OA
ATOM     30  H   UNL     1      -0.791   5.200  26.034  0.00  0.00    +0.210 HD
ENDBRANCH  10   3
BRANCH  11   4
ATOM      4  O   UNL     1      -3.105   4.229  26.577  0.00  0.00    -0.387 OA
ATOM     31  H   UNL     1      -2.780   3.869  27.419  0.00  0.00    +0.210 HD
ENDBRANCH  11   4
BRANCH   9  13
ATOM     13  C   UNL     1      -0.918   1.398  23.787  0.00  0.00    +0.138 C 
BRANCH  13   7
ATOM      6  O   UNL     1       0.687  -0.283  22.098  0.00  0.00    -0.276 OA
ATOM      7  N   UNL     1       0.486   1.098  23.948  0.00  0.00    -0.313 N 
ATOM     17  C   UNL     1       1.180   0.271  23.078  0.00  0.00    +0.216 C 
ATOM     29  H   UNL     1       0.967   1.528  24.732  0.00  0.00    +0.149 HD
BRANCH  17  16
ATOM     16  C   UNL     1       2.650   0.101  23.477  0.00  0.00    +0.074 C 
BRANCH  16  18
ATOM     18  C   UNL     1       3.585   0.992  22.642  0.00  0.00    +0.009 C 
ATOM     21  C   UNL     1       5.029   0.933  23.125  0.00  0.00    +0.004 C 
ENDBRANCH  16  18
BRANCH  16  19
ATOM     19  C   UNL     1       3.050  -1.387  23.401  0.00  0.00    +0.009 C 
ATOM     22  C   UNL     1       4.444  -1.700  23.933  0.00  0.00    +0.004 C 
ENDBRANCH  16  19
ENDBRANCH  17  16
ENDBRANCH  13   7
ENDBRANCH   9  13
BRANCH  12  14
ATOM     14  C   UNL     1      -4.733   3.071  24.074  0.00  0.00    +0.130 C 
BRANCH  14  15
ATOM      5  O   UNL     1      -5.405   1.716  25.963  0.00  0.00    -0.276 OA
ATOM      8  N   UNL     1      -4.389   0.694  24.140  0.00  0.00    -0.311 N 
ATOM     15  C   UNL     1      -4.892   1.775  24.848  0.00  0.00    +0.216 C 
ATOM     32  H   UNL     1      -3.998   0.847  23.214  0.00  0.00    +0.149 HD
BRANCH   8  20
ATOM     20  C   UNL     1      -4.411  -0.660  24.645  0.00  0.00    +0.139 C 
BRANCH  20  23
ATOM      1  F   UNL     1       0.764  -2.562  25.790  0.00  0.00    -0.205 F 
ATOM     23  C   UNL     1      -3.030  -1.168  24.950  0.00  0.00    -0.030 A 
ATOM     24  C   UNL     1      -2.282  -0.580  25.971  0.00  0.00    +0.008 A 
ATOM     25  C   UNL     1      -2.497  -2.225  24.214  0.00  0.00    +0.008 A 
ATOM     26  C   UNL     1      -1.000  -1.052  26.254  0.00  0.00    +0.038 A 
ATOM     27  C   UNL     1      -1.216  -2.696  24.497  0.00  0.00    +0.038 A 
ATOM     28  C   UNL     1      -0.467  -2.109  25.517  0.00  0.00    +0.123 A 
ENDBRANCH  20  23
ENDBRANCH   8  20
ENDBRANCH  14  15
ENDBRANCH  12  14
TORSDOF 11
ENDMDL
MODEL 8
REMARK VINA RESULT:      -4.0      3.213      4.862
REMARK  Name = 40777875
REMARK  13 active torsions:
REMARK  status: ('A' for Active; 'I' for Inactive)
REMARK    1  A    between atoms: O_3  and  C_10
REMARK    2  A    between atoms: O_4  and  C_11
REMARK    3  A    between atoms: N_7  and  C_13
REMARK    4  A    between atoms: N_8  and  C_20
REMARK    5  A    between atoms: C_9  and  C_13
REMARK    6  A    between atoms: C_12  and  C_14
REMARK    7  A    between atoms: C_14  and  C_15
REMARK    8  A    between atoms: C_16  and  C_17
REMARK    9  A    between atoms: C_16  and  C_18
REMARK   10  A    between atoms: C_16  and  C_19
REMARK   11  A    between atoms: C_18  and  C_21
REMARK   12  A    between atoms: C_19  and  C_22
REMARK   13  A    between atoms: C_20  and  C_23
REMARK                            x       y       z     vdW  Elec       q    Type
REMARK                         _______ _______ _______ _____ _____    ______ ____
ROOT
ATOM      2  O   UNL     1      -2.063  -2.384  24.067  0.00  0.00    -0.366 OA
ATOM      9  C   UNL     1      -3.374  -2.007  24.547  0.00  0.00    +0.167 C 
ATOM     10  C   UNL     1      -3.163  -1.361  25.912  0.00  0.00    +0.176 C 
ATOM     11  C   UNL     1      -1.768  -0.786  25.776  0.00  0.00    +0.175 C 
ATOM     12  C   UNL     1      -1.070  -1.868  24.971  0.00  0.00    +0.158 C 
ENDROOT
BRANCH  10   3
ATOM      3  O   UNL     1      -3.179  -2.392  26.897  0.00  0.00    -0.387 OA
ATOM     30  H   UNL     1      -4.056  -2.811  26.865  0.00  0.00    +0.210 HD
ENDBRANCH  10   3
BRANCH  11   4
ATOM      4  O   UNL     1      -1.135  -0.556  27.016  0.00  0.00    -0.387 OA
ATOM     31  H   UNL     1      -1.175  -1.384  27.522  0.00  0.00    +0.210 HD
ENDBRANCH  11   4
BRANCH   9  13
ATOM     13  C   UNL     1      -3.990  -1.059  23.527  0.00  0.00    +0.138 C 
BRANCH  13   7
ATOM      6  O   UNL     1      -5.988   0.547  24.826  0.00  0.00    -0.276 OA
ATOM      7  N   UNL     1      -3.858   0.320  23.939  0.00  0.00    -0.313 N 
ATOM     17  C   UNL     1      -4.882   1.016  24.562  0.00  0.00    +0.216 C 
ATOM     29  H   UNL     1      -2.968   0.775  23.764  0.00  0.00    +0.149 HD
BRANCH  17  16
ATOM     16  C   UNL     1      -4.497   2.464  24.883  0.00  0.00    +0.074 C 
BRANCH  16  18
ATOM     18  C   UNL     1      -5.485   3.126  25.858  0.00  0.00    +0.009 C 
ATOM     21  C   UNL     1      -5.845   4.549  25.446  0.00  0.00    +0.004 C 
ENDBRANCH  16  18
BRANCH  16  19
ATOM     19  C   UNL     1      -4.345   3.274  23.578  0.00  0.00    +0.009 C 
ATOM     22  C   UNL     1      -3.245   2.779  22.646  0.00  0.00    +0.004 C 
ENDBRANCH  16  19
ENDBRANCH  17  16
ENDBRANCH  13   7
ENDBRANCH   9  13
BRANCH  12  14
ATOM     14  C   UNL     1       0.123  -1.359  24.183  0.00  0.00    +0.130 C 
BRANCH  14  15
ATOM      5  O   UNL     1      -0.954   0.346  22.846  0.00  0.00    -0.276 OA
ATOM      8  N   UNL     1       0.830   0.938  24.213  0.00  0.00    -0.311 N 
ATOM     15  C   UNL     1      -0.083   0.051  23.659  0.00  0.00    +0.216 C 
ATOM     32  H   UNL     1       1.504   0.595  24.892  0.00  0.00    +0.149 HD
BRANCH   8  20
ATOM     20  C   UNL     1       0.860   2.345  23.887  0.00  0.00    +0.139 C 
BRANCH  20  23
ATOM      1  F   UNL     1      -3.042   5.245  26.729  0.00  0.00    -0.205 F 
ATOM     23  C   UNL     1      -0.181   3.119  24.644  0.00  0.00    -0.030 A 
ATOM     24  C   UNL     1      -0.842   2.527  25.721  0.00  0.00    +0.008 A 
ATOM     25  C   UNL     1      -0.486   4.428  24.272  0.00  0.00    +0.008 A 
ATOM     26  C   UNL     1      -1.808   3.246  26.425  0.00  0.00    +0.038 A 
ATOM     27  C   UNL     1      -1.452   5.146  24.975  0.00  0.00    +0.038 A 
ATOM     28  C   UNL     1      -2.114   4.554  26.051  0.00  0.00    +0.123 A 
ENDBRANCH  20  23
ENDBRANCH   8  20
ENDBRANCH  14  15
ENDBRANCH  12  14
TORSDOF 11
ENDMDL
MODEL 9
REMARK VINA RESULT:      -3.7      2.086      6.261
REMARK  Name = 40777875
REMARK  13 active torsions:
REMARK  status: ('A' for Active; 'I' for Inactive)
REMARK    1  A    between atoms: O_3  and  C_10
REMARK    2  A    between atoms: O_4  and  C_11
REMARK    3  A    between atoms: N_7  and  C_13
REMARK    4  A    between atoms: N_8  and  C_20
REMARK    5  A    between atoms: C_9  and  C_13
REMARK    6  A    between atoms: C_12  and  C_14
REMARK    7  A    between atoms: C_14  and  C_15
REMARK    8  A    between atoms: C_16  and  C_17
REMARK    9  A    between atoms: C_16  and  C_18
REMARK   10  A    between atoms: C_16  and  C_19
REMARK   11  A    between atoms: C_18  and  C_21
REMARK   12  A    between atoms: C_19  and  C_22
REMARK   13  A    between atoms: C_20  and  C_23
REMARK                            x       y       z     vdW  Elec       q    Type
REMARK                         _______ _______ _______ _____ _____    ______ ____
ROOT
ATOM      2  O   UNL     1      -2.590  -0.248  25.689  0.00  0.00    -0.366 OA
ATOM      9  C   UNL     1      -1.238  -0.625  25.340  0.00  0.00    +0.167 C 
ATOM     10  C   UNL     1      -1.328  -2.010  24.707  0.00  0.00    +0.176 C 
ATOM     11  C   UNL     1      -2.719  -1.993  24.108  0.00  0.00    +0.175 C 
ATOM     12  C   UNL     1      -3.498  -1.235  25.168  0.00  0.00    +0.158 C 
ENDROOT
BRANCH  10   3
ATOM      3  O   UNL     1      -1.251  -2.979  25.751  0.00  0.00    -0.387 OA
ATOM     30  H   UNL     1      -1.139  -3.849  25.332  0.00  0.00    +0.210 HD
ENDBRANCH  10   3
BRANCH  11   4
ATOM      4  O   UNL     1      -3.246  -3.282  23.883  0.00  0.00    -0.387 OA
ATOM     31  H   UNL     1      -3.633  -3.589  24.720  0.00  0.00    +0.210 HD
ENDBRANCH  11   4
BRANCH   9  13
ATOM     13  C   UNL     1      -0.690   0.430  24.389  0.00  0.00    +0.138 C 
BRANCH  13   7
ATOM      6  O   UNL     1       1.588   2.077  23.792  0.00  0.00    -0.276 OA
ATOM      7  N   UNL     1       0.551   0.005  23.784  0.00  0.00    -0.313 N 
ATOM     17  C   UNL     1       1.600   0.876  23.533  0.00  0.00    +0.216 C 
ATOM     29  H   UNL     1       0.640  -0.978  23.549  0.00  0.00    +0.149 HD
BRANCH  17  16
ATOM     16  C   UNL     1       2.795   0.181  22.872  0.00  0.00    +0.074 C 
BRANCH  16  18
ATOM     18  C   UNL     1       4.071   1.036  22.934  0.00  0.00    +0.009 C 
ATOM     21  C   UNL     1       5.227   0.307  23.610  0.00  0.00    +0.004 C 
ENDBRANCH  16  18
BRANCH  16  19
ATOM     19  C   UNL     1       2.440  -0.222  21.425  0.00  0.00    +0.009 C 
ATOM     22  C   UNL     1       0.996  -0.665  21.223  0.00  0.00    +0.004 C 
ENDBRANCH  16  19
ENDBRANCH  17  16
ENDBRANCH  13   7
ENDBRANCH   9  13
BRANCH  12  14
ATOM     14  C   UNL     1      -4.742  -0.551  24.629  0.00  0.00    +0.130 C 
BRANCH  14  15
ATOM      5  O   UNL     1      -3.974   1.496  23.593  0.00  0.00    -0.276 OA
ATOM      8  N   UNL     1      -5.186   1.614  25.573  0.00  0.00    -0.311 N 
ATOM     15  C   UNL     1      -4.577   0.954  24.515  0.00  0.00    +0.216 C 
ATOM     32  H   UNL     1      -5.676   1.072  26.279  0.00  0.00    +0.149 HD
BRANCH   8  20
ATOM     20  C   UNL     1      -5.179   3.052  25.714  0.00  0.00    +0.139 C 
BRANCH  20  23
ATOM      1  F   UNL     1      -0.060   5.231  24.847  0.00  0.00    -0.205 F 
ATOM     23  C   UNL     1      -3.814   3.633  25.483  0.00  0.00    -0.030 A 
ATOM     24  C   UNL     1      -3.629   4.611  24.506  0.00  0.00    +0.008 A 
ATOM     25  C   UNL     1      -2.731   3.195  26.245  0.00  0.00    +0.008 A 
ATOM     26  C   UNL     1      -2.361   5.151  24.291  0.00  0.00    +0.038 A 
ATOM     27  C   UNL     1      -1.463   3.734  26.030  0.00  0.00    +0.038 A 
ATOM     28  C   UNL     1      -1.278   4.712  25.053  0.00  0.00    +0.123 A 
ENDBRANCH  20  23
ENDBRANCH   8  20
ENDBRANCH  14  15
ENDBRANCH  12  14
TORSDOF 11
ENDMDL
MODEL 10
REMARK VINA RESULT:      -3.2     15.935     18.309
REMARK  Name = 40777875
REMARK  13 active torsions:
REMARK  status: ('A' for Active; 'I' for Inactive)
REMARK    1  A    between atoms: O_3  and  C_10
REMARK    2  A    between atoms: O_4  and  C_11
REMARK    3  A    between atoms: N_7  and  C_13
REMARK    4  A    between atoms: N_8  and  C_20
REMARK    5  A    between atoms: C_9  and  C_13
REMARK    6  A    between atoms: C_12  and  C_14
REMARK    7  A    between atoms: C_14  and  C_15
REMARK    8  A    between atoms: C_16  and  C_17
REMARK    9  A    between atoms: C_16  and  C_18
REMARK   10  A    between atoms: C_16  and  C_19
REMARK   11  A    between atoms: C_18  and  C_21
REMARK   12  A    between atoms: C_19  and  C_22
REMARK   13  A    between atoms: C_20  and  C_23
REMARK                            x       y       z     vdW  Elec       q    Type
REMARK                         _______ _______ _______ _____ _____    ______ ____
ROOT
ATOM      2  O   UNL     1      14.985  -5.531  29.772  0.00  0.00    -0.366 OA
ATOM      9  C   UNL     1      14.092  -6.668  29.799  0.00  0.00    +0.167 C 
ATOM     10  C   UNL     1      14.967  -7.896  30.024  0.00  0.00    +0.176 C 
ATOM     11  C   UNL     1      16.131  -7.316  30.801  0.00  0.00    +0.175 C 
ATOM     12  C   UNL     1      16.310  -5.970  30.122  0.00  0.00    +0.158 C 
ENDROOT
BRANCH  10   3
ATOM      3  O   UNL     1      15.407  -8.366  28.751  0.00  0.00    -0.387 OA
ATOM     30  H   UNL     1      14.626  -8.415  28.173  0.00  0.00    +0.210 HD
ENDBRANCH  10   3
BRANCH  11   4
ATOM      4  O   UNL     1      17.298  -8.106  30.731  0.00  0.00    -0.387 OA
ATOM     31  H   UNL     1      17.064  -9.001  31.028  0.00  0.00    +0.210 HD
ENDBRANCH  11   4
BRANCH   9  13
ATOM     13  C   UNL     1      13.083  -6.441  30.916  0.00  0.00    +0.138 C 
BRANCH  13   7
ATOM      6  O   UNL     1      10.760  -6.807  32.567  0.00  0.00    -0.276 OA
ATOM      7  N   UNL     1      12.577  -7.692  31.434  0.00  0.00    -0.313 N 
ATOM     17  C   UNL     1      11.443  -7.771  32.227  0.00  0.00    +0.216 C 
ATOM     29  H   UNL     1      13.084  -8.536  31.188  0.00  0.00    +0.149 HD
BRANCH  17  16
ATOM     16  C   UNL     1      11.127  -9.206  32.659  0.00  0.00    +0.074 C 
BRANCH  16  18
ATOM     18  C   UNL     1      12.233 -10.193  32.249  0.00  0.00    +0.009 C 
ATOM     21  C   UNL     1      12.041 -10.727  30.834  0.00  0.00    +0.004 C 
ENDBRANCH  16  18
BRANCH  16  19
ATOM     19  C   UNL     1       9.745  -9.631  32.121  0.00  0.00    +0.009 C 
ATOM     22  C   UNL     1       8.739  -8.495  31.981  0.00  0.00    +0.004 C 
ENDBRANCH  16  19
ENDBRANCH  17  16
ENDBRANCH  13   7
ENDBRANCH   9  13
BRANCH  12  14
ATOM     14  C   UNL     1      16.975  -4.932  31.007  0.00  0.00    +0.130 C 
BRANCH  14  15
ATOM      5  O   UNL     1      16.834  -2.517  30.982  0.00  0.00    -0.276 OA
ATOM      8  N   UNL     1      17.303  -3.645  29.005  0.00  0.00    -0.311 N 
ATOM     15  C   UNL     1      17.024  -3.559  30.361  0.00  0.00    +0.216 C 
ATOM     32  H   UNL     1      17.461  -4.558  28.588  0.00  0.00    +0.149 HD
BRANCH   8  20
ATOM     20  C   UNL     1      17.405  -2.487  28.146  0.00  0.00    +0.139 C 
BRANCH  20  23
ATOM      1  F   UNL     1      16.763  -3.826  22.714  0.00  0.00    -0.205 F 
ATOM     23  C   UNL     1      17.234  -2.845  26.698  0.00  0.00    -0.030 A 
ATOM     24  C   UNL     1      16.903  -1.856  25.771  0.00  0.00    +0.008 A 
ATOM     25  C   UNL     1      17.405  -4.163  26.279  0.00  0.00    +0.008 A 
ATOM     26  C   UNL     1      16.744  -2.187  24.425  0.00  0.00    +0.038 A 
ATOM     27  C   UNL     1      17.246  -4.496  24.935  0.00  0.00    +0.038 A 
ATOM     28  C   UNL     1      16.915  -3.507  24.007  0.00  0.00    +0.123 A 
ENDBRANCH  20  23
ENDBRANCH   8  20
ENDBRANCH  14  15
ENDBRANCH  12  14
TORSDOF 11
ENDMDL
