MODEL 1
REMARK VINA RESULT:       1.8      0.000      0.000
REMARK  Name = 75536044
REMARK  8 active torsions:
REMARK  status: ('A' for Active; 'I' for Inactive)
REMARK    1  A    between atoms: O_3  and  C_11
REMARK    2  A    between atoms: O_4  and  C_18
REMARK    3  A    between atoms: N_6  and  C_9
REMARK    4  A    between atoms: N_7  and  C_19
REMARK    5  A    between atoms: N_8  and  C_15
REMARK    6  A    between atoms: C_10  and  C_15
REMARK    7  A    between atoms: C_12  and  C_18
REMARK    8  A    between atoms: C_20  and  C_25
REMARK                            x       y       z     vdW  Elec       q    Type
REMARK                         _______ _______ _______ _____ _____    ______ ____
ROOT
ATOM      2  O   UNL     1      -5.550   3.162  24.587  0.00  0.00    -0.365 OA
ATOM      9  C   UNL     1      -3.314   2.796  23.857  0.00  0.00    +0.118 C 
ATOM     10  C   UNL     1      -4.635   2.106  24.218  0.00  0.00    +0.155 C 
ATOM     11  C   UNL     1      -3.373   4.089  24.658  0.00  0.00    +0.165 C 
ATOM     12  C   UNL     1      -4.855   4.423  24.541  0.00  0.00    +0.174 C 
ENDROOT
BRANCH   9   6
ATOM      6  N   UNL     1      -2.107   2.009  24.040  0.00  0.00    -0.292 NA
ATOM      7  N   UNL     1       0.594   1.223  23.546  0.00  0.00    -0.327 N 
ATOM     13  C   UNL     1      -1.752   1.313  22.797  0.00  0.00    +0.104 C 
ATOM     14  C   UNL     1      -0.994   2.864  24.470  0.00  0.00    +0.104 C 
ATOM     16  C   UNL     1      -0.514   0.435  22.993  0.00  0.00    +0.120 C 
ATOM     17  C   UNL     1       0.269   2.038  24.720  0.00  0.00    +0.120 C 
BRANCH   7  19
ATOM     19  C   UNL     1       1.895   0.738  23.376  0.00  0.00    +0.030 A 
ATOM     21  C   UNL     1       2.166  -0.617  23.569  0.00  0.00    +0.023 A 
ATOM     22  C   UNL     1       2.923   1.609  23.014  0.00  0.00    +0.023 A 
ATOM     23  C   UNL     1       3.463  -1.101  23.400  0.00  0.00    +0.002 A 
ATOM     24  C   UNL     1       4.220   1.125  22.845  0.00  0.00    +0.002 A 
ATOM     26  C   UNL     1       4.491  -0.230  23.038  0.00  0.00    +0.000 A 
ENDBRANCH   7  19
ENDBRANCH   9   6
BRANCH  11   3
ATOM      3  O   UNL     1      -3.017   3.876  26.018  0.00  0.00    -0.388 OA
ATOM     30  H   UNL     1      -3.206   2.948  26.229  0.00  0.00    +0.210 HD
ENDBRANCH  11   3
BRANCH  10  15
ATOM     15  C   UNL     1      -4.596   1.117  25.378  0.00  0.00    +0.137 C 
BRANCH  15   8
ATOM      5  O   UNL     1      -4.464  -1.603  24.467  0.00  0.00    -0.270 OA
ATOM      8  N   UNL     1      -3.427   0.292  25.315  0.00  0.00    -0.308 N 
ATOM     20  C   UNL     1      -3.454  -1.023  24.856  0.00  0.00    +0.251 C 
ATOM     31  H   UNL     1      -2.547   0.686  25.633  0.00  0.00    +0.149 HD
BRANCH  20  25
ATOM      1  S   UNL     1      -0.915  -1.214  25.923  0.00  0.00    -0.092 S 
ATOM     25  C   UNL     1      -2.161  -1.755  24.878  0.00  0.00    +0.074 A 
ATOM     27  C   UNL     1      -1.782  -2.861  24.150  0.00  0.00    +0.021 A 
ATOM     28  C   UNL     1      -0.451  -3.271  24.454  0.00  0.00    +0.008 A 
ATOM     29  C   UNL     1       0.135  -2.462  25.403  0.00  0.00    +0.046 A 
ENDBRANCH  20  25
ENDBRANCH  15   8
ENDBRANCH  10  15
BRANCH  12  18
ATOM     18  C   UNL     1      -5.405   5.337  25.622  0.00  0.00    +0.190 C 
BRANCH  18   4
ATOM      4  O   UNL     1      -6.670   4.848  26.037  0.00  0.00    -0.392 OA
ATOM     32  H   UNL     1      -6.789   5.113  26.964  0.00  0.00    +0.210 HD
ENDBRANCH  18   4
ENDBRANCH  12  18
TORSDOF 8
ENDMDL
MODEL 2
REMARK VINA RESULT:       2.1      1.700      2.413
REMARK  Name = 75536044
REMARK  8 active torsions:
REMARK  status: ('A' for Active; 'I' for Inactive)
REMARK    1  A    between atoms: O_3  and  C_11
REMARK    2  A    between atoms: O_4  and  C_18
REMARK    3  A    between atoms: N_6  and  C_9
REMARK    4  A    between atoms: N_7  and  C_19
REMARK    5  A    between atoms: N_8  and  C_15
REMARK    6  A    between atoms: C_10  and  C_15
REMARK    7  A    between atoms: C_12  and  C_18
REMARK    8  A    between atoms: C_20  and  C_25
REMARK                            x       y       z     vdW  Elec       q    Type
REMARK                         _______ _______ _______ _____ _____    ______ ____
ROOT
ATOM      2  O   UNL     1      -5.156   3.918  24.708  0.00  0.00    -0.365 OA
ATOM      9  C   UNL     1      -2.906   3.982  25.482  0.00  0.00    +0.118 C 
ATOM     10  C   UNL     1      -3.802   4.116  24.245  0.00  0.00    +0.155 C 
ATOM     11  C   UNL     1      -3.726   3.091  26.403  0.00  0.00    +0.165 C 
ATOM     12  C   UNL     1      -5.131   3.606  26.114  0.00  0.00    +0.174 C 
ENDROOT
BRANCH   9   6
ATOM      6  N   UNL     1      -1.543   3.538  25.243  0.00  0.00    -0.292 NA
ATOM      7  N   UNL     1       0.512   1.958  24.045  0.00  0.00    -0.327 N 
ATOM     13  C   UNL     1      -1.393   2.122  25.599  0.00  0.00    +0.104 C 
ATOM     14  C   UNL     1      -1.174   3.741  23.837  0.00  0.00    +0.104 C 
ATOM     16  C   UNL     1       0.051   1.657  25.407  0.00  0.00    +0.120 C 
ATOM     17  C   UNL     1       0.278   3.329  23.585  0.00  0.00    +0.120 C 
BRANCH   7  19
ATOM     19  C   UNL     1       1.598   1.233  23.543  0.00  0.00    +0.030 A 
ATOM     21  C   UNL     1       2.810   1.875  23.292  0.00  0.00    +0.023 A 
ATOM     22  C   UNL     1       1.469  -0.134  23.292  0.00  0.00    +0.023 A 
ATOM     23  C   UNL     1       3.893   1.152  22.791  0.00  0.00    +0.002 A 
ATOM     24  C   UNL     1       2.551  -0.856  22.791  0.00  0.00    +0.002 A 
ATOM     26  C   UNL     1       3.764  -0.214  22.540  0.00  0.00    +0.000 A 
ENDBRANCH   7  19
ENDBRANCH   9   6
BRANCH  11   3
ATOM      3  O   UNL     1      -3.615   1.721  26.039  0.00  0.00    -0.388 OA
ATOM     30  H   UNL     1      -2.708   1.573  25.724  0.00  0.00    +0.210 HD
ENDBRANCH  11   3
BRANCH  10  15
ATOM     15  C   UNL     1      -3.562   3.121  23.114  0.00  0.00    +0.137 C 
BRANCH  15   8
ATOM      5  O   UNL     1      -1.945   0.882  22.329  0.00  0.00    -0.270 OA
ATOM      8  N   UNL     1      -3.686   1.773  23.578  0.00  0.00    -0.308 N 
ATOM     20  C   UNL     1      -2.855   0.743  23.142  0.00  0.00    +0.251 C 
ATOM     31  H   UNL     1      -4.425   1.562  24.242  0.00  0.00    +0.149 HD
BRANCH  20  25
ATOM      1  S   UNL     1      -1.897  -1.418  24.566  0.00  0.00    -0.092 S 
ATOM     25  C   UNL     1      -3.130  -0.607  23.698  0.00  0.00    +0.074 A 
ATOM     27  C   UNL     1      -4.285  -1.353  23.622  0.00  0.00    +0.021 A 
ATOM     28  C   UNL     1      -4.157  -2.607  24.285  0.00  0.00    +0.008 A 
ATOM     29  C   UNL     1      -2.908  -2.772  24.843  0.00  0.00    +0.046 A 
ENDBRANCH  20  25
ENDBRANCH  15   8
ENDBRANCH  10  15
BRANCH  12  18
ATOM     18  C   UNL     1      -6.259   2.642  26.434  0.00  0.00    +0.190 C 
BRANCH  18   4
ATOM      4  O   UNL     1      -6.595   1.924  25.258  0.00  0.00    -0.392 OA
ATOM     32  H   UNL     1      -6.923   2.571  24.611  0.00  0.00    +0.210 HD
ENDBRANCH  18   4
ENDBRANCH  12  18
TORSDOF 8
ENDMDL
MODEL 3
REMARK VINA RESULT:       4.1      3.118      7.537
REMARK  Name = 75536044
REMARK  8 active torsions:
REMARK  status: ('A' for Active; 'I' for Inactive)
REMARK    1  A    between atoms: O_3  and  C_11
REMARK    2  A    between atoms: O_4  and  C_18
REMARK    3  A    between atoms: N_6  and  C_9
REMARK    4  A    between atoms: N_7  and  C_19
REMARK    5  A    between atoms: N_8  and  C_15
REMARK    6  A    between atoms: C_10  and  C_15
REMARK    7  A    between atoms: C_12  and  C_18
REMARK    8  A    between atoms: C_20  and  C_25
REMARK                            x       y       z     vdW  Elec       q    Type
REMARK                         _______ _______ _______ _____ _____    ______ ____
ROOT
ATOM      2  O   UNL     1       3.318   0.846  23.456  0.00  0.00    -0.365 OA
ATOM      9  C   UNL     1       1.173   0.323  22.566  0.00  0.00    +0.118 C 
ATOM     10  C   UNL     1       1.973   1.363  23.361  0.00  0.00    +0.155 C 
ATOM     11  C   UNL     1       1.931  -0.969  22.834  0.00  0.00    +0.165 C 
ATOM     12  C   UNL     1       3.366  -0.456  22.840  0.00  0.00    +0.174 C 
ENDROOT
BRANCH   9   6
ATOM      6  N   UNL     1      -0.254   0.270  22.832  0.00  0.00    -0.292 NA
ATOM      7  N   UNL     1      -2.707   1.052  24.069  0.00  0.00    -0.327 N 
ATOM     13  C   UNL     1      -0.503  -0.038  24.245  0.00  0.00    +0.104 C 
ATOM     14  C   UNL     1      -0.891   1.544  22.478  0.00  0.00    +0.104 C 
ATOM     16  C   UNL     1      -2.003  -0.153  24.526  0.00  0.00    +0.120 C 
ATOM     17  C   UNL     1      -2.404   1.482  22.701  0.00  0.00    +0.120 C 
BRANCH   7  19
ATOM     19  C   UNL     1      -3.960   1.332  24.624  0.00  0.00    +0.030 A 
ATOM     21  C   UNL     1      -4.607   2.530  24.320  0.00  0.00    +0.023 A 
ATOM     22  C   UNL     1      -4.564   0.413  25.482  0.00  0.00    +0.023 A 
ATOM     23  C   UNL     1      -5.856   2.809  24.873  0.00  0.00    +0.002 A 
ATOM     24  C   UNL     1      -5.813   0.692  26.036  0.00  0.00    +0.002 A 
ATOM     26  C   UNL     1      -6.460   1.890  25.732  0.00  0.00    +0.000 A 
ENDBRANCH   7  19
ENDBRANCH   9   6
BRANCH  11   3
ATOM      3  O   UNL     1       1.595  -1.518  24.101  0.00  0.00    -0.388 OA
ATOM     30  H   UNL     1       0.706  -1.903  24.028  0.00  0.00    +0.210 HD
ENDBRANCH  11   3
BRANCH  10  15
ATOM     15  C   UNL     1       1.499   1.652  24.781  0.00  0.00    +0.137 C 
BRANCH  15   8
ATOM      5  O   UNL     1      -0.235   2.318  26.971  0.00  0.00    -0.270 OA
ATOM      8  N   UNL     1       0.484   2.662  24.791  0.00  0.00    -0.308 N 
ATOM     20  C   UNL     1      -0.315   2.920  25.903  0.00  0.00    +0.251 C 
ATOM     31  H   UNL     1       0.337   3.199  23.942  0.00  0.00    +0.149 HD
BRANCH  20  25
ATOM      1  S   UNL     1      -1.019   5.304  24.705  0.00  0.00    -0.092 S 
ATOM     25  C   UNL     1      -1.342   3.982  25.745  0.00  0.00    +0.074 A 
ATOM     27  C   UNL     1      -2.582   4.079  26.335  0.00  0.00    +0.021 A 
ATOM     28  C   UNL     1      -3.278   5.254  25.928  0.00  0.00    +0.008 A 
ATOM     29  C   UNL     1      -2.541   6.010  25.042  0.00  0.00    +0.046 A 
ENDBRANCH  20  25
ENDBRANCH  15   8
ENDBRANCH  10  15
BRANCH  12  18
ATOM     18  C   UNL     1       4.367  -1.324  23.581  0.00  0.00    +0.190 C 
BRANCH  18   4
ATOM      4  O   UNL     1       5.165  -0.497  24.412  0.00  0.00    -0.392 OA
ATOM     32  H   UNL     1       5.217  -0.930  25.281  0.00  0.00    +0.210 HD
ENDBRANCH  18   4
ENDBRANCH  12  18
TORSDOF 8
ENDMDL
MODEL 4
REMARK VINA RESULT:       5.5      2.261      5.387
REMARK  Name = 75536044
REMARK  8 active torsions:
REMARK  status: ('A' for Active; 'I' for Inactive)
REMARK    1  A    between atoms: O_3  and  C_11
REMARK    2  A    between atoms: O_4  and  C_18
REMARK    3  A    between atoms: N_6  and  C_9
REMARK    4  A    between atoms: N_7  and  C_19
REMARK    5  A    between atoms: N_8  and  C_15
REMARK    6  A    between atoms: C_10  and  C_15
REMARK    7  A    between atoms: C_12  and  C_18
REMARK    8  A    between atoms: C_20  and  C_25
REMARK                            x       y       z     vdW  Elec       q    Type
REMARK                         _______ _______ _______ _____ _____    ______ ____
ROOT
ATOM      2  O   UNL     1      -0.138   4.916  24.726  0.00  0.00    -0.365 OA
ATOM      9  C   UNL     1      -1.493   3.353  25.903  0.00  0.00    +0.118 C 
ATOM     10  C   UNL     1      -0.182   3.529  25.126  0.00  0.00    +0.155 C 
ATOM     11  C   UNL     1      -2.377   4.453  25.335  0.00  0.00    +0.165 C 
ATOM     12  C   UNL     1      -1.354   5.566  25.143  0.00  0.00    +0.174 C 
ENDROOT
BRANCH   9   6
ATOM      6  N   UNL     1      -2.074   2.022  25.890  0.00  0.00    -0.292 NA
ATOM      7  N   UNL     1      -2.745  -0.519  24.772  0.00  0.00    -0.327 N 
ATOM     13  C   UNL     1      -3.099   1.919  24.844  0.00  0.00    +0.104 C 
ATOM     14  C   UNL     1      -1.035   1.008  25.674  0.00  0.00    +0.104 C 
ATOM     16  C   UNL     1      -3.760   0.539  24.857  0.00  0.00    +0.120 C 
ATOM     17  C   UNL     1      -1.627  -0.402  25.713  0.00  0.00    +0.120 C 
BRANCH   7  19
ATOM     19  C   UNL     1      -3.147  -1.782  24.325  0.00  0.00    +0.030 A 
ATOM     21  C   UNL     1      -4.465  -1.993  23.920  0.00  0.00    +0.023 A 
ATOM     22  C   UNL     1      -2.230  -2.833  24.286  0.00  0.00    +0.023 A 
ATOM     23  C   UNL     1      -4.866  -3.252  23.475  0.00  0.00    +0.002 A 
ATOM     24  C   UNL     1      -2.631  -4.092  23.841  0.00  0.00    +0.002 A 
ATOM     26  C   UNL     1      -3.949  -4.303  23.435  0.00  0.00    +0.000 A 
ENDBRANCH   7  19
ENDBRANCH   9   6
BRANCH  11   3
ATOM      3  O   UNL     1      -2.940   4.076  24.085  0.00  0.00    -0.388 OA
ATOM     30  H   UNL     1      -3.190   3.139  24.146  0.00  0.00    +0.210 HD
ENDBRANCH  11   3
BRANCH  10  15
ATOM     15  C   UNL     1      -0.017   2.689  23.864  0.00  0.00    +0.137 C 
BRANCH  15   8
ATOM      5  O   UNL     1       0.686   0.110  22.815  0.00  0.00    -0.270 OA
ATOM      8  N   UNL     1       1.297   2.128  23.786  0.00  0.00    -0.308 N 
ATOM     20  C   UNL     1       1.549   0.862  23.259  0.00  0.00    +0.251 C 
ATOM     31  H   UNL     1       2.073   2.675  24.146  0.00  0.00    +0.149 HD
BRANCH  20  25
ATOM      1  S   UNL     1       3.322  -1.201  23.726  0.00  0.00    -0.092 S 
ATOM     25  C   UNL     1       2.965   0.413  23.274  0.00  0.00    +0.074 A 
ATOM     27  C   UNL     1       4.101   1.127  22.965  0.00  0.00    +0.021 A 
ATOM     28  C   UNL     1       5.281   0.339  23.101  0.00  0.00    +0.008 A 
ATOM     29  C   UNL     1       5.001  -0.947  23.509  0.00  0.00    +0.046 A 
ENDBRANCH  20  25
ENDBRANCH  15   8
ENDBRANCH  10  15
BRANCH  12  18
ATOM     18  C   UNL     1      -1.728   6.630  24.127  0.00  0.00    +0.190 C 
BRANCH  18   4
ATOM      4  O   UNL     1      -3.068   6.419  23.714  0.00  0.00    -0.392 OA
ATOM     32  H   UNL     1      -3.610   7.106  24.137  0.00  0.00    +0.210 HD
ENDBRANCH  18   4
ENDBRANCH  12  18
TORSDOF 8
ENDMDL
