MODEL 1
REMARK VINA RESULT:      -0.7      0.000      0.000
REMARK  Name = 11913027
REMARK  4 active torsions:
REMARK  status: ('A' for Active; 'I' for Inactive)
REMARK    1  A    between atoms: N_4  and  C_10
REMARK    2  A    between atoms: N_5  and  C_11
REMARK    3  A    between atoms: C_14  and  C_15
REMARK    4  A    between atoms: C_18  and  C_27
REMARK                            x       y       z     vdW  Elec       q    Type
REMARK                         _______ _______ _______ _____ _____    ______ ____
ROOT
ATOM      1  O   UNL     1      -1.213  -0.958  26.435  0.00  0.00    -0.370 OA
ATOM      2  O   UNL     1      -2.967  -2.619  24.460  0.00  0.00    -0.370 OA
ATOM      8  C   UNL     1      -1.987  -1.584  24.275  0.00  0.00    +0.171 C 
ATOM      9  C   UNL     1      -2.155  -0.595  25.412  0.00  0.00    +0.171 C 
ATOM     10  C   UNL     1      -0.594  -2.137  24.471  0.00  0.00    +0.130 C 
ATOM     11  C   UNL     1      -3.568  -0.824  25.894  0.00  0.00    +0.130 C 
ATOM     12  C   UNL     1      -0.427  -2.068  25.979  0.00  0.00    +0.185 C 
ATOM     13  C   UNL     1      -3.790  -2.294  25.589  0.00  0.00    +0.185 C 
ENDROOT
BRANCH  11   5
ATOM      5  N   UNL     1      -4.489  -0.009  25.133  0.00  0.00    -0.306 N 
ATOM      6  N   UNL     1      -3.234   1.941  25.489  0.00  0.00    -0.219 NA
ATOM      7  N   UNL     1      -5.266   1.995  24.194  0.00  0.00    -0.223 NA
ATOM     26  C   UNL     1      -4.325   1.350  24.933  0.00  0.00    +0.216 A 
ATOM     27  C   UNL     1      -3.106   3.267  25.275  0.00  0.00    +0.049 A 
ATOM     28  C   UNL     1      -4.003   4.015  24.540  0.00  0.00    +0.043 A 
ATOM     29  C   UNL     1      -5.076   3.320  24.019  0.00  0.00    +0.116 A 
ATOM     31  H   UNL     1      -5.277  -0.449  24.669  0.00  0.00    +0.149 HD
BRANCH  27  18
ATOM     18  C   UNL     1      -1.893   3.944  25.888  0.00  0.00    +0.038 C 
ATOM     22  C   UNL     1      -0.620   3.111  25.702  0.00  0.00    +0.010 C 
ATOM     23  C   UNL     1      -1.485   5.304  25.304  0.00  0.00    +0.010 C 
ATOM     24  C   UNL     1      -0.086   3.540  24.343  0.00  0.00    +0.001 C 
ATOM     25  C   UNL     1      -0.445   5.017  24.218  0.00  0.00    +0.001 C 
ENDBRANCH  27  18
ENDBRANCH  11   5
BRANCH  10   4
ATOM      3  O   UNL     1      -0.972   0.502  23.321  0.00  0.00    -0.276 OA
ATOM      4  N   UNL     1       0.391  -1.325  23.798  0.00  0.00    -0.307 N 
ATOM     15  C   UNL     1       0.115  -0.070  23.280  0.00  0.00    +0.216 C 
ATOM     30  H   UNL     1       1.345  -1.672  23.764  0.00  0.00    +0.149 HD
BRANCH  15  14
ATOM     14  C   UNL     1       1.320   0.568  22.656  0.00  0.00    +0.075 C 
ATOM     16  C   UNL     1       2.205   1.186  23.741  0.00  0.00    +0.013 C 
ATOM     17  C   UNL     1       2.087  -0.466  21.829  0.00  0.00    +0.013 C 
ATOM     19  C   UNL     1       3.492   1.764  23.157  0.00  0.00    +0.001 C 
ATOM     20  C   UNL     1       3.375   0.116  21.251  0.00  0.00    +0.001 C 
ATOM     21  C   UNL     1       4.254   0.728  22.337  0.00  0.00    +0.000 C 
ENDBRANCH  15  14
ENDBRANCH  10   4
TORSDOF 4
ENDMDL
MODEL 2
REMARK VINA RESULT:       1.0     15.591     17.425
REMARK  Name = 11913027
REMARK  4 active torsions:
REMARK  status: ('A' for Active; 'I' for Inactive)
REMARK    1  A    between atoms: N_4  and  C_10
REMARK    2  A    between atoms: N_5  and  C_11
REMARK    3  A    between atoms: C_14  and  C_15
REMARK    4  A    between atoms: C_18  and  C_27
REMARK                            x       y       z     vdW  Elec       q    Type
REMARK                         _______ _______ _______ _____ _____    ______ ____
ROOT
ATOM      1  O   UNL     1      -4.014  -9.874  12.646  0.00  0.00    -0.370 OA
ATOM      2  O   UNL     1      -3.490 -10.643   9.668  0.00  0.00    -0.370 OA
ATOM      8  C   UNL     1      -2.942  -9.636  10.536  0.00  0.00    +0.171 C 
ATOM      9  C   UNL     1      -4.072  -9.135  11.415  0.00  0.00    +0.171 C 
ATOM     10  C   UNL     1      -1.966 -10.256  11.509  0.00  0.00    +0.130 C 
ATOM     11  C   UNL     1      -5.323  -9.493  10.647  0.00  0.00    +0.130 C 
ATOM     12  C   UNL     1      -2.881 -10.755  12.614  0.00  0.00    +0.185 C 
ATOM     13  C   UNL     1      -4.904 -10.739   9.890  0.00  0.00    +0.185 C 
ENDROOT
BRANCH  11   5
ATOM      5  N   UNL     1      -5.656  -8.432   9.722  0.00  0.00    -0.306 N 
ATOM      6  N   UNL     1      -7.962  -8.771   9.990  0.00  0.00    -0.219 NA
ATOM      7  N   UNL     1      -7.126  -7.059   8.515  0.00  0.00    -0.223 NA
ATOM     26  C   UNL     1      -6.953  -8.077   9.399  0.00  0.00    +0.216 A 
ATOM     27  C   UNL     1      -9.214  -8.398   9.653  0.00  0.00    +0.049 A 
ATOM     28  C   UNL     1      -9.498  -7.379   8.767  0.00  0.00    +0.043 A 
ATOM     29  C   UNL     1      -8.404  -6.738   8.222  0.00  0.00    +0.116 A 
ATOM     31  H   UNL     1      -4.913  -7.873   9.316  0.00  0.00    +0.149 HD
BRANCH  27  18
ATOM     18  C   UNL     1     -10.354  -9.163  10.303  0.00  0.00    +0.038 C 
ATOM     22  C   UNL     1     -10.038 -10.658  10.430  0.00  0.00    +0.010 C 
ATOM     23  C   UNL     1     -10.716  -8.779  11.745  0.00  0.00    +0.010 C 
ATOM     24  C   UNL     1      -9.296 -10.773  11.754  0.00  0.00    +0.001 C 
ATOM     25  C   UNL     1      -9.918  -9.714  12.657  0.00  0.00    +0.001 C 
ENDBRANCH  27  18
ENDBRANCH  11   5
BRANCH  10   4
ATOM      3  O   UNL     1       0.726  -9.741  10.554  0.00  0.00    -0.276 OA
ATOM      4  N   UNL     1      -1.032  -9.276  12.008  0.00  0.00    -0.307 N 
ATOM     15  C   UNL     1       0.239  -9.102  11.483  0.00  0.00    +0.216 C 
ATOM     30  H   UNL     1      -1.353  -8.645  12.736  0.00  0.00    +0.149 HD
BRANCH  15  14
ATOM     14  C   UNL     1       0.993  -8.001  12.167  0.00  0.00    +0.075 C 
ATOM     16  C   UNL     1       2.342  -7.784  11.477  0.00  0.00    +0.013 C 
ATOM     17  C   UNL     1       0.155  -6.721  12.174  0.00  0.00    +0.013 C 
ATOM     19  C   UNL     1       3.103  -6.609  12.083  0.00  0.00    +0.001 C 
ATOM     20  C   UNL     1       0.923  -5.547  12.777  0.00  0.00    +0.001 C 
ATOM     21  C   UNL     1       2.264  -5.334  12.084  0.00  0.00    +0.000 C 
ENDBRANCH  15  14
ENDBRANCH  10   4
TORSDOF 4
ENDMDL
MODEL 3
REMARK VINA RESULT:       3.3      2.139      4.503
REMARK  Name = 11913027
REMARK  4 active torsions:
REMARK  status: ('A' for Active; 'I' for Inactive)
REMARK    1  A    between atoms: N_4  and  C_10
REMARK    2  A    between atoms: N_5  and  C_11
REMARK    3  A    between atoms: C_14  and  C_15
REMARK    4  A    between atoms: C_18  and  C_27
REMARK                            x       y       z     vdW  Elec       q    Type
REMARK                         _______ _______ _______ _____ _____    ______ ____
ROOT
ATOM      1  O   UNL     1      -1.901   4.626  24.217  0.00  0.00    -0.370 OA
ATOM      2  O   UNL     1      -2.979   3.816  27.030  0.00  0.00    -0.370 OA
ATOM      8  C   UNL     1      -2.280   3.098  26.000  0.00  0.00    +0.171 C 
ATOM      9  C   UNL     1      -2.802   3.601  24.667  0.00  0.00    +0.171 C 
ATOM     10  C   UNL     1      -0.819   3.482  25.991  0.00  0.00    +0.130 C 
ATOM     11  C   UNL     1      -4.150   4.195  24.999  0.00  0.00    +0.130 C 
ATOM     12  C   UNL     1      -0.820   4.747  25.152  0.00  0.00    +0.185 C 
ATOM     13  C   UNL     1      -3.963   4.670  26.428  0.00  0.00    +0.185 C 
ENDROOT
BRANCH  11   5
ATOM      5  N   UNL     1      -5.170   3.170  24.941  0.00  0.00    -0.306 N 
ATOM      6  N   UNL     1      -3.593   1.459  24.642  0.00  0.00    -0.219 NA
ATOM      7  N   UNL     1      -5.951   0.968  24.732  0.00  0.00    -0.223 NA
ATOM     26  C   UNL     1      -4.897   1.826  24.766  0.00  0.00    +0.216 A 
ATOM     27  C   UNL     1      -3.362   0.141  24.473  0.00  0.00    +0.049 A 
ATOM     28  C   UNL     1      -4.360  -0.811  24.425  0.00  0.00    +0.043 A 
ATOM     29  C   UNL     1      -5.648  -0.336  24.560  0.00  0.00    +0.116 A 
ATOM     31  H   UNL     1      -6.141   3.426  25.085  0.00  0.00    +0.149 HD
BRANCH  27  18
ATOM     18  C   UNL     1      -1.912  -0.287  24.333  0.00  0.00    +0.038 C 
ATOM     22  C   UNL     1      -1.168  -0.225  25.672  0.00  0.00    +0.010 C 
ATOM     23  C   UNL     1      -1.653  -1.730  23.878  0.00  0.00    +0.010 C 
ATOM     24  C   UNL     1      -1.434  -1.581  26.312  0.00  0.00    +0.001 C 
ATOM     25  C   UNL     1      -1.501  -2.567  25.151  0.00  0.00    +0.001 C 
ENDBRANCH  27  18
ENDBRANCH  11   5
BRANCH  10   4
ATOM      3  O   UNL     1       0.458   3.550  23.384  0.00  0.00    -0.276 OA
ATOM      4  N   UNL     1      -0.011   2.452  25.383  0.00  0.00    -0.307 N 
ATOM     15  C   UNL     1       0.560   2.577  24.126  0.00  0.00    +0.216 C 
ATOM     30  H   UNL     1       0.195   1.625  25.936  0.00  0.00    +0.149 HD
BRANCH  15  14
ATOM     14  C   UNL     1       1.369   1.373  23.745  0.00  0.00    +0.075 C 
ATOM     16  C   UNL     1       0.616   0.548  22.698  0.00  0.00    +0.013 C 
ATOM     17  C   UNL     1       2.743   1.809  23.232  0.00  0.00    +0.013 C 
ATOM     19  C   UNL     1       1.446  -0.637  22.212  0.00  0.00    +0.001 C 
ATOM     20  C   UNL     1       3.567   0.620  22.744  0.00  0.00    +0.001 C 
ATOM     21  C   UNL     1       2.813  -0.196  21.699  0.00  0.00    +0.000 C 
ENDBRANCH  15  14
ENDBRANCH  10   4
TORSDOF 4
ENDMDL
MODEL 4
REMARK VINA RESULT:       3.3      2.149      6.292
REMARK  Name = 11913027
REMARK  4 active torsions:
REMARK  status: ('A' for Active; 'I' for Inactive)
REMARK    1  A    between atoms: N_4  and  C_10
REMARK    2  A    between atoms: N_5  and  C_11
REMARK    3  A    between atoms: C_14  and  C_15
REMARK    4  A    between atoms: C_18  and  C_27
REMARK                            x       y       z     vdW  Elec       q    Type
REMARK                         _______ _______ _______ _____ _____    ______ ____
ROOT
ATOM      1  O   UNL     1      -3.035   3.760  26.795  0.00  0.00    -0.370 OA
ATOM      2  O   UNL     1      -3.148   4.847  23.873  0.00  0.00    -0.370 OA
ATOM      8  C   UNL     1      -3.118   3.522  24.430  0.00  0.00    +0.171 C 
ATOM      9  C   UNL     1      -2.204   3.562  25.640  0.00  0.00    +0.171 C 
ATOM     10  C   UNL     1      -4.470   3.162  25.002  0.00  0.00    +0.130 C 
ATOM     11  C   UNL     1      -1.335   4.774  25.405  0.00  0.00    +0.130 C 
ATOM     12  C   UNL     1      -4.411   3.780  26.388  0.00  0.00    +0.185 C 
ATOM     13  C   UNL     1      -2.245   5.688  24.605  0.00  0.00    +0.185 C 
ENDROOT
BRANCH  11   5
ATOM      5  N   UNL     1      -0.176   4.408  24.619  0.00  0.00    -0.306 N 
ATOM      6  N   UNL     1      -0.642   2.116  24.796  0.00  0.00    -0.219 NA
ATOM      7  N   UNL     1       1.280   2.898  23.570  0.00  0.00    -0.223 NA
ATOM     26  C   UNL     1       0.164   3.102  24.320  0.00  0.00    +0.216 A 
ATOM     27  C   UNL     1      -0.280   0.854  24.486  0.00  0.00    +0.049 A 
ATOM     28  C   UNL     1       0.832   0.539  23.731  0.00  0.00    +0.043 A 
ATOM     29  C   UNL     1       1.583   1.612  23.296  0.00  0.00    +0.116 A 
ATOM     31  H   UNL     1       0.401   5.138  24.215  0.00  0.00    +0.149 HD
BRANCH  27  18
ATOM     18  C   UNL     1      -1.169  -0.261  25.009  0.00  0.00    +0.038 C 
ATOM     22  C   UNL     1      -0.935  -1.577  24.259  0.00  0.00    +0.010 C 
ATOM     23  C   UNL     1      -0.973  -0.677  26.474  0.00  0.00    +0.010 C 
ATOM     24  C   UNL     1       0.215  -2.236  25.007  0.00  0.00    +0.001 C 
ATOM     25  C   UNL     1       0.026  -1.837  26.466  0.00  0.00    +0.001 C 
ENDBRANCH  27  18
ENDBRANCH  11   5
BRANCH  10   4
ATOM      3  O   UNL     1      -3.575   1.178  23.081  0.00  0.00    -0.276 OA
ATOM      4  N   UNL     1      -4.642   1.731  25.075  0.00  0.00    -0.307 N 
ATOM     15  C   UNL     1      -4.177   0.860  24.104  0.00  0.00    +0.216 C 
ATOM     30  H   UNL     1      -5.071   1.349  25.914  0.00  0.00    +0.149 HD
BRANCH  15  14
ATOM     14  C   UNL     1      -4.467  -0.574  24.437  0.00  0.00    +0.075 C 
ATOM     16  C   UNL     1      -4.133  -1.467  23.239  0.00  0.00    +0.013 C 
ATOM     17  C   UNL     1      -3.679  -0.989  25.682  0.00  0.00    +0.013 C 
ATOM     19  C   UNL     1      -4.325  -2.945  23.567  0.00  0.00    +0.001 C 
ATOM     20  C   UNL     1      -3.871  -2.469  26.003  0.00  0.00    +0.001 C 
ATOM     21  C   UNL     1      -3.535  -3.354  24.807  0.00  0.00    +0.000 C 
ENDBRANCH  15  14
ENDBRANCH  10   4
TORSDOF 4
ENDMDL
