MODEL 1
REMARK VINA RESULT:      -6.5      0.000      0.000
REMARK  Name = 56775116
REMARK  8 active torsions:
REMARK  status: ('A' for Active; 'I' for Inactive)
REMARK    1  A    between atoms: O_3  and  C_15
REMARK    2  A    between atoms: O_3  and  C_20
REMARK    3  A    between atoms: N_4  and  C_10
REMARK    4  A    between atoms: N_5  and  C_13
REMARK    5  A    between atoms: C_10  and  C_14
REMARK    6  A    between atoms: C_13  and  C_15
REMARK    7  A    between atoms: C_14  and  C_16
REMARK    8  A    between atoms: C_16  and  C_17
REMARK                            x       y       z     vdW  Elec       q    Type
REMARK                         _______ _______ _______ _____ _____    ______ ____
ROOT
ATOM      1  O   UNL     1      -1.421   0.894  25.943  0.00  0.00    -0.364 OA
ATOM      2  O   UNL     1       0.693   2.713  23.789  0.00  0.00    -0.273 OA
ATOM      4  N   UNL     1      -2.079  -2.134  24.825  0.00  0.00    -0.298 NA
ATOM      5  N   UNL     1       0.374   0.410  23.911  0.00  0.00    -0.291 N 
ATOM      6  C   UNL     1      -0.267  -0.722  24.572  0.00  0.00    +0.120 C 
ATOM      7  C   UNL     1      -0.860  -0.416  25.944  0.00  0.00    +0.154 C 
ATOM      8  C   UNL     1      -1.477  -1.265  23.815  0.00  0.00    +0.109 C 
ATOM      9  C   UNL     1      -2.010  -1.417  26.104  0.00  0.00    +0.118 C 
ATOM     11  C   UNL     1       0.247   1.719  24.366  0.00  0.00    +0.242 C 
ATOM     12  C   UNL     1      -0.428   1.867  25.712  0.00  0.00    +0.256 C 
ENDROOT
BRANCH   4  10
ATOM     10  C   UNL     1      -3.431  -2.544  24.479  0.00  0.00    +0.085 C 
BRANCH  10  14
ATOM     14  C   UNL     1      -4.170  -1.401  23.783  0.00  0.00    +0.020 C 
BRANCH  14  16
ATOM     16  C   UNL     1      -4.879  -0.504  24.801  0.00  0.00    +0.036 C 
BRANCH  16  17
ATOM     17  C   UNL     1      -4.529   0.949  24.602  0.00  0.00    -0.047 A 
ATOM     18  C   UNL     1      -5.129   1.927  25.396  0.00  0.00    +0.003 A 
ATOM     19  C   UNL     1      -3.607   1.315  23.622  0.00  0.00    +0.003 A 
ATOM     21  C   UNL     1      -4.805   3.270  25.211  0.00  0.00    +0.000 A 
ATOM     22  C   UNL     1      -3.283   2.659  23.437  0.00  0.00    +0.000 A 
ATOM     23  C   UNL     1      -3.883   3.637  24.231  0.00  0.00    +0.000 A 
ENDBRANCH  16  17
ENDBRANCH  14  16
ENDBRANCH  10  14
ENDBRANCH   4  10
BRANCH   5  13
ATOM     13  C   UNL     1       1.091   0.134  22.672  0.00  0.00    +0.136 C 
BRANCH  13  15
ATOM     15  C   UNL     1       2.527  -0.277  22.939  0.00  0.00    +0.178 C 
BRANCH  15   3
ATOM      3  O   UNL     1       3.385   0.837  22.725  0.00  0.00    -0.381 OA
ATOM     20  C   UNL     1       4.721   0.548  23.115  0.00  0.00    +0.194 C 
ENDBRANCH  15   3
ENDBRANCH  13  15
ENDBRANCH   5  13
TORSDOF 7
ENDMDL
MODEL 2
REMARK VINA RESULT:      -4.7      2.085      3.876
REMARK  Name = 56775116
REMARK  8 active torsions:
REMARK  status: ('A' for Active; 'I' for Inactive)
REMARK    1  A    between atoms: O_3  and  C_15
REMARK    2  A    between atoms: O_3  and  C_20
REMARK    3  A    between atoms: N_4  and  C_10
REMARK    4  A    between atoms: N_5  and  C_13
REMARK    5  A    between atoms: C_10  and  C_14
REMARK    6  A    between atoms: C_13  and  C_15
REMARK    7  A    between atoms: C_14  and  C_16
REMARK    8  A    between atoms: C_16  and  C_17
REMARK                            x       y       z     vdW  Elec       q    Type
REMARK                         _______ _______ _______ _____ _____    ______ ____
ROOT
ATOM      1  O   UNL     1      -3.877  -2.049  24.948  0.00  0.00    -0.364 OA
ATOM      2  O   UNL     1      -0.441  -2.718  25.352  0.00  0.00    -0.273 OA
ATOM      4  N   UNL     1      -4.517   1.163  24.594  0.00  0.00    -0.298 NA
ATOM      5  N   UNL     1      -1.459  -0.826  24.456  0.00  0.00    -0.291 N 
ATOM      6  C   UNL     1      -2.688  -0.146  24.061  0.00  0.00    +0.120 C 
ATOM      7  C   UNL     1      -3.912  -1.048  23.934  0.00  0.00    +0.154 C 
ATOM      8  C   UNL     1      -3.162   0.894  25.073  0.00  0.00    +0.109 C 
ATOM      9  C   UNL     1      -5.105  -0.131  24.224  0.00  0.00    +0.118 C 
ATOM     11  C   UNL     1      -1.440  -2.138  24.923  0.00  0.00    +0.242 C 
ATOM     12  C   UNL     1      -2.751  -2.882  24.795  0.00  0.00    +0.256 C 
ENDROOT
BRANCH   4  10
ATOM     10  C   UNL     1      -5.320   1.894  25.562  0.00  0.00    +0.085 C 
BRANCH  10  14
ATOM     14  C   UNL     1      -5.062   3.395  25.439  0.00  0.00    +0.020 C 
BRANCH  14  16
ATOM     16  C   UNL     1      -4.072   3.872  26.506  0.00  0.00    +0.036 C 
BRANCH  16  17
ATOM     17  C   UNL     1      -2.698   4.097  25.929  0.00  0.00    -0.047 A 
ATOM     18  C   UNL     1      -2.410   5.284  25.253  0.00  0.00    +0.003 A 
ATOM     19  C   UNL     1      -1.715   3.119  26.069  0.00  0.00    +0.003 A 
ATOM     21  C   UNL     1      -1.139   5.491  24.719  0.00  0.00    +0.000 A 
ATOM     22  C   UNL     1      -0.443   3.327  25.535  0.00  0.00    +0.000 A 
ATOM     23  C   UNL     1      -0.155   4.512  24.860  0.00  0.00    +0.000 A 
ENDBRANCH  16  17
ENDBRANCH  14  16
ENDBRANCH  10  14
ENDBRANCH   4  10
BRANCH   5  13
ATOM     13  C   UNL     1      -0.232  -0.040  24.439  0.00  0.00    +0.136 C 
BRANCH  13  15
ATOM     15  C   UNL     1       0.506  -0.187  23.121  0.00  0.00    +0.178 C 
BRANCH  15   3
ATOM      3  O   UNL     1       1.614   0.704  23.098  0.00  0.00    -0.381 OA
ATOM     20  C   UNL     1       2.739   0.121  22.454  0.00  0.00    +0.194 C 
ENDBRANCH  15   3
ENDBRANCH  13  15
ENDBRANCH   5  13
TORSDOF 7
ENDMDL
MODEL 3
REMARK VINA RESULT:      -4.7      2.430      6.792
REMARK  Name = 56775116
REMARK  8 active torsions:
REMARK  status: ('A' for Active; 'I' for Inactive)
REMARK    1  A    between atoms: O_3  and  C_15
REMARK    2  A    between atoms: O_3  and  C_20
REMARK    3  A    between atoms: N_4  and  C_10
REMARK    4  A    between atoms: N_5  and  C_13
REMARK    5  A    between atoms: C_10  and  C_14
REMARK    6  A    between atoms: C_13  and  C_15
REMARK    7  A    between atoms: C_14  and  C_16
REMARK    8  A    between atoms: C_16  and  C_17
REMARK                            x       y       z     vdW  Elec       q    Type
REMARK                         _______ _______ _______ _____ _____    ______ ____
ROOT
ATOM      1  O   UNL     1      -2.361   3.986  25.857  0.00  0.00    -0.364 OA
ATOM      2  O   UNL     1      -5.619   2.847  26.569  0.00  0.00    -0.273 OA
ATOM      4  N   UNL     1      -0.732   1.988  23.806  0.00  0.00    -0.298 NA
ATOM      5  N   UNL     1      -4.238   2.279  24.784  0.00  0.00    -0.291 N 
ATOM      6  C   UNL     1      -2.975   2.475  24.078  0.00  0.00    +0.120 C 
ATOM      7  C   UNL     1      -2.212   3.740  24.461  0.00  0.00    +0.154 C 
ATOM      8  C   UNL     1      -1.945   1.384  24.358  0.00  0.00    +0.109 C 
ATOM      9  C   UNL     1      -0.740   3.402  24.201  0.00  0.00    +0.118 C 
ATOM     11  C   UNL     1      -4.609   3.039  25.890  0.00  0.00    +0.242 C 
ATOM     12  C   UNL     1      -3.711   4.220  26.186  0.00  0.00    +0.256 C 
ENDROOT
BRANCH   4  10
ATOM     10  C   UNL     1       0.478   1.293  24.217  0.00  0.00    +0.085 C 
BRANCH  10  14
ATOM     14  C   UNL     1       0.528  -0.100  23.589  0.00  0.00    +0.020 C 
BRANCH  14  16
ATOM     16  C   UNL     1       1.522  -0.144  22.425  0.00  0.00    +0.036 C 
BRANCH  16  17
ATOM     17  C   UNL     1       2.949  -0.173  22.913  0.00  0.00    -0.047 A 
ATOM     18  C   UNL     1       3.464  -1.332  23.494  0.00  0.00    +0.003 A 
ATOM     19  C   UNL     1       3.752   0.960  22.784  0.00  0.00    +0.003 A 
ATOM     21  C   UNL     1       4.783  -1.357  23.946  0.00  0.00    +0.000 A 
ATOM     22  C   UNL     1       5.071   0.934  23.236  0.00  0.00    +0.000 A 
ATOM     23  C   UNL     1       5.587  -0.224  23.817  0.00  0.00    +0.000 A 
ENDBRANCH  16  17
ENDBRANCH  14  16
ENDBRANCH  10  14
ENDBRANCH   4  10
BRANCH   5  13
ATOM     13  C   UNL     1      -5.077   1.173  24.343  0.00  0.00    +0.136 C 
BRANCH  13  15
ATOM     15  C   UNL     1      -4.650  -0.138  24.977  0.00  0.00    +0.178 C 
BRANCH  15   3
ATOM      3  O   UNL     1      -4.365  -1.086  23.956  0.00  0.00    -0.381 OA
ATOM     20  C   UNL     1      -3.638  -2.196  24.465  0.00  0.00    +0.194 C 
ENDBRANCH  15   3
ENDBRANCH  13  15
ENDBRANCH   5  13
TORSDOF 7
ENDMDL
MODEL 4
REMARK VINA RESULT:      -4.3      1.824      4.685
REMARK  Name = 56775116
REMARK  8 active torsions:
REMARK  status: ('A' for Active; 'I' for Inactive)
REMARK    1  A    between atoms: O_3  and  C_15
REMARK    2  A    between atoms: O_3  and  C_20
REMARK    3  A    between atoms: N_4  and  C_10
REMARK    4  A    between atoms: N_5  and  C_13
REMARK    5  A    between atoms: C_10  and  C_14
REMARK    6  A    between atoms: C_13  and  C_15
REMARK    7  A    between atoms: C_14  and  C_16
REMARK    8  A    between atoms: C_16  and  C_17
REMARK                            x       y       z     vdW  Elec       q    Type
REMARK                         _______ _______ _______ _____ _____    ______ ____
ROOT
ATOM      1  O   UNL     1       0.173   1.473  23.608  0.00  0.00    -0.364 OA
ATOM      2  O   UNL     1      -0.839  -1.902  23.645  0.00  0.00    -0.273 OA
ATOM      4  N   UNL     1      -1.171   3.232  26.048  0.00  0.00    -0.298 NA
ATOM      5  N   UNL     1      -0.905  -0.345  25.374  0.00  0.00    -0.291 N 
ATOM      6  C   UNL     1      -0.600   1.002  25.845  0.00  0.00    +0.120 C 
ATOM      7  C   UNL     1       0.392   1.778  24.983  0.00  0.00    +0.154 C 
ATOM      8  C   UNL     1      -1.811   1.932  25.854  0.00  0.00    +0.109 C 
ATOM      9  C   UNL     1       0.028   3.251  25.199  0.00  0.00    +0.118 C 
ATOM     11  C   UNL     1      -0.525  -0.808  24.117  0.00  0.00    +0.242 C 
ATOM     12  C   UNL     1       0.405   0.107  23.352  0.00  0.00    +0.256 C 
ENDROOT
BRANCH   4  10
ATOM     10  C   UNL     1      -2.068   4.346  25.782  0.00  0.00    +0.085 C 
BRANCH  10  14
ATOM     14  C   UNL     1      -2.244   4.538  24.276  0.00  0.00    +0.020 C 
BRANCH  14  16
ATOM     16  C   UNL     1      -3.726   4.609  23.899  0.00  0.00    +0.036 C 
BRANCH  16  17
ATOM     17  C   UNL     1      -4.507   3.466  24.495  0.00  0.00    -0.047 A 
ATOM     18  C   UNL     1      -5.329   3.684  25.601  0.00  0.00    +0.003 A 
ATOM     19  C   UNL     1      -4.406   2.190  23.941  0.00  0.00    +0.003 A 
ATOM     21  C   UNL     1      -6.050   2.625  26.153  0.00  0.00    +0.000 A 
ATOM     22  C   UNL     1      -5.129   1.131  24.493  0.00  0.00    +0.000 A 
ATOM     23  C   UNL     1      -5.950   1.349  25.598  0.00  0.00    +0.000 A 
ENDBRANCH  16  17
ENDBRANCH  14  16
ENDBRANCH  10  14
ENDBRANCH   4  10
BRANCH   5  13
ATOM     13  C   UNL     1      -1.722  -1.182  26.244  0.00  0.00    +0.136 C 
BRANCH  13  15
ATOM     15  C   UNL     1      -3.178  -1.178  25.814  0.00  0.00    +0.178 C 
BRANCH  15   3
ATOM      3  O   UNL     1      -3.521  -2.457  25.296  0.00  0.00    -0.381 OA
ATOM     20  C   UNL     1      -4.148  -2.354  24.025  0.00  0.00    +0.194 C 
ENDBRANCH  15   3
ENDBRANCH  13  15
ENDBRANCH   5  13
TORSDOF 7
ENDMDL
MODEL 5
REMARK VINA RESULT:      -4.3      2.272      4.442
REMARK  Name = 56775116
REMARK  8 active torsions:
REMARK  status: ('A' for Active; 'I' for Inactive)
REMARK    1  A    between atoms: O_3  and  C_15
REMARK    2  A    between atoms: O_3  and  C_20
REMARK    3  A    between atoms: N_4  and  C_10
REMARK    4  A    between atoms: N_5  and  C_13
REMARK    5  A    between atoms: C_10  and  C_14
REMARK    6  A    between atoms: C_13  and  C_15
REMARK    7  A    between atoms: C_14  and  C_16
REMARK    8  A    between atoms: C_16  and  C_17
REMARK                            x       y       z     vdW  Elec       q    Type
REMARK                         _______ _______ _______ _____ _____    ______ ____
ROOT
ATOM      1  O   UNL     1      -2.355   1.276  23.077  0.00  0.00    -0.364 OA
ATOM      2  O   UNL     1       0.863   0.844  24.448  0.00  0.00    -0.273 OA
ATOM      4  N   UNL     1      -4.115   3.569  24.657  0.00  0.00    -0.298 NA
ATOM      5  N   UNL     1      -0.580   2.657  24.668  0.00  0.00    -0.291 N 
ATOM      6  C   UNL     1      -1.847   3.287  24.310  0.00  0.00    +0.120 C 
ATOM      7  C   UNL     1      -2.544   2.688  23.092  0.00  0.00    +0.154 C 
ATOM      8  C   UNL     1      -2.919   3.154  25.389  0.00  0.00    +0.109 C 
ATOM      9  C   UNL     1      -4.035   2.957  23.324  0.00  0.00    +0.118 C 
ATOM     11  C   UNL     1      -0.152   1.456  24.110  0.00  0.00    +0.242 C 
ATOM     12  C   UNL     1      -0.989   0.952  22.954  0.00  0.00    +0.256 C 
ENDROOT
BRANCH   4  10
ATOM     10  C   UNL     1      -5.346   3.240  25.358  0.00  0.00    +0.085 C 
BRANCH  10  14
ATOM     14  C   UNL     1      -5.768   1.805  25.042  0.00  0.00    +0.020 C 
BRANCH  14  16
ATOM     16  C   UNL     1      -5.196   0.824  26.069  0.00  0.00    +0.036 C 
BRANCH  16  17
ATOM     17  C   UNL     1      -4.346  -0.235  25.413  0.00  0.00    -0.047 A 
ATOM     18  C   UNL     1      -4.799  -0.878  24.261  0.00  0.00    +0.003 A 
ATOM     19  C   UNL     1      -3.109  -0.573  25.961  0.00  0.00    +0.003 A 
ATOM     21  C   UNL     1      -4.014  -1.859  23.656  0.00  0.00    +0.000 A 
ATOM     22  C   UNL     1      -2.323  -1.553  25.355  0.00  0.00    +0.000 A 
ATOM     23  C   UNL     1      -2.775  -2.196  24.203  0.00  0.00    +0.000 A 
ENDBRANCH  16  17
ENDBRANCH  14  16
ENDBRANCH  10  14
ENDBRANCH   4  10
BRANCH   5  13
ATOM     13  C   UNL     1       0.199   3.290  25.724  0.00  0.00    +0.136 C 
BRANCH  13  15
ATOM     15  C   UNL     1       0.271   2.418  26.963  0.00  0.00    +0.178 C 
BRANCH  15   3
ATOM      3  O   UNL     1       1.465   2.711  27.679  0.00  0.00    -0.381 OA
ATOM     20  C   UNL     1       1.333   2.404  29.060  0.00  0.00    +0.194 C 
ENDBRANCH  15   3
ENDBRANCH  13  15
ENDBRANCH   5  13
TORSDOF 7
ENDMDL
MODEL 6
REMARK VINA RESULT:      -4.3      2.625      5.542
REMARK  Name = 56775116
REMARK  8 active torsions:
REMARK  status: ('A' for Active; 'I' for Inactive)
REMARK    1  A    between atoms: O_3  and  C_15
REMARK    2  A    between atoms: O_3  and  C_20
REMARK    3  A    between atoms: N_4  and  C_10
REMARK    4  A    between atoms: N_5  and  C_13
REMARK    5  A    between atoms: C_10  and  C_14
REMARK    6  A    between atoms: C_13  and  C_15
REMARK    7  A    between atoms: C_14  and  C_16
REMARK    8  A    between atoms: C_16  and  C_17
REMARK                            x       y       z     vdW  Elec       q    Type
REMARK                         _______ _______ _______ _____ _____    ______ ____
ROOT
ATOM      1  O   UNL     1      -1.898  -2.886  24.244  0.00  0.00    -0.364 OA
ATOM      2  O   UNL     1      -5.328  -2.752  23.449  0.00  0.00    -0.273 OA
ATOM      4  N   UNL     1      -0.551   0.101  24.584  0.00  0.00    -0.298 NA
ATOM      5  N   UNL     1      -3.992  -1.105  24.408  0.00  0.00    -0.291 N 
ATOM      6  C   UNL     1      -2.687  -0.711  24.929  0.00  0.00    +0.120 C 
ATOM      7  C   UNL     1      -1.736  -1.867  25.227  0.00  0.00    +0.154 C 
ATOM      8  C   UNL     1      -1.870   0.131  23.953  0.00  0.00    +0.109 C 
ATOM      9  C   UNL     1      -0.334  -1.273  25.057  0.00  0.00    +0.118 C 
ATOM     11  C   UNL     1      -4.273  -2.399  23.979  0.00  0.00    +0.242 C 
ATOM     12  C   UNL     1      -3.201  -3.422  24.283  0.00  0.00    +0.256 C 
ENDROOT
BRANCH   4  10
ATOM     10  C   UNL     1       0.506   0.568  23.700  0.00  0.00    +0.085 C 
BRANCH  10  14
ATOM     14  C   UNL     1       0.851   2.024  24.010  0.00  0.00    +0.020 C 
BRANCH  14  16
ATOM     16  C   UNL     1       0.461   2.389  25.445  0.00  0.00    +0.036 C 
BRANCH  16  17
ATOM     17  C   UNL     1      -0.635   3.424  25.478  0.00  0.00    -0.047 A 
ATOM     18  C   UNL     1      -0.459   4.647  24.829  0.00  0.00    +0.003 A 
ATOM     19  C   UNL     1      -1.822   3.160  26.159  0.00  0.00    +0.003 A 
ATOM     21  C   UNL     1      -1.472   5.604  24.860  0.00  0.00    +0.000 A 
ATOM     22  C   UNL     1      -2.836   4.118  26.190  0.00  0.00    +0.000 A 
ATOM     23  C   UNL     1      -2.660   5.340  25.541  0.00  0.00    +0.000 A 
ENDBRANCH  16  17
ENDBRANCH  14  16
ENDBRANCH  10  14
ENDBRANCH   4  10
BRANCH   5  13
ATOM     13  C   UNL     1      -4.989  -0.053  24.257  0.00  0.00    +0.136 C 
BRANCH  13  15
ATOM     15  C   UNL     1      -4.820   1.031  25.306  0.00  0.00    +0.178 C 
BRANCH  15   3
ATOM      3  O   UNL     1      -5.162   2.291  24.742  0.00  0.00    -0.381 OA
ATOM     20  C   UNL     1      -5.903   3.087  25.657  0.00  0.00    +0.194 C 
ENDBRANCH  15   3
ENDBRANCH  13  15
ENDBRANCH   5  13
TORSDOF 7
ENDMDL
MODEL 7
REMARK VINA RESULT:      -4.3      2.080      5.144
REMARK  Name = 56775116
REMARK  8 active torsions:
REMARK  status: ('A' for Active; 'I' for Inactive)
REMARK    1  A    between atoms: O_3  and  C_15
REMARK    2  A    between atoms: O_3  and  C_20
REMARK    3  A    between atoms: N_4  and  C_10
REMARK    4  A    between atoms: N_5  and  C_13
REMARK    5  A    between atoms: C_10  and  C_14
REMARK    6  A    between atoms: C_13  and  C_15
REMARK    7  A    between atoms: C_14  and  C_16
REMARK    8  A    between atoms: C_16  and  C_17
REMARK                            x       y       z     vdW  Elec       q    Type
REMARK                         _______ _______ _______ _____ _____    ______ ____
ROOT
ATOM      1  O   UNL     1      -0.181   2.528  26.034  0.00  0.00    -0.364 OA
ATOM      2  O   UNL     1      -3.237   4.228  26.468  0.00  0.00    -0.273 OA
ATOM      4  N   UNL     1      -0.099   0.743  23.266  0.00  0.00    -0.298 NA
ATOM      5  N   UNL     1      -2.324   3.354  24.514  0.00  0.00    -0.291 N 
ATOM      6  C   UNL     1      -1.208   2.683  23.855  0.00  0.00    +0.120 C 
ATOM      7  C   UNL     1       0.098   2.680  24.644  0.00  0.00    +0.154 C 
ATOM      8  C   UNL     1      -1.444   1.194  23.622  0.00  0.00    +0.109 C 
ATOM      9  C   UNL     1       0.834   1.420  24.176  0.00  0.00    +0.118 C 
ATOM     11  C   UNL     1      -2.288   3.744  25.849  0.00  0.00    +0.242 C 
ATOM     12  C   UNL     1      -0.936   3.614  26.518  0.00  0.00    +0.256 C 
ENDROOT
BRANCH   4  10
ATOM     10  C   UNL     1       0.034  -0.705  23.294  0.00  0.00    +0.085 C 
BRANCH  10  14
ATOM     14  C   UNL     1       0.244  -1.191  24.728  0.00  0.00    +0.020 C 
BRANCH  14  16
ATOM     16  C   UNL     1      -0.695  -2.354  25.058  0.00  0.00    +0.036 C 
BRANCH  16  17
ATOM     17  C   UNL     1      -2.141  -1.973  24.868  0.00  0.00    -0.047 A 
ATOM     18  C   UNL     1      -2.700  -0.948  25.632  0.00  0.00    +0.003 A 
ATOM     19  C   UNL     1      -2.921  -2.647  23.928  0.00  0.00    +0.003 A 
ATOM     21  C   UNL     1      -4.038  -0.597  25.456  0.00  0.00    +0.000 A 
ATOM     22  C   UNL     1      -4.260  -2.294  23.752  0.00  0.00    +0.000 A 
ATOM     23  C   UNL     1      -4.818  -1.270  24.516  0.00  0.00    +0.000 A 
ENDBRANCH  16  17
ENDBRANCH  14  16
ENDBRANCH  10  14
ENDBRANCH   4  10
BRANCH   5  13
ATOM     13  C   UNL     1      -3.546   3.522  23.737  0.00  0.00    +0.136 C 
BRANCH  13  15
ATOM     15  C   UNL     1      -4.522   2.385  23.979  0.00  0.00    +0.178 C 
BRANCH  15   3
ATOM      3  O   UNL     1      -5.416   2.744  25.024  0.00  0.00    -0.381 OA
ATOM     20  C   UNL     1      -6.570   1.914  25.031  0.00  0.00    +0.194 C 
ENDBRANCH  15   3
ENDBRANCH  13  15
ENDBRANCH   5  13
TORSDOF 7
ENDMDL
MODEL 8
REMARK VINA RESULT:      -4.2      2.306      6.712
REMARK  Name = 56775116
REMARK  8 active torsions:
REMARK  status: ('A' for Active; 'I' for Inactive)
REMARK    1  A    between atoms: O_3  and  C_15
REMARK    2  A    between atoms: O_3  and  C_20
REMARK    3  A    between atoms: N_4  and  C_10
REMARK    4  A    between atoms: N_5  and  C_13
REMARK    5  A    between atoms: C_10  and  C_14
REMARK    6  A    between atoms: C_13  and  C_15
REMARK    7  A    between atoms: C_14  and  C_16
REMARK    8  A    between atoms: C_16  and  C_17
REMARK                            x       y       z     vdW  Elec       q    Type
REMARK                         _______ _______ _______ _____ _____    ______ ____
ROOT
ATOM      1  O   UNL     1      -3.041  -0.461  24.364  0.00  0.00    -0.364 OA
ATOM      2  O   UNL     1      -5.895   1.604  24.467  0.00  0.00    -0.273 OA
ATOM      4  N   UNL     1      -0.230   1.237  24.617  0.00  0.00    -0.298 NA
ATOM      5  N   UNL     1      -3.736   2.069  25.202  0.00  0.00    -0.291 N 
ATOM      6  C   UNL     1      -2.368   1.605  25.413  0.00  0.00    +0.120 C 
ATOM      7  C   UNL     1      -2.185   0.091  25.360  0.00  0.00    +0.154 C 
ATOM      8  C   UNL     1      -1.391   2.082  24.341  0.00  0.00    +0.109 C 
ATOM      9  C   UNL     1      -0.738  -0.112  24.898  0.00  0.00    +0.118 C 
ATOM     11  C   UNL     1      -4.752   1.235  24.745  0.00  0.00    +0.242 C 
ATOM     12  C   UNL     1      -4.395  -0.234  24.680  0.00  0.00    +0.256 C 
ENDROOT
BRANCH   4  10
ATOM     10  C   UNL     1       0.749   1.260  23.541  0.00  0.00    +0.085 C 
BRANCH  10  14
ATOM     14  C   UNL     1       0.837  -0.114  22.875  0.00  0.00    +0.020 C 
BRANCH  14  16
ATOM     16  C   UNL     1       2.055  -0.201  21.952  0.00  0.00    +0.036 C 
BRANCH  16  17
ATOM     17  C   UNL     1       3.344  -0.238  22.733  0.00  0.00    -0.047 A 
ATOM     18  C   UNL     1       4.168   0.888  22.773  0.00  0.00    +0.003 A 
ATOM     19  C   UNL     1       3.713  -1.398  23.413  0.00  0.00    +0.003 A 
ATOM     21  C   UNL     1       5.361   0.852  23.495  0.00  0.00    +0.000 A 
ATOM     22  C   UNL     1       4.906  -1.432  24.136  0.00  0.00    +0.000 A 
ATOM     23  C   UNL     1       5.730  -0.308  24.176  0.00  0.00    +0.000 A 
ENDBRANCH  16  17
ENDBRANCH  14  16
ENDBRANCH  10  14
ENDBRANCH   4  10
BRANCH   5  13
ATOM     13  C   UNL     1      -3.990   3.490  25.398  0.00  0.00    +0.136 C 
BRANCH  13  15
ATOM     15  C   UNL     1      -2.952   4.123  26.307  0.00  0.00    +0.178 C 
BRANCH  15   3
ATOM      3  O   UNL     1      -2.475   5.325  25.715  0.00  0.00    -0.381 OA
ATOM     20  C   UNL     1      -1.243   5.119  25.038  0.00  0.00    +0.194 C 
ENDBRANCH  15   3
ENDBRANCH  13  15
ENDBRANCH   5  13
TORSDOF 7
ENDMDL
MODEL 9
REMARK VINA RESULT:      -3.7      2.235      4.312
REMARK  Name = 56775116
REMARK  8 active torsions:
REMARK  status: ('A' for Active; 'I' for Inactive)
REMARK    1  A    between atoms: O_3  and  C_15
REMARK    2  A    between atoms: O_3  and  C_20
REMARK    3  A    between atoms: N_4  and  C_10
REMARK    4  A    between atoms: N_5  and  C_13
REMARK    5  A    between atoms: C_10  and  C_14
REMARK    6  A    between atoms: C_13  and  C_15
REMARK    7  A    between atoms: C_14  and  C_16
REMARK    8  A    between atoms: C_16  and  C_17
REMARK                            x       y       z     vdW  Elec       q    Type
REMARK                         _______ _______ _______ _____ _____    ______ ____
ROOT
ATOM      1  O   UNL     1      -2.170   5.486  25.176  0.00  0.00    -0.364 OA
ATOM      2  O   UNL     1       0.604   4.586  23.197  0.00  0.00    -0.273 OA
ATOM      4  N   UNL     1      -4.097   2.917  25.910  0.00  0.00    -0.298 NA
ATOM      5  N   UNL     1      -0.730   3.227  24.535  0.00  0.00    -0.291 N 
ATOM      6  C   UNL     1      -1.835   3.115  25.482  0.00  0.00    +0.120 C 
ATOM      7  C   UNL     1      -2.266   4.429  26.128  0.00  0.00    +0.154 C 
ATOM      8  C   UNL     1      -3.135   2.631  24.847  0.00  0.00    +0.109 C 
ATOM      9  C   UNL     1      -3.749   4.233  26.461  0.00  0.00    +0.118 C 
ATOM     11  C   UNL     1      -0.262   4.450  24.063  0.00  0.00    +0.242 C 
ATOM     12  C   UNL     1      -0.837   5.666  24.756  0.00  0.00    +0.256 C 
ENDROOT
BRANCH   4  10
ATOM     10  C   UNL     1      -5.477   2.841  25.455  0.00  0.00    +0.085 C 
BRANCH  10  14
ATOM     14  C   UNL     1      -5.916   1.382  25.332  0.00  0.00    +0.020 C 
BRANCH  14  16
ATOM     16  C   UNL     1      -5.237   0.703  24.139  0.00  0.00    +0.036 C 
BRANCH  16  17
ATOM     17  C   UNL     1      -4.461  -0.519  24.562  0.00  0.00    -0.047 A 
ATOM     18  C   UNL     1      -4.391  -1.628  23.719  0.00  0.00    +0.003 A 
ATOM     19  C   UNL     1      -3.815  -0.541  25.798  0.00  0.00    +0.003 A 
ATOM     21  C   UNL     1      -3.675  -2.758  24.111  0.00  0.00    +0.000 A 
ATOM     22  C   UNL     1      -3.097  -1.671  26.190  0.00  0.00    +0.000 A 
ATOM     23  C   UNL     1      -3.028  -2.780  25.347  0.00  0.00    +0.000 A 
ENDBRANCH  16  17
ENDBRANCH  14  16
ENDBRANCH  10  14
ENDBRANCH   4  10
BRANCH   5  13
ATOM     13  C   UNL     1      -0.179   1.983  24.012  0.00  0.00    +0.136 C 
BRANCH  13  15
ATOM     15  C   UNL     1      -0.493   0.808  24.919  0.00  0.00    +0.178 C 
BRANCH  15   3
ATOM      3  O   UNL     1      -0.386  -0.402  24.180  0.00  0.00    -0.381 OA
ATOM     20  C   UNL     1       0.650  -0.329  23.210  0.00  0.00    +0.194 C 
ENDBRANCH  15   3
ENDBRANCH  13  15
ENDBRANCH   5  13
TORSDOF 7
ENDMDL
MODEL 10
REMARK VINA RESULT:      -3.3      2.203      6.723
REMARK  Name = 56775116
REMARK  8 active torsions:
REMARK  status: ('A' for Active; 'I' for Inactive)
REMARK    1  A    between atoms: O_3  and  C_15
REMARK    2  A    between atoms: O_3  and  C_20
REMARK    3  A    between atoms: N_4  and  C_10
REMARK    4  A    between atoms: N_5  and  C_13
REMARK    5  A    between atoms: C_10  and  C_14
REMARK    6  A    between atoms: C_13  and  C_15
REMARK    7  A    between atoms: C_14  and  C_16
REMARK    8  A    between atoms: C_16  and  C_17
REMARK                            x       y       z     vdW  Elec       q    Type
REMARK                         _______ _______ _______ _____ _____    ______ ____
ROOT
ATOM      1  O   UNL     1      -1.795  -2.235  24.776  0.00  0.00    -0.364 OA
ATOM      2  O   UNL     1      -5.070  -2.221  23.475  0.00  0.00    -0.273 OA
ATOM      4  N   UNL     1      -0.589   0.797  25.224  0.00  0.00    -0.298 NA
ATOM      5  N   UNL     1      -3.934  -0.512  24.573  0.00  0.00    -0.291 N 
ATOM      6  C   UNL     1      -2.732  -0.067  25.272  0.00  0.00    +0.120 C 
ATOM      7  C   UNL     1      -1.808  -1.187  25.741  0.00  0.00    +0.154 C 
ATOM      8  C   UNL     1      -1.799   0.773  24.404  0.00  0.00    +0.109 C 
ATOM      9  C   UNL     1      -0.411  -0.557  25.765  0.00  0.00    +0.118 C 
ATOM     11  C   UNL     1      -4.115  -1.824  24.146  0.00  0.00    +0.242 C 
ATOM     12  C   UNL     1      -3.075  -2.807  24.636  0.00  0.00    +0.256 C 
ENDROOT
BRANCH   4  10
ATOM     10  C   UNL     1       0.576   1.273  24.494  0.00  0.00    +0.085 C 
BRANCH  10  14
ATOM     14  C   UNL     1       0.467   0.893  23.017  0.00  0.00    +0.020 C 
BRANCH  14  16
ATOM     16  C   UNL     1       1.232  -0.401  22.724  0.00  0.00    +0.036 C 
BRANCH  16  17
ATOM     17  C   UNL     1       2.703  -0.256  23.018  0.00  0.00    -0.047 A 
ATOM     18  C   UNL     1       3.375   0.914  22.660  0.00  0.00    +0.003 A 
ATOM     19  C   UNL     1       3.393  -1.293  23.645  0.00  0.00    +0.003 A 
ATOM     21  C   UNL     1       4.736   1.046  22.931  0.00  0.00    +0.000 A 
ATOM     22  C   UNL     1       4.755  -1.160  23.917  0.00  0.00    +0.000 A 
ATOM     23  C   UNL     1       5.426   0.009  23.559  0.00  0.00    +0.000 A 
ENDBRANCH  16  17
ENDBRANCH  14  16
ENDBRANCH  10  14
ENDBRANCH   4  10
BRANCH   5  13
ATOM     13  C   UNL     1      -4.923   0.506  24.244  0.00  0.00    +0.136 C 
BRANCH  13  15
ATOM     15  C   UNL     1      -5.264   1.363  25.450  0.00  0.00    +0.178 C 
BRANCH  15   3
ATOM      3  O   UNL     1      -5.502   2.699  25.027  0.00  0.00    -0.381 OA
ATOM     20  C   UNL     1      -4.287   3.384  24.754  0.00  0.00    +0.194 C 
ENDBRANCH  15   3
ENDBRANCH  13  15
ENDBRANCH   5  13
TORSDOF 7
ENDMDL
