MODEL 1
REMARK VINA RESULT:      -2.0      0.000      0.000
REMARK  Name = 28961797
REMARK  10 active torsions:
REMARK  status: ('A' for Active; 'I' for Inactive)
REMARK    1  A    between atoms: O_4  and  C_13
REMARK    2  A    between atoms: O_5  and  C_19
REMARK    3  A    between atoms: O_5  and  C_22
REMARK    4  A    between atoms: O_6  and  C_20
REMARK    5  A    between atoms: N_8  and  C_10
REMARK    6  A    between atoms: N_9  and  C_18
REMARK    7  A    between atoms: C_11  and  C_19
REMARK    8  A    between atoms: C_12  and  C_18
REMARK    9  A    between atoms: C_15  and  C_20
REMARK   10  A    between atoms: C_21  and  C_23
REMARK                            x       y       z     vdW  Elec       q    Type
REMARK                         _______ _______ _______ _____ _____    ______ ____
ROOT
ATOM      3  O   UNL     1      -0.959   3.339  25.456  0.00  0.00    -0.365 OA
ATOM     10  C   UNL     1      -2.771   1.797  25.342  0.00  0.00    +0.118 C 
ATOM     12  C   UNL     1      -1.264   1.969  25.111  0.00  0.00    +0.155 C 
ATOM     13  C   UNL     1      -3.306   3.211  25.172  0.00  0.00    +0.165 C 
ATOM     15  C   UNL     1      -2.180   4.017  25.809  0.00  0.00    +0.174 C 
ENDROOT
BRANCH  10   8
ATOM      8  N   UNL     1      -3.432   0.783  24.539  0.00  0.00    -0.289 NA
ATOM     11  C   UNL     1      -2.883  -0.573  24.653  0.00  0.00    +0.083 C 
ATOM     14  C   UNL     1      -4.866   0.690  24.805  0.00  0.00    +0.085 C 
ATOM     16  C   UNL     1      -3.956  -1.380  23.925  0.00  0.00    +0.022 C 
ATOM     17  C   UNL     1      -5.267  -0.669  24.245  0.00  0.00    +0.017 C 
BRANCH  11  19
ATOM     19  C   UNL     1      -2.659  -1.092  26.076  0.00  0.00    +0.178 C 
BRANCH  19   5
ATOM      5  O   UNL     1      -1.271  -1.067  26.355  0.00  0.00    -0.381 OA
ATOM     22  C   UNL     1      -0.514  -1.662  25.307  0.00  0.00    +0.194 C 
ENDBRANCH  19   5
ENDBRANCH  11  19
ENDBRANCH  10   8
BRANCH  13   4
ATOM      4  O   UNL     1      -3.444   3.553  23.799  0.00  0.00    -0.388 OA
ATOM     29  H   UNL     1      -3.337   2.738  23.281  0.00  0.00    +0.210 HD
ENDBRANCH  13   4
BRANCH  12  18
ATOM     18  C   UNL     1      -0.759   1.739  23.690  0.00  0.00    +0.137 C 
BRANCH  18   9
ATOM      7  O   UNL     1       0.574  -0.363  22.258  0.00  0.00    -0.270 OA
ATOM      9  N   UNL     1       0.647   1.470  23.680  0.00  0.00    -0.309 N 
ATOM     21  C   UNL     1       1.212   0.424  22.953  0.00  0.00    +0.244 C 
ATOM     30  H   UNL     1       1.224   2.041  24.288  0.00  0.00    +0.149 HD
BRANCH  21  23
ATOM      1 CL   UNL     1       5.263  -2.616  24.093  0.00  0.00    -0.081 Cl
ATOM      2  F   UNL     1       6.780  -0.172  23.381  0.00  0.00    -0.204 F 
ATOM     23  C   UNL     1       2.684   0.263  23.068  0.00  0.00    +0.038 A 
ATOM     24  C   UNL     1       3.222  -0.957  23.479  0.00  0.00    +0.036 A 
ATOM     25  C   UNL     1       3.528   1.330  22.764  0.00  0.00    +0.016 A 
ATOM     26  C   UNL     1       4.604  -1.109  23.587  0.00  0.00    +0.077 A 
ATOM     27  C   UNL     1       4.910   1.179  22.873  0.00  0.00    +0.040 A 
ATOM     28  C   UNL     1       5.449  -0.041  23.283  0.00  0.00    +0.142 A 
ENDBRANCH  21  23
ENDBRANCH  18   9
ENDBRANCH  12  18
BRANCH  15  20
ATOM     20  C   UNL     1      -2.090   5.468  25.377  0.00  0.00    +0.190 C 
BRANCH  20   6
ATOM      6  O   UNL     1      -0.840   5.681  24.740  0.00  0.00    -0.392 OA
ATOM     31  H   UNL     1      -0.847   5.163  23.917  0.00  0.00    +0.210 HD
ENDBRANCH  20   6
ENDBRANCH  15  20
TORSDOF 9
ENDMDL
MODEL 2
REMARK VINA RESULT:      -1.1      4.306      7.344
REMARK  Name = 28961797
REMARK  10 active torsions:
REMARK  status: ('A' for Active; 'I' for Inactive)
REMARK    1  A    between atoms: O_4  and  C_13
REMARK    2  A    between atoms: O_5  and  C_19
REMARK    3  A    between atoms: O_5  and  C_22
REMARK    4  A    between atoms: O_6  and  C_20
REMARK    5  A    between atoms: N_8  and  C_10
REMARK    6  A    between atoms: N_9  and  C_18
REMARK    7  A    between atoms: C_11  and  C_19
REMARK    8  A    between atoms: C_12  and  C_18
REMARK    9  A    between atoms: C_15  and  C_20
REMARK   10  A    between atoms: C_21  and  C_23
REMARK                            x       y       z     vdW  Elec       q    Type
REMARK                         _______ _______ _______ _____ _____    ______ ____
ROOT
ATOM      3  O   UNL     1       0.725  -1.160  23.748  0.00  0.00    -0.365 OA
ATOM     10  C   UNL     1       0.342   1.001  24.672  0.00  0.00    +0.118 C 
ATOM     12  C   UNL     1      -0.055  -0.479  24.755  0.00  0.00    +0.155 C 
ATOM     13  C   UNL     1       0.808   1.149  23.231  0.00  0.00    +0.165 C 
ATOM     15  C   UNL     1       1.506  -0.190  23.023  0.00  0.00    +0.174 C 
ENDROOT
BRANCH  10   8
ATOM      8  N   UNL     1      -0.662   1.960  25.099  0.00  0.00    -0.289 NA
ATOM     11  C   UNL     1      -0.655   2.290  26.529  0.00  0.00    +0.083 C 
ATOM     14  C   UNL     1      -0.595   3.223  24.366  0.00  0.00    +0.085 C 
ATOM     16  C   UNL     1      -1.610   3.481  26.555  0.00  0.00    +0.022 C 
ATOM     17  C   UNL     1      -1.371   4.206  25.234  0.00  0.00    +0.017 C 
BRANCH  11  19
ATOM     19  C   UNL     1       0.707   2.650  27.131  0.00  0.00    +0.178 C 
BRANCH  19   5
ATOM      5  O   UNL     1       0.721   2.253  28.490  0.00  0.00    -0.381 OA
ATOM     22  C   UNL     1       1.955   2.578  29.120  0.00  0.00    +0.194 C 
ENDBRANCH  19   5
ENDBRANCH  11  19
ENDBRANCH  10   8
BRANCH  13   4
ATOM      4  O   UNL     1      -0.290   1.279  22.339  0.00  0.00    -0.388 OA
ATOM     29  H   UNL     1       0.008   0.984  21.462  0.00  0.00    +0.210 HD
ENDBRANCH  13   4
BRANCH  12  18
ATOM     18  C   UNL     1      -1.521  -0.810  24.492  0.00  0.00    +0.137 C 
BRANCH  18   9
ATOM      7  O   UNL     1      -4.369  -0.674  24.153  0.00  0.00    -0.270 OA
ATOM      9  N   UNL     1      -2.358   0.323  24.745  0.00  0.00    -0.309 N 
ATOM     21  C   UNL     1      -3.738   0.301  24.553  0.00  0.00    +0.244 C 
ATOM     30  H   UNL     1      -1.892   1.183  25.011  0.00  0.00    +0.149 HD
BRANCH  21  23
ATOM      1 CL   UNL     1      -4.283   5.390  23.676  0.00  0.00    -0.081 Cl
ATOM      2  F   UNL     1      -6.486   5.078  25.634  0.00  0.00    -0.204 F 
ATOM     23  C   UNL     1      -4.462   1.567  24.837  0.00  0.00    +0.038 A 
ATOM     24  C   UNL     1      -4.079   2.747  24.200  0.00  0.00    +0.036 A 
ATOM     25  C   UNL     1      -5.525   1.575  25.740  0.00  0.00    +0.016 A 
ATOM     26  C   UNL     1      -4.759   3.936  24.466  0.00  0.00    +0.077 A 
ATOM     27  C   UNL     1      -6.204   2.764  26.006  0.00  0.00    +0.040 A 
ATOM     28  C   UNL     1      -5.822   3.944  25.369  0.00  0.00    +0.142 A 
ENDBRANCH  21  23
ENDBRANCH  18   9
ENDBRANCH  12  18
BRANCH  15  20
ATOM     20  C   UNL     1       1.644  -0.637  21.580  0.00  0.00    +0.190 C 
BRANCH  20   6
ATOM      6  O   UNL     1       2.684   0.106  20.966  0.00  0.00    -0.392 OA
ATOM     31  H   UNL     1       2.285   0.920  20.614  0.00  0.00    +0.210 HD
ENDBRANCH  20   6
ENDBRANCH  15  20
TORSDOF 9
ENDMDL
MODEL 3
REMARK VINA RESULT:      -1.1      1.530      4.044
REMARK  Name = 28961797
REMARK  10 active torsions:
REMARK  status: ('A' for Active; 'I' for Inactive)
REMARK    1  A    between atoms: O_4  and  C_13
REMARK    2  A    between atoms: O_5  and  C_19
REMARK    3  A    between atoms: O_5  and  C_22
REMARK    4  A    between atoms: O_6  and  C_20
REMARK    5  A    between atoms: N_8  and  C_10
REMARK    6  A    between atoms: N_9  and  C_18
REMARK    7  A    between atoms: C_11  and  C_19
REMARK    8  A    between atoms: C_12  and  C_18
REMARK    9  A    between atoms: C_15  and  C_20
REMARK   10  A    between atoms: C_21  and  C_23
REMARK                            x       y       z     vdW  Elec       q    Type
REMARK                         _______ _______ _______ _____ _____    ______ ____
ROOT
ATOM      3  O   UNL     1      -2.399  -1.128  23.722  0.00  0.00    -0.365 OA
ATOM     10  C   UNL     1      -3.642   0.821  24.292  0.00  0.00    +0.118 C 
ATOM     12  C   UNL     1      -2.229   0.253  24.111  0.00  0.00    +0.155 C 
ATOM     13  C   UNL     1      -4.467  -0.413  24.627  0.00  0.00    +0.165 C 
ATOM     15  C   UNL     1      -3.804  -1.447  23.724  0.00  0.00    +0.174 C 
ENDROOT
BRANCH  10   8
ATOM      8  N   UNL     1      -3.776   1.927  25.224  0.00  0.00    -0.289 NA
ATOM     11  C   UNL     1      -2.648   2.864  25.261  0.00  0.00    +0.083 C 
ATOM     14  C   UNL     1      -4.985   2.718  25.004  0.00  0.00    +0.085 C 
ATOM     16  C   UNL     1      -3.238   3.993  26.104  0.00  0.00    +0.022 C 
ATOM     17  C   UNL     1      -4.717   4.030  25.731  0.00  0.00    +0.017 C 
BRANCH  11  19
ATOM     19  C   UNL     1      -2.153   3.377  23.905  0.00  0.00    +0.178 C 
BRANCH  19   5
ATOM      5  O   UNL     1      -0.770   3.665  24.007  0.00  0.00    -0.381 OA
ATOM     22  C   UNL     1      -0.538   4.895  24.684  0.00  0.00    +0.194 C 
ENDBRANCH  19   5
ENDBRANCH  11  19
ENDBRANCH  10   8
BRANCH  13   4
ATOM      4  O   UNL     1      -4.321  -0.781  25.992  0.00  0.00    -0.388 OA
ATOM     29  H   UNL     1      -5.056  -0.377  26.485  0.00  0.00    +0.210 HD
ENDBRANCH  13   4
BRANCH  12  18
ATOM     18  C   UNL     1      -1.323   0.268  25.339  0.00  0.00    +0.137 C 
BRANCH  18   9
ATOM      7  O   UNL     1      -0.247   0.726  22.717  0.00  0.00    -0.270 OA
ATOM      9  N   UNL     1       0.057   0.219  24.961  0.00  0.00    -0.309 N 
ATOM     21  C   UNL     1       0.493   0.457  23.660  0.00  0.00    +0.244 C 
ATOM     30  H   UNL     1       0.715  -0.066  25.678  0.00  0.00    +0.149 HD
BRANCH  21  23
ATOM      1 CL   UNL     1       4.808  -2.423  23.877  0.00  0.00    -0.081 Cl
ATOM      2  F   UNL     1       6.022   0.042  22.766  0.00  0.00    -0.204 F 
ATOM     23  C   UNL     1       1.955   0.343  23.425  0.00  0.00    +0.038 A 
ATOM     24  C   UNL     1       2.620  -0.846  23.726  0.00  0.00    +0.036 A 
ATOM     25  C   UNL     1       2.664   1.425  22.905  0.00  0.00    +0.016 A 
ATOM     26  C   UNL     1       3.994  -0.953  23.505  0.00  0.00    +0.077 A 
ATOM     27  C   UNL     1       4.038   1.319  22.685  0.00  0.00    +0.040 A 
ATOM     28  C   UNL     1       4.702   0.129  22.985  0.00  0.00    +0.142 A 
ENDBRANCH  21  23
ENDBRANCH  18   9
ENDBRANCH  12  18
BRANCH  15  20
ATOM     20  C   UNL     1      -3.988  -2.893  24.143  0.00  0.00    +0.190 C 
BRANCH  20   6
ATOM      6  O   UNL     1      -3.203  -3.140  25.298  0.00  0.00    -0.392 OA
ATOM     31  H   UNL     1      -2.335  -2.729  25.148  0.00  0.00    +0.210 HD
ENDBRANCH  20   6
ENDBRANCH  15  20
TORSDOF 9
ENDMDL
MODEL 4
REMARK VINA RESULT:      -0.8      1.750      4.021
REMARK  Name = 28961797
REMARK  10 active torsions:
REMARK  status: ('A' for Active; 'I' for Inactive)
REMARK    1  A    between atoms: O_4  and  C_13
REMARK    2  A    between atoms: O_5  and  C_19
REMARK    3  A    between atoms: O_5  and  C_22
REMARK    4  A    between atoms: O_6  and  C_20
REMARK    5  A    between atoms: N_8  and  C_10
REMARK    6  A    between atoms: N_9  and  C_18
REMARK    7  A    between atoms: C_11  and  C_19
REMARK    8  A    between atoms: C_12  and  C_18
REMARK    9  A    between atoms: C_15  and  C_20
REMARK   10  A    between atoms: C_21  and  C_23
REMARK                            x       y       z     vdW  Elec       q    Type
REMARK                         _______ _______ _______ _____ _____    ______ ____
ROOT
ATOM      3  O   UNL     1      -1.823  -0.763  24.404  0.00  0.00    -0.365 OA
ATOM     10  C   UNL     1      -2.082   1.531  24.991  0.00  0.00    +0.118 C 
ATOM     12  C   UNL     1      -2.218   0.513  23.851  0.00  0.00    +0.155 C 
ATOM     13  C   UNL     1      -1.025   0.902  25.887  0.00  0.00    +0.165 C 
ATOM     15  C   UNL     1      -1.396  -0.572  25.767  0.00  0.00    +0.174 C 
ENDROOT
BRANCH  10   8
ATOM      8  N   UNL     1      -1.823   2.905  24.598  0.00  0.00    -0.289 NA
ATOM     11  C   UNL     1      -2.987   3.798  24.612  0.00  0.00    +0.083 C 
ATOM     14  C   UNL     1      -0.781   3.542  25.400  0.00  0.00    +0.085 C 
ATOM     16  C   UNL     1      -2.311   5.155  24.427  0.00  0.00    +0.022 C 
ATOM     17  C   UNL     1      -0.979   5.034  25.161  0.00  0.00    +0.017 C 
BRANCH  11  19
ATOM     19  C   UNL     1      -3.845   3.768  25.881  0.00  0.00    +0.178 C 
BRANCH  19   5
ATOM      5  O   UNL     1      -5.208   3.709  25.504  0.00  0.00    -0.381 OA
ATOM     22  C   UNL     1      -5.636   2.370  25.282  0.00  0.00    +0.194 C 
ENDBRANCH  19   5
ENDBRANCH  11  19
ENDBRANCH  10   8
BRANCH  13   4
ATOM      4  O   UNL     1       0.285   1.126  25.382  0.00  0.00    -0.388 OA
ATOM     29  H   UNL     1       0.915   0.859  26.074  0.00  0.00    +0.210 HD
ENDBRANCH  13   4
BRANCH  12  18
ATOM     18  C   UNL     1      -1.361   0.753  22.613  0.00  0.00    +0.137 C 
BRANCH  18   9
ATOM      7  O   UNL     1       0.715  -0.581  21.144  0.00  0.00    -0.270 OA
ATOM      9  N   UNL     1       0.033   0.724  22.939  0.00  0.00    -0.309 N 
ATOM     21  C   UNL     1       0.976   0.049  22.166  0.00  0.00    +0.244 C 
ATOM     30  H   UNL     1       0.307   1.166  23.809  0.00  0.00    +0.149 HD
BRANCH  21  23
ATOM      1 CL   UNL     1       5.057  -2.465  24.162  0.00  0.00    -0.081 Cl
ATOM      2  F   UNL     1       6.281   0.230  24.001  0.00  0.00    -0.204 F 
ATOM     23  C   UNL     1       2.379   0.093  22.653  0.00  0.00    +0.038 A 
ATOM     24  C   UNL     1       2.990  -1.068  23.125  0.00  0.00    +0.036 A 
ATOM     25  C   UNL     1       3.084   1.295  22.638  0.00  0.00    +0.016 A 
ATOM     26  C   UNL     1       4.308  -1.028  23.582  0.00  0.00    +0.077 A 
ATOM     27  C   UNL     1       4.402   1.337  23.095  0.00  0.00    +0.040 A 
ATOM     28  C   UNL     1       5.013   0.175  23.567  0.00  0.00    +0.142 A 
ENDBRANCH  21  23
ENDBRANCH  18   9
ENDBRANCH  12  18
BRANCH  15  20
ATOM     20  C   UNL     1      -0.283  -1.553  26.084  0.00  0.00    +0.190 C 
BRANCH  20   6
ATOM      6  O   UNL     1       0.518  -1.729  24.926  0.00  0.00    -0.392 OA
ATOM     31  H   UNL     1       0.114  -1.202  24.216  0.00  0.00    +0.210 HD
ENDBRANCH  20   6
ENDBRANCH  15  20
TORSDOF 9
ENDMDL
MODEL 5
REMARK VINA RESULT:      -0.4      3.958      6.485
REMARK  Name = 28961797
REMARK  10 active torsions:
REMARK  status: ('A' for Active; 'I' for Inactive)
REMARK    1  A    between atoms: O_4  and  C_13
REMARK    2  A    between atoms: O_5  and  C_19
REMARK    3  A    between atoms: O_5  and  C_22
REMARK    4  A    between atoms: O_6  and  C_20
REMARK    5  A    between atoms: N_8  and  C_10
REMARK    6  A    between atoms: N_9  and  C_18
REMARK    7  A    between atoms: C_11  and  C_19
REMARK    8  A    between atoms: C_12  and  C_18
REMARK    9  A    between atoms: C_15  and  C_20
REMARK   10  A    between atoms: C_21  and  C_23
REMARK                            x       y       z     vdW  Elec       q    Type
REMARK                         _______ _______ _______ _____ _____    ______ ____
ROOT
ATOM      3  O   UNL     1       1.548  -0.355  21.655  0.00  0.00    -0.365 OA
ATOM     10  C   UNL     1       0.330  -0.734  23.666  0.00  0.00    +0.118 C 
ATOM     12  C   UNL     1       0.205  -0.570  22.146  0.00  0.00    +0.155 C 
ATOM     13  C   UNL     1       1.603   0.033  23.990  0.00  0.00    +0.165 C 
ATOM     15  C   UNL     1       2.455  -0.310  22.773  0.00  0.00    +0.174 C 
ENDROOT
BRANCH  10   8
ATOM      8  N   UNL     1      -0.835  -0.360  24.450  0.00  0.00    -0.289 NA
ATOM     11  C   UNL     1      -2.050  -1.140  24.190  0.00  0.00    +0.083 C 
ATOM     14  C   UNL     1      -0.593  -0.407  25.890  0.00  0.00    +0.085 C 
ATOM     16  C   UNL     1      -2.941  -0.677  25.341  0.00  0.00    +0.022 C 
ATOM     17  C   UNL     1      -1.987  -0.441  26.507  0.00  0.00    +0.017 C 
BRANCH  11  19
ATOM     19  C   UNL     1      -1.886  -2.663  24.186  0.00  0.00    +0.178 C 
BRANCH  19   5
ATOM      5  O   UNL     1      -3.132  -3.254  24.507  0.00  0.00    -0.381 OA
ATOM     22  C   UNL     1      -4.181  -2.745  23.691  0.00  0.00    +0.194 C 
ENDBRANCH  19   5
ENDBRANCH  11  19
ENDBRANCH  10   8
BRANCH  13   4
ATOM      4  O   UNL     1       1.366   1.433  24.050  0.00  0.00    -0.388 OA
ATOM     29  H   UNL     1       0.425   1.580  23.855  0.00  0.00    +0.210 HD
ENDBRANCH  13   4
BRANCH  12  18
ATOM     18  C   UNL     1      -0.647   0.594  21.651  0.00  0.00    +0.137 C 
BRANCH  18   9
ATOM      7  O   UNL     1      -2.936   2.327  21.609  0.00  0.00    -0.270 OA
ATOM      9  N   UNL     1      -1.160   1.360  22.747  0.00  0.00    -0.309 N 
ATOM     21  C   UNL     1      -2.282   2.178  22.638  0.00  0.00    +0.244 C 
ATOM     30  H   UNL     1      -0.625   1.336  23.608  0.00  0.00    +0.149 HD
BRANCH  21  23
ATOM      1 CL   UNL     1      -6.050   3.940  25.746  0.00  0.00    -0.081 Cl
ATOM      2  F   UNL     1      -3.740   5.008  27.265  0.00  0.00    -0.204 F 
ATOM     23  C   UNL     1      -2.672   2.926  23.861  0.00  0.00    +0.038 A 
ATOM     24  C   UNL     1      -4.019   3.068  24.193  0.00  0.00    +0.036 A 
ATOM     25  C   UNL     1      -1.691   3.488  24.677  0.00  0.00    +0.016 A 
ATOM     26  C   UNL     1      -4.386   3.770  25.341  0.00  0.00    +0.077 A 
ATOM     27  C   UNL     1      -2.057   4.191  25.825  0.00  0.00    +0.040 A 
ATOM     28  C   UNL     1      -3.405   4.331  26.157  0.00  0.00    +0.142 A 
ENDBRANCH  21  23
ENDBRANCH  18   9
ENDBRANCH  12  18
BRANCH  15  20
ATOM     20  C   UNL     1       3.578   0.663  22.467  0.00  0.00    +0.190 C 
BRANCH  20   6
ATOM      6  O   UNL     1       4.427   0.756  23.600  0.00  0.00    -0.392 OA
ATOM     31  H   UNL     1       5.058   1.475  23.426  0.00  0.00    +0.210 HD
ENDBRANCH  20   6
ENDBRANCH  15  20
TORSDOF 9
ENDMDL
MODEL 6
REMARK VINA RESULT:       0.2      1.704      2.729
REMARK  Name = 28961797
REMARK  10 active torsions:
REMARK  status: ('A' for Active; 'I' for Inactive)
REMARK    1  A    between atoms: O_4  and  C_13
REMARK    2  A    between atoms: O_5  and  C_19
REMARK    3  A    between atoms: O_5  and  C_22
REMARK    4  A    between atoms: O_6  and  C_20
REMARK    5  A    between atoms: N_8  and  C_10
REMARK    6  A    between atoms: N_9  and  C_18
REMARK    7  A    between atoms: C_11  and  C_19
REMARK    8  A    between atoms: C_12  and  C_18
REMARK    9  A    between atoms: C_15  and  C_20
REMARK   10  A    between atoms: C_21  and  C_23
REMARK                            x       y       z     vdW  Elec       q    Type
REMARK                         _______ _______ _______ _____ _____    ______ ____
ROOT
ATOM      3  O   UNL     1      -0.267   0.992  26.296  0.00  0.00    -0.365 OA
ATOM     10  C   UNL     1      -2.105   2.345  25.617  0.00  0.00    +0.118 C 
ATOM     12  C   UNL     1      -1.418   0.987  25.423  0.00  0.00    +0.155 C 
ATOM     13  C   UNL     1      -0.964   3.243  26.071  0.00  0.00    +0.165 C 
ATOM     15  C   UNL     1      -0.175   2.275  26.944  0.00  0.00    +0.174 C 
ENDROOT
BRANCH  10   8
ATOM      8  N   UNL     1      -2.874   2.843  24.489  0.00  0.00    -0.289 NA
ATOM     11  C   UNL     1      -4.001   2.001  24.071  0.00  0.00    +0.083 C 
ATOM     14  C   UNL     1      -3.399   4.189  24.706  0.00  0.00    +0.085 C 
ATOM     16  C   UNL     1      -4.711   2.937  23.094  0.00  0.00    +0.022 C 
ATOM     17  C   UNL     1      -4.506   4.334  23.668  0.00  0.00    +0.017 C 
BRANCH  11  19
ATOM     19  C   UNL     1      -4.943   1.533  25.184  0.00  0.00    +0.178 C 
BRANCH  19   5
ATOM      5  O   UNL     1      -4.696   0.163  25.441  0.00  0.00    -0.381 OA
ATOM     22  C   UNL     1      -4.378  -0.546  24.248  0.00  0.00    +0.194 C 
ENDBRANCH  19   5
ENDBRANCH  11  19
ENDBRANCH  10   8
BRANCH  13   4
ATOM      4  O   UNL     1      -0.173   3.676  24.972  0.00  0.00    -0.388 OA
ATOM     29  H   UNL     1       0.304   4.476  25.251  0.00  0.00    +0.210 HD
ENDBRANCH  13   4
BRANCH  12  18
ATOM     18  C   UNL     1      -0.918   0.668  24.018  0.00  0.00    +0.137 C 
BRANCH  18   9
ATOM      7  O   UNL     1       0.706  -0.486  21.950  0.00  0.00    -0.270 OA
ATOM      9  N   UNL     1       0.513   0.626  23.978  0.00  0.00    -0.309 N 
ATOM     21  C   UNL     1       1.223   0.044  22.930  0.00  0.00    +0.244 C 
ATOM     30  H   UNL     1       1.001   0.984  24.791  0.00  0.00    +0.149 HD
BRANCH  21  23
ATOM      1 CL   UNL     1       5.599  -2.466  24.160  0.00  0.00    -0.081 Cl
ATOM      2  F   UNL     1       6.821   0.118  23.377  0.00  0.00    -0.204 F 
ATOM     23  C   UNL     1       2.703   0.059  23.050  0.00  0.00    +0.038 A 
ATOM     24  C   UNL     1       3.379  -1.076  23.497  0.00  0.00    +0.036 A 
ATOM     25  C   UNL     1       3.418   1.210  22.716  0.00  0.00    +0.016 A 
ATOM     26  C   UNL     1       4.770  -1.062  23.610  0.00  0.00    +0.077 A 
ATOM     27  C   UNL     1       4.808   1.224  22.829  0.00  0.00    +0.040 A 
ATOM     28  C   UNL     1       5.484   0.088  23.276  0.00  0.00    +0.142 A 
ENDBRANCH  21  23
ENDBRANCH  18   9
ENDBRANCH  12  18
BRANCH  15  20
ATOM     20  C   UNL     1       1.286   2.626  27.153  0.00  0.00    +0.190 C 
BRANCH  20   6
ATOM      6  O   UNL     1       1.600   2.492  28.530  0.00  0.00    -0.392 OA
ATOM     31  H   UNL     1       0.910   2.963  29.027  0.00  0.00    +0.210 HD
ENDBRANCH  20   6
ENDBRANCH  15  20
TORSDOF 9
ENDMDL
MODEL 7
REMARK VINA RESULT:       0.7      4.138      7.104
REMARK  Name = 28961797
REMARK  10 active torsions:
REMARK  status: ('A' for Active; 'I' for Inactive)
REMARK    1  A    between atoms: O_4  and  C_13
REMARK    2  A    between atoms: O_5  and  C_19
REMARK    3  A    between atoms: O_5  and  C_22
REMARK    4  A    between atoms: O_6  and  C_20
REMARK    5  A    between atoms: N_8  and  C_10
REMARK    6  A    between atoms: N_9  and  C_18
REMARK    7  A    between atoms: C_11  and  C_19
REMARK    8  A    between atoms: C_12  and  C_18
REMARK    9  A    between atoms: C_15  and  C_20
REMARK   10  A    between atoms: C_21  and  C_23
REMARK                            x       y       z     vdW  Elec       q    Type
REMARK                         _______ _______ _______ _____ _____    ______ ____
ROOT
ATOM      3  O   UNL     1       1.633   0.851  23.170  0.00  0.00    -0.365 OA
ATOM     10  C   UNL     1      -0.185  -0.661  23.454  0.00  0.00    +0.118 C 
ATOM     12  C   UNL     1       0.239   0.810  23.550  0.00  0.00    +0.155 C 
ATOM     13  C   UNL     1       1.124  -1.408  23.661  0.00  0.00    +0.165 C 
ATOM     15  C   UNL     1       2.091  -0.492  22.920  0.00  0.00    +0.174 C 
ENDROOT
BRANCH  10   8
ATOM      8  N   UNL     1      -1.276  -1.073  24.319  0.00  0.00    -0.289 NA
ATOM     11  C   UNL     1      -2.489  -0.251  24.244  0.00  0.00    +0.083 C 
ATOM     14  C   UNL     1      -1.683  -2.460  24.105  0.00  0.00    +0.085 C 
ATOM     16  C   UNL     1      -3.470  -1.110  25.039  0.00  0.00    +0.022 C 
ATOM     17  C   UNL     1      -3.068  -2.550  24.734  0.00  0.00    +0.017 C 
BRANCH  11  19
ATOM     19  C   UNL     1      -3.017   0.045  22.836  0.00  0.00    +0.178 C 
BRANCH  19   5
ATOM      5  O   UNL     1      -3.260   1.435  22.727  0.00  0.00    -0.381 OA
ATOM     22  C   UNL     1      -2.512   2.018  21.666  0.00  0.00    +0.194 C 
ENDBRANCH  19   5
ENDBRANCH  11  19
ENDBRANCH  10   8
BRANCH  13   4
ATOM      4  O   UNL     1       1.469  -1.483  25.038  0.00  0.00    -0.388 OA
ATOM     29  H   UNL     1       1.718  -2.404  25.228  0.00  0.00    +0.210 HD
ENDBRANCH  13   4
BRANCH  12  18
ATOM     18  C   UNL     1       0.127   1.466  24.923  0.00  0.00    +0.137 C 
BRANCH  18   9
ATOM      7  O   UNL     1      -0.739   4.196  24.720  0.00  0.00    -0.270 OA
ATOM      9  N   UNL     1      -1.197   1.962  25.150  0.00  0.00    -0.309 N 
ATOM     21  C   UNL     1      -1.531   3.309  25.028  0.00  0.00    +0.244 C 
ATOM     30  H   UNL     1      -1.885   1.291  25.475  0.00  0.00    +0.149 HD
BRANCH  21  23
ATOM      1 CL   UNL     1      -6.536   1.927  25.083  0.00  0.00    -0.081 Cl
ATOM      2  F   UNL     1      -6.863   4.675  26.145  0.00  0.00    -0.204 F 
ATOM     23  C   UNL     1      -2.942   3.666  25.321  0.00  0.00    +0.038 A 
ATOM     24  C   UNL     1      -3.959   2.740  25.091  0.00  0.00    +0.036 A 
ATOM     25  C   UNL     1      -3.251   4.929  25.827  0.00  0.00    +0.016 A 
ATOM     26  C   UNL     1      -5.285   3.075  25.367  0.00  0.00    +0.077 A 
ATOM     27  C   UNL     1      -4.577   5.265  26.103  0.00  0.00    +0.040 A 
ATOM     28  C   UNL     1      -5.594   4.337  25.873  0.00  0.00    +0.142 A 
ENDBRANCH  21  23
ENDBRANCH  18   9
ENDBRANCH  12  18
BRANCH  15  20
ATOM     20  C   UNL     1       3.547  -0.607  23.333  0.00  0.00    +0.190 C 
BRANCH  20   6
ATOM      6  O   UNL     1       4.066   0.693  23.556  0.00  0.00    -0.392 OA
ATOM     31  H   UNL     1       4.512   0.968  22.736  0.00  0.00    +0.210 HD
ENDBRANCH  20   6
ENDBRANCH  15  20
TORSDOF 9
ENDMDL
MODEL 8
REMARK VINA RESULT:       1.2      1.975      3.985
REMARK  Name = 28961797
REMARK  10 active torsions:
REMARK  status: ('A' for Active; 'I' for Inactive)
REMARK    1  A    between atoms: O_4  and  C_13
REMARK    2  A    between atoms: O_5  and  C_19
REMARK    3  A    between atoms: O_5  and  C_22
REMARK    4  A    between atoms: O_6  and  C_20
REMARK    5  A    between atoms: N_8  and  C_10
REMARK    6  A    between atoms: N_9  and  C_18
REMARK    7  A    between atoms: C_11  and  C_19
REMARK    8  A    between atoms: C_12  and  C_18
REMARK    9  A    between atoms: C_15  and  C_20
REMARK   10  A    between atoms: C_21  and  C_23
REMARK                            x       y       z     vdW  Elec       q    Type
REMARK                         _______ _______ _______ _____ _____    ______ ____
ROOT
ATOM      3  O   UNL     1      -2.171  -1.350  23.836  0.00  0.00    -0.365 OA
ATOM     10  C   UNL     1      -3.108   0.821  23.554  0.00  0.00    +0.118 C 
ATOM     12  C   UNL     1      -1.799   0.043  23.744  0.00  0.00    +0.155 C 
ATOM     13  C   UNL     1      -4.144  -0.091  24.196  0.00  0.00    +0.165 C 
ATOM     15  C   UNL     1      -3.607  -1.457  23.785  0.00  0.00    +0.174 C 
ENDROOT
BRANCH  10   8
ATOM      8  N   UNL     1      -3.114   2.194  24.028  0.00  0.00    -0.289 NA
ATOM     11  C   UNL     1      -4.421   2.861  24.021  0.00  0.00    +0.083 C 
ATOM     14  C   UNL     1      -2.566   2.336  25.376  0.00  0.00    +0.085 C 
ATOM     16  C   UNL     1      -4.102   4.128  24.813  0.00  0.00    +0.022 C 
ATOM     17  C   UNL     1      -3.068   3.695  25.847  0.00  0.00    +0.017 C 
BRANCH  11  19
ATOM     19  C   UNL     1      -5.579   2.082  24.653  0.00  0.00    +0.178 C 
BRANCH  19   5
ATOM      5  O   UNL     1      -5.916   2.692  25.886  0.00  0.00    -0.381 OA
ATOM     22  C   UNL     1      -6.565   1.780  26.764  0.00  0.00    +0.194 C 
ENDBRANCH  19   5
ENDBRANCH  11  19
ENDBRANCH  10   8
BRANCH  13   4
ATOM      4  O   UNL     1      -4.144   0.037  25.611  0.00  0.00    -0.388 OA
ATOM     29  H   UNL     1      -4.507  -0.787  25.980  0.00  0.00    +0.210 HD
ENDBRANCH  13   4
BRANCH  12  18
ATOM     18  C   UNL     1      -0.980   0.375  24.987  0.00  0.00    +0.137 C 
BRANCH  18   9
ATOM      7  O   UNL     1       0.242   0.050  22.409  0.00  0.00    -0.270 OA
ATOM      9  N   UNL     1       0.423   0.334  24.705  0.00  0.00    -0.309 N 
ATOM     21  C   UNL     1       0.931   0.173  23.418  0.00  0.00    +0.244 C 
ATOM     30  H   UNL     1       1.048   0.361  25.503  0.00  0.00    +0.149 HD
BRANCH  21  23
ATOM      1 CL   UNL     1       5.348  -2.486  24.032  0.00  0.00    -0.081 Cl
ATOM      2  F   UNL     1       6.525   0.009  22.949  0.00  0.00    -0.204 F 
ATOM     23  C   UNL     1       2.411   0.126  23.296  0.00  0.00    +0.038 A 
ATOM     24  C   UNL     1       3.106  -1.022  23.676  0.00  0.00    +0.036 A 
ATOM     25  C   UNL     1       3.105   1.229  22.801  0.00  0.00    +0.016 A 
ATOM     26  C   UNL     1       4.495  -1.067  23.562  0.00  0.00    +0.077 A 
ATOM     27  C   UNL     1       4.494   1.185  22.687  0.00  0.00    +0.040 A 
ATOM     28  C   UNL     1       5.190   0.037  23.067  0.00  0.00    +0.142 A 
ENDBRANCH  21  23
ENDBRANCH  18   9
ENDBRANCH  12  18
BRANCH  15  20
ATOM     20  C   UNL     1      -4.052  -2.620  24.652  0.00  0.00    +0.190 C 
BRANCH  20   6
ATOM      6  O   UNL     1      -3.295  -2.617  25.851  0.00  0.00    -0.392 OA
ATOM     31  H   UNL     1      -2.368  -2.776  25.605  0.00  0.00    +0.210 HD
ENDBRANCH  20   6
ENDBRANCH  15  20
TORSDOF 9
ENDMDL
MODEL 9
REMARK VINA RESULT:       1.2      3.743      6.334
REMARK  Name = 28961797
REMARK  10 active torsions:
REMARK  status: ('A' for Active; 'I' for Inactive)
REMARK    1  A    between atoms: O_4  and  C_13
REMARK    2  A    between atoms: O_5  and  C_19
REMARK    3  A    between atoms: O_5  and  C_22
REMARK    4  A    between atoms: O_6  and  C_20
REMARK    5  A    between atoms: N_8  and  C_10
REMARK    6  A    between atoms: N_9  and  C_18
REMARK    7  A    between atoms: C_11  and  C_19
REMARK    8  A    between atoms: C_12  and  C_18
REMARK    9  A    between atoms: C_15  and  C_20
REMARK   10  A    between atoms: C_21  and  C_23
REMARK                            x       y       z     vdW  Elec       q    Type
REMARK                         _______ _______ _______ _____ _____    ______ ____
ROOT
ATOM      3  O   UNL     1       1.342   1.962  25.047  0.00  0.00    -0.365 OA
ATOM     10  C   UNL     1      -0.863   2.665  24.487  0.00  0.00    +0.118 C 
ATOM     12  C   UNL     1       0.084   2.341  25.649  0.00  0.00    +0.155 C 
ATOM     13  C   UNL     1      -0.297   1.837  23.343  0.00  0.00    +0.165 C 
ATOM     15  C   UNL     1       1.198   1.969  23.614  0.00  0.00    +0.174 C 
ENDROOT
BRANCH  10   8
ATOM      8  N   UNL     1      -2.281   2.479  24.742  0.00  0.00    -0.289 NA
ATOM     11  C   UNL     1      -2.931   3.548  25.510  0.00  0.00    +0.083 C 
ATOM     14  C   UNL     1      -3.062   2.290  23.522  0.00  0.00    +0.085 C 
ATOM     16  C   UNL     1      -4.401   3.167  25.346  0.00  0.00    +0.022 C 
ATOM     17  C   UNL     1      -4.499   2.572  23.945  0.00  0.00    +0.017 C 
BRANCH  11  19
ATOM     19  C   UNL     1      -2.666   4.979  25.032  0.00  0.00    +0.178 C 
BRANCH  19   5
ATOM      5  O   UNL     1      -1.395   5.386  25.505  0.00  0.00    -0.381 OA
ATOM     22  C   UNL     1      -0.515   5.712  24.436  0.00  0.00    +0.194 C 
ENDBRANCH  19   5
ENDBRANCH  11  19
ENDBRANCH  10   8
BRANCH  13   4
ATOM      4  O   UNL     1      -0.699   0.477  23.436  0.00  0.00    -0.388 OA
ATOM     29  H   UNL     1      -1.662   0.464  23.568  0.00  0.00    +0.210 HD
ENDBRANCH  13   4
BRANCH  12  18
ATOM     18  C   UNL     1      -0.334   1.203  26.575  0.00  0.00    +0.137 C 
BRANCH  18   9
ATOM      7  O   UNL     1      -0.163  -1.519  25.676  0.00  0.00    -0.270 OA
ATOM      9  N   UNL     1      -1.387   0.427  25.994  0.00  0.00    -0.309 N 
ATOM     21  C   UNL     1      -1.216  -0.894  25.584  0.00  0.00    +0.244 C 
ATOM     30  H   UNL     1      -2.265   0.905  25.826  0.00  0.00    +0.149 HD
BRANCH  21  23
ATOM      1 CL   UNL     1      -6.164  -0.576  24.044  0.00  0.00    -0.081 Cl
ATOM      2  F   UNL     1      -5.685  -3.401  23.286  0.00  0.00    -0.204 F 
ATOM     23  C   UNL     1      -2.400  -1.553  24.977  0.00  0.00    +0.038 A 
ATOM     24  C   UNL     1      -3.589  -0.841  24.814  0.00  0.00    +0.036 A 
ATOM     25  C   UNL     1      -2.325  -2.885  24.570  0.00  0.00    +0.016 A 
ATOM     26  C   UNL     1      -4.701  -1.460  24.244  0.00  0.00    +0.077 A 
ATOM     27  C   UNL     1      -3.437  -3.504  24.000  0.00  0.00    +0.040 A 
ATOM     28  C   UNL     1      -4.625  -2.791  23.837  0.00  0.00    +0.142 A 
ENDBRANCH  21  23
ENDBRANCH  18   9
ENDBRANCH  12  18
BRANCH  15  20
ATOM     20  C   UNL     1       2.068   0.878  23.018  0.00  0.00    +0.190 C 
BRANCH  20   6
ATOM      6  O   UNL     1       3.423   1.295  23.065  0.00  0.00    -0.392 OA
ATOM     31  H   UNL     1       3.967   0.529  22.815  0.00  0.00    +0.210 HD
ENDBRANCH  20   6
ENDBRANCH  15  20
TORSDOF 9
ENDMDL
MODEL 10
REMARK VINA RESULT:       1.7      1.274      1.857
REMARK  Name = 28961797
REMARK  10 active torsions:
REMARK  status: ('A' for Active; 'I' for Inactive)
REMARK    1  A    between atoms: O_4  and  C_13
REMARK    2  A    between atoms: O_5  and  C_19
REMARK    3  A    between atoms: O_5  and  C_22
REMARK    4  A    between atoms: O_6  and  C_20
REMARK    5  A    between atoms: N_8  and  C_10
REMARK    6  A    between atoms: N_9  and  C_18
REMARK    7  A    between atoms: C_11  and  C_19
REMARK    8  A    between atoms: C_12  and  C_18
REMARK    9  A    between atoms: C_15  and  C_20
REMARK   10  A    between atoms: C_21  and  C_23
REMARK                            x       y       z     vdW  Elec       q    Type
REMARK                         _______ _______ _______ _____ _____    ______ ____
ROOT
ATOM      3  O   UNL     1      -0.766   3.505  25.527  0.00  0.00    -0.365 OA
ATOM     10  C   UNL     1      -2.206   1.610  25.587  0.00  0.00    +0.118 C 
ATOM     12  C   UNL     1      -0.782   2.083  25.270  0.00  0.00    +0.155 C 
ATOM     13  C   UNL     1      -3.040   2.864  25.370  0.00  0.00    +0.165 C 
ATOM     15  C   UNL     1      -2.090   3.929  25.906  0.00  0.00    +0.174 C 
ENDROOT
BRANCH  10   8
ATOM      8  N   UNL     1      -2.665   0.430  24.874  0.00  0.00    -0.289 NA
ATOM     11  C   UNL     1      -3.764  -0.307  25.510  0.00  0.00    +0.083 C 
ATOM     14  C   UNL     1      -3.077   0.716  23.501  0.00  0.00    +0.085 C 
ATOM     16  C   UNL     1      -4.150  -1.271  24.389  0.00  0.00    +0.022 C 
ATOM     17  C   UNL     1      -3.920  -0.488  23.101  0.00  0.00    +0.017 C 
BRANCH  11  19
ATOM     19  C   UNL     1      -4.962   0.531  25.966  0.00  0.00    +0.178 C 
BRANCH  19   5
ATOM      5  O   UNL     1      -5.814   0.746  24.855  0.00  0.00    -0.381 OA
ATOM     22  C   UNL     1      -6.363   2.058  24.859  0.00  0.00    +0.194 C 
ENDBRANCH  19   5
ENDBRANCH  11  19
ENDBRANCH  10   8
BRANCH  13   4
ATOM      4  O   UNL     1      -3.301   3.083  23.990  0.00  0.00    -0.388 OA
ATOM     29  H   UNL     1      -2.897   3.933  23.746  0.00  0.00    +0.210 HD
ENDBRANCH  13   4
BRANCH  12  18
ATOM     18  C   UNL     1      -0.295   1.877  23.839  0.00  0.00    +0.137 C 
BRANCH  18   9
ATOM      7  O   UNL     1       0.927  -0.243  22.337  0.00  0.00    -0.270 OA
ATOM      9  N   UNL     1       1.096   1.540  23.812  0.00  0.00    -0.309 N 
ATOM     21  C   UNL     1       1.606   0.491  23.051  0.00  0.00    +0.244 C 
ATOM     30  H   UNL     1       1.703   2.063  24.434  0.00  0.00    +0.149 HD
BRANCH  21  23
ATOM      1 CL   UNL     1       5.509  -2.758  24.134  0.00  0.00    -0.081 Cl
ATOM      2  F   UNL     1       7.140  -0.387  23.424  0.00  0.00    -0.204 F 
ATOM     23  C   UNL     1       3.069   0.255  23.151  0.00  0.00    +0.038 A 
ATOM     24  C   UNL     1       3.548  -0.993  23.549  0.00  0.00    +0.036 A 
ATOM     25  C   UNL     1       3.963   1.281  22.847  0.00  0.00    +0.016 A 
ATOM     26  C   UNL     1       4.922  -1.215  23.643  0.00  0.00    +0.077 A 
ATOM     27  C   UNL     1       5.337   1.059  22.942  0.00  0.00    +0.040 A 
ATOM     28  C   UNL     1       5.817  -0.189  23.340  0.00  0.00    +0.142 A 
ENDBRANCH  21  23
ENDBRANCH  18   9
ENDBRANCH  12  18
BRANCH  15  20
ATOM     20  C   UNL     1      -2.330   5.336  25.393  0.00  0.00    +0.190 C 
BRANCH  20   6
ATOM      6  O   UNL     1      -1.127   5.831  24.827  0.00  0.00    -0.392 OA
ATOM     31  H   UNL     1      -1.358   6.234  23.973  0.00  0.00    +0.210 HD
ENDBRANCH  20   6
ENDBRANCH  15  20
TORSDOF 9
ENDMDL
