MODEL 1
REMARK VINA RESULT:       4.1      0.000      0.000
REMARK  Name = 45783907
REMARK  9 active torsions:
REMARK  status: ('A' for Active; 'I' for Inactive)
REMARK    1  A    between atoms: N_2  and  C_13
REMARK    2  A    between atoms: C_8  and  C_12
REMARK    3  A    between atoms: C_9  and  C_13
REMARK    4  A    between atoms: C_11  and  C_16
REMARK    5  A    between atoms: C_12  and  C_17
REMARK    6  A    between atoms: C_12  and  C_18
REMARK    7  A    between atoms: C_15  and  C_21
REMARK    8  A    between atoms: C_16  and  C_24
REMARK    9  A    between atoms: C_26  and  C_27
REMARK                            x       y       z     vdW  Elec       q    Type
REMARK                         _______ _______ _______ _____ _____    ______ ____
ROOT
ATOM      8  C   UNL     1      -2.010   4.014  23.712  0.00  0.00    +0.000 C 
ATOM      9  C   UNL     1      -1.308   2.987  24.631  0.00  0.00    +0.029 C 
ATOM     10  C   UNL     1      -3.518   4.045  23.995  0.00  0.00    +0.012 C 
ATOM     11  C   UNL     1      -3.860   4.357  25.467  0.00  0.00    +0.024 C 
ATOM     14  C   UNL     1      -1.790   3.061  26.058  0.00  0.00    -0.023 C 
ATOM     15  C   UNL     1      -2.920   3.678  26.453  0.00  0.00    -0.073 C 
ATOM     21  C   UNL     1      -3.263   3.768  27.914  0.00  0.00    +0.039 C 
ENDROOT
BRANCH   8  12
ATOM     12  C   UNL     1      -1.390   5.410  23.858  0.00  0.00    -0.013 C 
ATOM     17  C   UNL     1      -2.391   6.375  24.485  0.00  0.00    +0.007 C 
ATOM     18  C   UNL     1      -0.113   5.341  24.689  0.00  0.00    +0.007 C 
ENDBRANCH   8  12
BRANCH   9  13
ATOM     13  C   UNL     1      -1.481   1.555  24.115  0.00  0.00    +0.092 C 
BRANCH  13   2
ATOM      2  N   UNL     1      -0.219   1.043  23.580  0.00  0.00    -0.299 NA
ATOM      3  N   UNL     1       2.517   0.231  23.683  0.00  0.00    -0.297 N 
ATOM      6  N   UNL     1       4.780   0.806  23.629  0.00  0.00    -0.223 NA
ATOM      7  N   UNL     1       4.079  -1.497  23.519  0.00  0.00    -0.223 NA
ATOM     19  C   UNL     1       0.162  -0.201  24.260  0.00  0.00    +0.103 C 
ATOM     20  C   UNL     1       0.846   2.042  23.733  0.00  0.00    +0.103 C 
ATOM     22  C   UNL     1       1.452  -0.776  23.671  0.00  0.00    +0.123 C 
ATOM     23  C   UNL     1       2.159   1.542  23.126  0.00  0.00    +0.123 C 
ATOM     25  C   UNL     1       3.855  -0.172  23.607  0.00  0.00    +0.218 A 
ATOM     28  C   UNL     1       6.059   0.382  23.553  0.00  0.00    +0.116 A 
ATOM     29  C   UNL     1       5.380  -1.850  23.446  0.00  0.00    +0.116 A 
ATOM     30  C   UNL     1       6.421  -0.946  23.459  0.00  0.00    +0.039 A 
ENDBRANCH  13   2
ENDBRANCH   9  13
BRANCH  11  16
ATOM     16  C   UNL     1      -5.333   4.011  25.714  0.00  0.00    +0.105 C 
BRANCH  16  24
ATOM      1  O   UNL     1      -4.628   1.701  25.359  0.00  0.00    -0.420 OA
ATOM      4  N   UNL     1      -6.772   2.092  24.856  0.00  0.00    -0.112 NA
ATOM      5  N   UNL     1      -6.512   0.757  24.610  0.00  0.00    -0.107 NA
ATOM     24  C   UNL     1      -5.644   2.603  25.292  0.00  0.00    +0.218 A 
ATOM     26  C   UNL     1      -5.249   0.574  24.917  0.00  0.00    +0.248 A 
BRANCH  26  27
ATOM     27  C   UNL     1      -4.438  -0.608  24.860  0.00  0.00    +0.038 A 
ATOM     31  C   UNL     1      -4.609  -1.522  23.821  0.00  0.00    +0.013 A 
ATOM     32  C   UNL     1      -3.479  -0.843  25.846  0.00  0.00    +0.013 A 
ATOM     33  C   UNL     1      -3.820  -2.672  23.766  0.00  0.00    +0.001 A 
ATOM     34  C   UNL     1      -2.691  -1.993  25.791  0.00  0.00    +0.001 A 
ATOM     35  C   UNL     1      -2.862  -2.906  24.751  0.00  0.00    +0.000 A 
ENDBRANCH  26  27
ENDBRANCH  16  24
ENDBRANCH  11  16
TORSDOF 6
ENDMDL
MODEL 2
REMARK VINA RESULT:       6.5      1.236      4.692
REMARK  Name = 45783907
REMARK  9 active torsions:
REMARK  status: ('A' for Active; 'I' for Inactive)
REMARK    1  A    between atoms: N_2  and  C_13
REMARK    2  A    between atoms: C_8  and  C_12
REMARK    3  A    between atoms: C_9  and  C_13
REMARK    4  A    between atoms: C_11  and  C_16
REMARK    5  A    between atoms: C_12  and  C_17
REMARK    6  A    between atoms: C_12  and  C_18
REMARK    7  A    between atoms: C_15  and  C_21
REMARK    8  A    between atoms: C_16  and  C_24
REMARK    9  A    between atoms: C_26  and  C_27
REMARK                            x       y       z     vdW  Elec       q    Type
REMARK                         _______ _______ _______ _____ _____    ______ ____
ROOT
ATOM      8  C   UNL     1      -3.302  -0.866  25.211  0.00  0.00    +0.000 C 
ATOM      9  C   UNL     1      -3.192  -0.145  23.848  0.00  0.00    +0.029 C 
ATOM     10  C   UNL     1      -4.135  -0.033  26.195  0.00  0.00    +0.012 C 
ATOM     11  C   UNL     1      -5.550   0.295  25.673  0.00  0.00    +0.024 C 
ATOM     14  C   UNL     1      -4.506   0.437  23.393  0.00  0.00    -0.023 C 
ATOM     15  C   UNL     1      -5.575   0.630  24.189  0.00  0.00    -0.073 C 
ATOM     21  C   UNL     1      -6.868   1.137  23.613  0.00  0.00    +0.039 C 
ENDROOT
BRANCH   8  12
ATOM     12  C   UNL     1      -3.880  -2.279  25.051  0.00  0.00    -0.013 C 
ATOM     17  C   UNL     1      -4.217  -2.553  23.589  0.00  0.00    +0.007 C 
ATOM     18  C   UNL     1      -2.899  -3.318  25.584  0.00  0.00    +0.007 C 
ENDBRANCH   8  12
BRANCH   9  13
ATOM     13  C   UNL     1      -2.134   0.964  23.877  0.00  0.00    +0.092 C 
BRANCH  13   2
ATOM      2  N   UNL     1      -0.838   0.451  23.436  0.00  0.00    -0.299 NA
ATOM      3  N   UNL     1       1.974  -0.022  23.609  0.00  0.00    -0.297 N 
ATOM      6  N   UNL     1       4.157   0.738  23.271  0.00  0.00    -0.223 NA
ATOM      7  N   UNL     1       3.715  -1.561  23.843  0.00  0.00    -0.223 NA
ATOM     19  C   UNL     1      -0.303  -0.507  24.412  0.00  0.00    +0.103 C 
ATOM     20  C   UNL     1       0.113   1.554  23.247  0.00  0.00    +0.103 C 
ATOM     22  C   UNL     1       1.028  -1.093  23.934  0.00  0.00    +0.123 C 
ATOM     23  C   UNL     1       1.458   1.037  22.731  0.00  0.00    +0.123 C 
ATOM     25  C   UNL     1       3.346  -0.294  23.573  0.00  0.00    +0.218 A 
ATOM     28  C   UNL     1       5.473   0.440  23.246  0.00  0.00    +0.116 A 
ATOM     29  C   UNL     1       5.044  -1.789  23.800  0.00  0.00    +0.116 A 
ATOM     30  C   UNL     1       5.978  -0.818  23.504  0.00  0.00    +0.039 A 
ENDBRANCH  13   2
ENDBRANCH   9  13
BRANCH  11  16
ATOM     16  C   UNL     1      -6.148   1.406  26.544  0.00  0.00    +0.105 C 
BRANCH  16  24
ATOM      1  O   UNL     1      -4.191   2.752  25.987  0.00  0.00    -0.420 OA
ATOM      4  N   UNL     1      -6.086   3.925  26.173  0.00  0.00    -0.112 NA
ATOM      5  N   UNL     1      -5.069   4.806  25.858  0.00  0.00    -0.107 NA
ATOM     24  C   UNL     1      -5.528   2.738  26.238  0.00  0.00    +0.218 A 
ATOM     26  C   UNL     1      -3.981   4.077  25.760  0.00  0.00    +0.248 A 
BRANCH  26  27
ATOM     27  C   UNL     1      -2.631   4.456  25.454  0.00  0.00    +0.038 A 
ATOM     31  C   UNL     1      -1.584   3.571  25.712  0.00  0.00    +0.013 A 
ATOM     32  C   UNL     1      -2.367   5.708  24.899  0.00  0.00    +0.013 A 
ATOM     33  C   UNL     1      -0.271   3.940  25.414  0.00  0.00    +0.001 A 
ATOM     34  C   UNL     1      -1.054   6.075  24.602  0.00  0.00    +0.001 A 
ATOM     35  C   UNL     1      -0.007   5.191  24.860  0.00  0.00    +0.000 A 
ENDBRANCH  26  27
ENDBRANCH  16  24
ENDBRANCH  11  16
TORSDOF 6
ENDMDL
MODEL 3
REMARK VINA RESULT:       6.6      2.447      5.027
REMARK  Name = 45783907
REMARK  9 active torsions:
REMARK  status: ('A' for Active; 'I' for Inactive)
REMARK    1  A    between atoms: N_2  and  C_13
REMARK    2  A    between atoms: C_8  and  C_12
REMARK    3  A    between atoms: C_9  and  C_13
REMARK    4  A    between atoms: C_11  and  C_16
REMARK    5  A    between atoms: C_12  and  C_17
REMARK    6  A    between atoms: C_12  and  C_18
REMARK    7  A    between atoms: C_15  and  C_21
REMARK    8  A    between atoms: C_16  and  C_24
REMARK    9  A    between atoms: C_26  and  C_27
REMARK                            x       y       z     vdW  Elec       q    Type
REMARK                         _______ _______ _______ _____ _____    ______ ____
ROOT
ATOM      8  C   UNL     1      -4.677   1.287  25.406  0.00  0.00    +0.000 C 
ATOM      9  C   UNL     1      -3.895   0.249  24.568  0.00  0.00    +0.029 C 
ATOM     10  C   UNL     1      -3.861   2.577  25.560  0.00  0.00    +0.012 C 
ATOM     11  C   UNL     1      -3.455   3.209  24.212  0.00  0.00    +0.024 C 
ATOM     14  C   UNL     1      -3.243   0.858  23.353  0.00  0.00    -0.023 C 
ATOM     15  C   UNL     1      -3.048   2.178  23.170  0.00  0.00    -0.073 C 
ATOM     21  C   UNL     1      -2.465   2.686  21.880  0.00  0.00    +0.039 C 
ENDROOT
BRANCH   8  12
ATOM     12  C   UNL     1      -6.057   1.571  24.798  0.00  0.00    -0.013 C 
ATOM     17  C   UNL     1      -6.701   0.276  24.312  0.00  0.00    +0.007 C 
ATOM     18  C   UNL     1      -6.952   2.271  25.815  0.00  0.00    +0.007 C 
ENDBRANCH   8  12
BRANCH   9  13
ATOM     13  C   UNL     1      -2.830  -0.469  25.404  0.00  0.00    +0.092 C 
BRANCH  13   2
ATOM      2  N   UNL     1      -1.620  -0.695  24.616  0.00  0.00    -0.299 NA
ATOM      3  N   UNL     1       1.138  -0.401  23.931  0.00  0.00    -0.297 N 
ATOM      6  N   UNL     1       2.818   0.831  22.875  0.00  0.00    -0.223 NA
ATOM      7  N   UNL     1       3.242  -1.388  23.714  0.00  0.00    -0.223 NA
ATOM     19  C   UNL     1      -0.578  -1.322  25.438  0.00  0.00    +0.103 C 
ATOM     20  C   UNL     1      -1.124   0.572  24.062  0.00  0.00    +0.103 C 
ATOM     22  C   UNL     1       0.675  -1.615  24.610  0.00  0.00    +0.123 C 
ATOM     23  C   UNL     1       0.111   0.342  23.188  0.00  0.00    +0.123 C 
ATOM     25  C   UNL     1       2.461  -0.315  23.486  0.00  0.00    +0.218 A 
ATOM     28  C   UNL     1       4.101   0.879  22.459  0.00  0.00    +0.116 A 
ATOM     29  C   UNL     1       4.512  -1.272  23.272  0.00  0.00    +0.116 A 
ATOM     30  C   UNL     1       5.001  -0.153  22.631  0.00  0.00    +0.039 A 
ENDBRANCH  13   2
ENDBRANCH   9  13
BRANCH  11  16
ATOM     16  C   UNL     1      -2.366   4.257  24.470  0.00  0.00    +0.105 C 
BRANCH  16  24
ATOM      1  O   UNL     1      -0.876   3.596  26.286  0.00  0.00    -0.420 OA
ATOM      4  N   UNL     1      -0.125   3.066  24.247  0.00  0.00    -0.112 NA
ATOM      5  N   UNL     1       0.810   2.637  25.171  0.00  0.00    -0.107 NA
ATOM     24  C   UNL     1      -1.091   3.619  24.943  0.00  0.00    +0.218 A 
ATOM     26  C   UNL     1       0.330   2.968  26.347  0.00  0.00    +0.248 A 
BRANCH  26  27
ATOM     27  C   UNL     1       0.870   2.772  27.662  0.00  0.00    +0.038 A 
ATOM     31  C   UNL     1       0.018   2.504  28.732  0.00  0.00    +0.013 A 
ATOM     32  C   UNL     1       2.247   2.849  27.868  0.00  0.00    +0.013 A 
ATOM     33  C   UNL     1       0.543   2.313  30.011  0.00  0.00    +0.001 A 
ATOM     34  C   UNL     1       2.772   2.658  29.147  0.00  0.00    +0.001 A 
ATOM     35  C   UNL     1       1.920   2.391  30.217  0.00  0.00    +0.000 A 
ENDBRANCH  26  27
ENDBRANCH  16  24
ENDBRANCH  11  16
TORSDOF 6
ENDMDL
MODEL 4
REMARK VINA RESULT:       7.0      1.367      4.648
REMARK  Name = 45783907
REMARK  9 active torsions:
REMARK  status: ('A' for Active; 'I' for Inactive)
REMARK    1  A    between atoms: N_2  and  C_13
REMARK    2  A    between atoms: C_8  and  C_12
REMARK    3  A    between atoms: C_9  and  C_13
REMARK    4  A    between atoms: C_11  and  C_16
REMARK    5  A    between atoms: C_12  and  C_17
REMARK    6  A    between atoms: C_12  and  C_18
REMARK    7  A    between atoms: C_15  and  C_21
REMARK    8  A    between atoms: C_16  and  C_24
REMARK    9  A    between atoms: C_26  and  C_27
REMARK                            x       y       z     vdW  Elec       q    Type
REMARK                         _______ _______ _______ _____ _____    ______ ____
ROOT
ATOM      8  C   UNL     1      -1.555  -0.280  25.378  0.00  0.00    +0.000 C 
ATOM      9  C   UNL     1      -1.477  -0.658  23.880  0.00  0.00    +0.029 C 
ATOM     10  C   UNL     1      -2.943   0.276  25.720  0.00  0.00    +0.012 C 
ATOM     11  C   UNL     1      -4.094  -0.693  25.375  0.00  0.00    +0.024 C 
ATOM     14  C   UNL     1      -2.704  -1.392  23.403  0.00  0.00    -0.023 C 
ATOM     15  C   UNL     1      -3.878  -1.430  24.062  0.00  0.00    -0.073 C 
ATOM     21  C   UNL     1      -5.013  -2.266  23.539  0.00  0.00    +0.039 C 
ENDROOT
BRANCH   8  12
ATOM     12  C   UNL     1      -1.198  -1.474  26.274  0.00  0.00    -0.013 C 
ATOM     17  C   UNL     1      -0.128  -2.336  25.612  0.00  0.00    +0.007 C 
ATOM     18  C   UNL     1      -0.732  -0.990  27.643  0.00  0.00    +0.007 C 
ENDBRANCH   8  12
BRANCH   9  13
ATOM     13  C   UNL     1      -1.252   0.574  22.996  0.00  0.00    +0.092 C 
BRANCH  13   2
ATOM      2  N   UNL     1       0.175   0.774  22.744  0.00  0.00    -0.299 NA
ATOM      3  N   UNL     1       2.973   0.325  23.100  0.00  0.00    -0.297 N 
ATOM      6  N   UNL     1       4.937   0.766  24.286  0.00  0.00    -0.223 NA
ATOM      7  N   UNL     1       4.986  -0.450  22.206  0.00  0.00    -0.223 NA
ATOM     19  C   UNL     1       0.794  -0.471  22.273  0.00  0.00    +0.103 C 
ATOM     20  C   UNL     1       0.851   1.239  23.961  0.00  0.00    +0.103 C 
ATOM     22  C   UNL     1       2.276  -0.261  21.951  0.00  0.00    +0.123 C 
ATOM     23  C   UNL     1       2.335   1.507  23.696  0.00  0.00    +0.123 C 
ATOM     25  C   UNL     1       4.364   0.208  23.203  0.00  0.00    +0.218 A 
ATOM     28  C   UNL     1       6.278   0.634  24.352  0.00  0.00    +0.116 A 
ATOM     29  C   UNL     1       6.326  -0.544  22.336  0.00  0.00    +0.116 A 
ATOM     30  C   UNL     1       7.032  -0.016  23.397  0.00  0.00    +0.039 A 
ENDBRANCH  13   2
ENDBRANCH   9  13
BRANCH  11  16
ATOM     16  C   UNL     1      -5.416   0.082  25.413  0.00  0.00    +0.105 C 
BRANCH  16  24
ATOM      1  O   UNL     1      -3.905   1.989  25.227  0.00  0.00    -0.420 OA
ATOM      4  N   UNL     1      -6.041   2.545  25.585  0.00  0.00    -0.112 NA
ATOM      5  N   UNL     1      -5.305   3.712  25.502  0.00  0.00    -0.107 NA
ATOM     24  C   UNL     1      -5.183   1.565  25.419  0.00  0.00    +0.218 A 
ATOM     26  C   UNL     1      -4.064   3.339  25.293  0.00  0.00    +0.248 A 
BRANCH  26  27
ATOM     27  C   UNL     1      -2.872   4.120  25.125  0.00  0.00    +0.038 A 
ATOM     31  C   UNL     1      -1.622   3.508  25.197  0.00  0.00    +0.013 A 
ATOM     32  C   UNL     1      -2.966   5.492  24.889  0.00  0.00    +0.013 A 
ATOM     33  C   UNL     1      -0.463   4.268  25.034  0.00  0.00    +0.001 A 
ATOM     34  C   UNL     1      -1.807   6.251  24.726  0.00  0.00    +0.001 A 
ATOM     35  C   UNL     1      -0.556   5.639  24.798  0.00  0.00    +0.000 A 
ENDBRANCH  26  27
ENDBRANCH  16  24
ENDBRANCH  11  16
TORSDOF 6
ENDMDL
MODEL 5
REMARK VINA RESULT:       7.5      1.840      6.741
REMARK  Name = 45783907
REMARK  9 active torsions:
REMARK  status: ('A' for Active; 'I' for Inactive)
REMARK    1  A    between atoms: N_2  and  C_13
REMARK    2  A    between atoms: C_8  and  C_12
REMARK    3  A    between atoms: C_9  and  C_13
REMARK    4  A    between atoms: C_11  and  C_16
REMARK    5  A    between atoms: C_12  and  C_17
REMARK    6  A    between atoms: C_12  and  C_18
REMARK    7  A    between atoms: C_15  and  C_21
REMARK    8  A    between atoms: C_16  and  C_24
REMARK    9  A    between atoms: C_26  and  C_27
REMARK                            x       y       z     vdW  Elec       q    Type
REMARK                         _______ _______ _______ _____ _____    ______ ____
ROOT
ATOM      8  C   UNL     1      -2.390   4.571  25.647  0.00  0.00    +0.000 C 
ATOM      9  C   UNL     1      -3.735   4.551  24.884  0.00  0.00    +0.029 C 
ATOM     10  C   UNL     1      -1.804   3.156  25.739  0.00  0.00    +0.012 C 
ATOM     11  C   UNL     1      -1.602   2.486  24.362  0.00  0.00    +0.024 C 
ATOM     14  C   UNL     1      -3.686   3.692  23.646  0.00  0.00    -0.023 C 
ATOM     15  C   UNL     1      -2.736   2.773  23.389  0.00  0.00    -0.073 C 
ATOM     21  C   UNL     1      -2.733   2.031  22.081  0.00  0.00    +0.039 C 
ENDROOT
BRANCH   8  12
ATOM     12  C   UNL     1      -1.395   5.544  25.001  0.00  0.00    -0.013 C 
ATOM     17  C   UNL     1      -0.196   4.785  24.441  0.00  0.00    +0.007 C 
ATOM     18  C   UNL     1      -2.079   6.357  23.907  0.00  0.00    +0.007 C 
ENDBRANCH   8  12
BRANCH   9  13
ATOM     13  C   UNL     1      -4.887   4.082  25.778  0.00  0.00    +0.092 C 
BRANCH  13   2
ATOM      2  N   UNL     1      -4.993   2.623  25.759  0.00  0.00    -0.299 NA
ATOM      3  N   UNL     1      -4.316  -0.029  24.944  0.00  0.00    -0.297 N 
ATOM      6  N   UNL     1      -4.541  -1.769  23.402  0.00  0.00    -0.223 NA
ATOM      7  N   UNL     1      -3.442  -2.117  25.518  0.00  0.00    -0.223 NA
ATOM     19  C   UNL     1      -3.733   2.010  26.196  0.00  0.00    +0.103 C 
ATOM     20  C   UNL     1      -5.338   2.150  24.412  0.00  0.00    +0.103 C 
ATOM     22  C   UNL     1      -3.849   0.484  26.235  0.00  0.00    +0.123 C 
ATOM     23  C   UNL     1      -5.507   0.629  24.392  0.00  0.00    +0.123 C 
ATOM     25  C   UNL     1      -4.089  -1.368  24.605  0.00  0.00    +0.218 A 
ATOM     28  C   UNL     1      -4.306  -3.065  23.109  0.00  0.00    +0.116 A 
ATOM     29  C   UNL     1      -3.241  -3.402  25.160  0.00  0.00    +0.116 A 
ATOM     30  C   UNL     1      -3.654  -3.937  23.958  0.00  0.00    +0.039 A 
ENDBRANCH  13   2
ENDBRANCH   9  13
BRANCH  11  16
ATOM     16  C   UNL     1      -1.365   0.987  24.576  0.00  0.00    +0.105 C 
BRANCH  16  24
ATOM      1  O   UNL     1       0.990   0.513  24.148  0.00  0.00    -0.420 OA
ATOM      4  N   UNL     1      -0.375  -0.038  22.465  0.00  0.00    -0.112 NA
ATOM      5  N   UNL     1       0.916  -0.358  22.089  0.00  0.00    -0.107 NA
ATOM     24  C   UNL     1      -0.284   0.467  23.673  0.00  0.00    +0.218 A 
ATOM     26  C   UNL     1       1.679  -0.019  23.102  0.00  0.00    +0.248 A 
BRANCH  26  27
ATOM     27  C   UNL     1       3.100  -0.121  23.273  0.00  0.00    +0.038 A 
ATOM     31  C   UNL     1       3.918   0.967  22.971  0.00  0.00    +0.013 A 
ATOM     32  C   UNL     1       3.662  -1.309  23.742  0.00  0.00    +0.013 A 
ATOM     33  C   UNL     1       5.300   0.867  23.138  0.00  0.00    +0.001 A 
ATOM     34  C   UNL     1       5.043  -1.408  23.908  0.00  0.00    +0.001 A 
ATOM     35  C   UNL     1       5.862  -0.320  23.606  0.00  0.00    +0.000 A 
ENDBRANCH  26  27
ENDBRANCH  16  24
ENDBRANCH  11  16
TORSDOF 6
ENDMDL
