MODEL 1
REMARK VINA RESULT:       6.4      0.000      0.000
REMARK  Name = 44716832
REMARK  11 active torsions:
REMARK  status: ('A' for Active; 'I' for Inactive)
REMARK    1  A    between atoms: S_1  and  N_9
REMARK    2  A    between atoms: S_1  and  C_24
REMARK    3  A    between atoms: N_9  and  C_15
REMARK    4  A    between atoms: N_10  and  C_22
REMARK    5  A    between atoms: N_13  and  C_34
REMARK    6  A    between atoms: C_17  and  C_20
REMARK    7  A    between atoms: C_21  and  C_23
REMARK    8  A    between atoms: C_22  and  C_25
REMARK    9  A    between atoms: C_22  and  C_26
REMARK   10  A    between atoms: C_25  and  C_29
REMARK   11  A    between atoms: C_31  and  C_35
REMARK                            x       y       z     vdW  Elec       q    Type
REMARK                         _______ _______ _______ _____ _____    ______ ____
ROOT
ATOM      4  O   UNL     1      -1.537   3.704  27.196  0.00  0.00    -0.268 OA
ATOM      8  N   UNL     1      -1.424   2.260  25.352  0.00  0.00    -0.285 N 
ATOM     15  C   UNL     1      -0.249  -0.086  24.091  0.00  0.00    +0.080 C 
ATOM     16  C   UNL     1      -0.685   1.116  23.250  0.00  0.00    +0.052 C 
ATOM     17  C   UNL     1      -1.742   1.979  23.940  0.00  0.00    +0.164 C 
ATOM     18  C   UNL     1       0.157   0.358  25.493  0.00  0.00    +0.039 C 
ATOM     19  C   UNL     1      -0.975   1.125  26.164  0.00  0.00    +0.110 C 
ATOM     21  C   UNL     1      -1.666   3.484  25.993  0.00  0.00    +0.266 C 
ENDROOT
BRANCH  21  23
ATOM      2  S   UNL     1      -2.238   6.862  24.000  0.00  0.00    -0.080 S 
ATOM     11  N   UNL     1      -3.304   4.559  24.488  0.00  0.00    -0.240 NA
ATOM     23  C   UNL     1      -2.109   4.619  25.175  0.00  0.00    +0.133 A 
ATOM     28  C   UNL     1      -1.390   5.787  25.033  0.00  0.00    +0.080 A 
ATOM     31  C   UNL     1      -3.477   5.686  23.834  0.00  0.00    +0.076 A 
ATOM     35  C   UNL     1      -4.648   5.991  22.985  0.00  0.00    +0.073 C 
ENDBRANCH  21  23
BRANCH  17  20
ATOM      3  O   UNL     1      -3.559   0.829  22.899  0.00  0.00    -0.274 OA
ATOM     10  N   UNL     1      -3.736   1.418  25.144  0.00  0.00    -0.302 N 
ATOM     20  C   UNL     1      -3.098   1.338  23.918  0.00  0.00    +0.234 C 
ATOM     40  H   UNL     1      -3.227   1.775  25.946  0.00  0.00    +0.150 HD
BRANCH  10  22
ATOM     22  C   UNL     1      -5.063   0.896  25.381  0.00  0.00    +0.163 C 
BRANCH  22  26
ATOM      7  O   UNL     1      -7.006   1.885  24.309  0.00  0.00    -0.274 OA
ATOM     14  N   UNL     1      -5.778   3.172  25.763  0.00  0.00    -0.328 N 
ATOM     26  C   UNL     1      -6.047   2.012  25.067  0.00  0.00    +0.231 C 
ATOM     41  H   UNL     1      -4.996   3.256  26.403  0.00  0.00    +0.145 HD
ATOM     42  H   UNL     1      -6.368   3.992  25.656  0.00  0.00    +0.145 HD
ENDBRANCH  22  26
BRANCH  22  25
ATOM     25  C   UNL     1      -5.361  -0.338  24.521  0.00  0.00    +0.067 C 
BRANCH  25  29
ATOM     29  C   UNL     1      -4.275  -1.382  24.600  0.00  0.00    -0.045 A 
ATOM     32  C   UNL     1      -4.130  -2.315  23.574  0.00  0.00    +0.004 A 
ATOM     33  C   UNL     1      -3.417  -1.415  25.699  0.00  0.00    +0.004 A 
ATOM     36  C   UNL     1      -3.126  -3.282  23.647  0.00  0.00    +0.000 A 
ATOM     37  C   UNL     1      -2.414  -2.381  25.772  0.00  0.00    +0.000 A 
ATOM     38  C   UNL     1      -2.268  -3.314  24.746  0.00  0.00    +0.000 A 
ENDBRANCH  25  29
ENDBRANCH  22  25
ENDBRANCH  10  22
ENDBRANCH  17  20
BRANCH  15   9
ATOM      9  N   UNL     1       0.901  -0.755  23.436  0.00  0.00    -0.185 NA
ATOM     39  H   UNL     1       1.261  -1.593  23.910  0.00  0.00    +0.148 HD
BRANCH   9   1
ATOM      1  S   UNL     1       1.956   0.146  22.457  0.00  0.00    +0.077 S 
ATOM      5  O   UNL     1       1.797   1.558  22.747  0.00  0.00    -0.152 OA
ATOM      6  O   UNL     1       1.852  -0.336  21.093  0.00  0.00    -0.152 OA
BRANCH   1  24
ATOM     12  N   UNL     1       3.720  -1.547  23.728  0.00  0.00    -0.216 NA
ATOM     13  N   UNL     1       5.649  -0.457  23.567  0.00  0.00    -0.338 N 
ATOM     24  C   UNL     1       3.538  -0.360  23.064  0.00  0.00    +0.211 A 
ATOM     27  C   UNL     1       4.720   0.333  22.952  0.00  0.00    +0.135 A 
ATOM     30  C   UNL     1       5.003  -1.574  24.018  0.00  0.00    +0.201 A 
ATOM     34  C   UNL     1       7.054  -0.167  23.716  0.00  0.00    +0.150 C 
ENDBRANCH   1  24
ENDBRANCH   9   1
ENDBRANCH  15   9
TORSDOF 9
ENDMDL
MODEL 2
REMARK VINA RESULT:       6.7      2.104      7.074
REMARK  Name = 44716832
REMARK  11 active torsions:
REMARK  status: ('A' for Active; 'I' for Inactive)
REMARK    1  A    between atoms: S_1  and  N_9
REMARK    2  A    between atoms: S_1  and  C_24
REMARK    3  A    between atoms: N_9  and  C_15
REMARK    4  A    between atoms: N_10  and  C_22
REMARK    5  A    between atoms: N_13  and  C_34
REMARK    6  A    between atoms: C_17  and  C_20
REMARK    7  A    between atoms: C_21  and  C_23
REMARK    8  A    between atoms: C_22  and  C_25
REMARK    9  A    between atoms: C_22  and  C_26
REMARK   10  A    between atoms: C_25  and  C_29
REMARK   11  A    between atoms: C_31  and  C_35
REMARK                            x       y       z     vdW  Elec       q    Type
REMARK                         _______ _______ _______ _____ _____    ______ ____
ROOT
ATOM      4  O   UNL     1       1.112  -0.758  21.248  0.00  0.00    -0.268 OA
ATOM      8  N   UNL     1       0.257   0.759  22.819  0.00  0.00    -0.285 N 
ATOM     15  C   UNL     1      -1.776   2.710  23.549  0.00  0.00    +0.080 C 
ATOM     16  C   UNL     1      -0.333   2.869  24.033  0.00  0.00    +0.052 C 
ATOM     17  C   UNL     1       0.443   1.550  24.049  0.00  0.00    +0.164 C 
ATOM     18  C   UNL     1      -1.817   1.971  22.215  0.00  0.00    +0.039 C 
ATOM     19  C   UNL     1      -1.117   0.623  22.324  0.00  0.00    +0.110 C 
ATOM     21  C   UNL     1       1.268   0.015  22.192  0.00  0.00    +0.266 C 
ENDROOT
BRANCH  21  23
ATOM      2  S   UNL     1       4.914   1.097  23.305  0.00  0.00    -0.080 S 
ATOM     11  N   UNL     1       3.294  -0.916  23.256  0.00  0.00    -0.240 NA
ATOM     23  C   UNL     1       2.642   0.159  22.687  0.00  0.00    +0.133 A 
ATOM     28  C   UNL     1       3.358   1.336  22.625  0.00  0.00    +0.080 A 
ATOM     31  C   UNL     1       4.500  -0.538  23.618  0.00  0.00    +0.076 A 
ATOM     35  C   UNL     1       5.495  -1.421  24.265  0.00  0.00    +0.073 C 
ENDBRANCH  21  23
BRANCH  17  20
ATOM      3  O   UNL     1      -0.167   1.127  26.319  0.00  0.00    -0.274 OA
ATOM     10  N   UNL     1      -0.032  -0.663  24.836  0.00  0.00    -0.302 N 
ATOM     20  C   UNL     1       0.042   0.672  25.197  0.00  0.00    +0.234 C 
ATOM     40  H   UNL     1       0.068  -0.918  23.858  0.00  0.00    +0.150 HD
BRANCH  10  22
ATOM     22  C   UNL     1      -0.375  -1.715  25.764  0.00  0.00    +0.163 C 
BRANCH  22  26
ATOM      7  O   UNL     1      -2.482  -0.802  26.559  0.00  0.00    -0.274 OA
ATOM     14  N   UNL     1      -0.739  -1.000  28.043  0.00  0.00    -0.328 N 
ATOM     26  C   UNL     1      -1.317  -1.114  26.796  0.00  0.00    +0.231 C 
ATOM     41  H   UNL     1       0.217  -1.282  28.230  0.00  0.00    +0.145 HD
ATOM     42  H   UNL     1      -1.264  -0.626  28.828  0.00  0.00    +0.145 HD
ENDBRANCH  22  26
BRANCH  22  25
ATOM     25  C   UNL     1      -1.038  -2.909  25.067  0.00  0.00    +0.067 C 
BRANCH  25  29
ATOM     29  C   UNL     1      -2.395  -2.573  24.499  0.00  0.00    -0.045 A 
ATOM     32  C   UNL     1      -3.393  -3.548  24.455  0.00  0.00    +0.004 A 
ATOM     33  C   UNL     1      -2.653  -1.290  24.017  0.00  0.00    +0.004 A 
ATOM     36  C   UNL     1      -4.648  -3.239  23.929  0.00  0.00    +0.000 A 
ATOM     37  C   UNL     1      -3.907  -0.981  23.491  0.00  0.00    +0.000 A 
ATOM     38  C   UNL     1      -4.904  -1.955  23.448  0.00  0.00    +0.000 A 
ENDBRANCH  25  29
ENDBRANCH  22  25
ENDBRANCH  10  22
ENDBRANCH  17  20
BRANCH  15   9
ATOM      9  N   UNL     1      -2.392   4.049  23.386  0.00  0.00    -0.185 NA
ATOM     39  H   UNL     1      -1.921   4.682  22.728  0.00  0.00    +0.148 HD
BRANCH   9   1
ATOM      1  S   UNL     1      -3.302   4.720  24.654  0.00  0.00    +0.077 S 
ATOM      5  O   UNL     1      -4.063   5.850  24.157  0.00  0.00    -0.152 OA
ATOM      6  O   UNL     1      -2.445   4.870  25.814  0.00  0.00    -0.152 OA
BRANCH   1  24
ATOM     12  N   UNL     1      -4.814   2.491  24.075  0.00  0.00    -0.216 NA
ATOM     13  N   UNL     1      -5.828   2.070  26.006  0.00  0.00    -0.338 N 
ATOM     24  C   UNL     1      -4.438   3.415  25.017  0.00  0.00    +0.211 A 
ATOM     27  C   UNL     1      -5.054   3.175  26.222  0.00  0.00    +0.135 A 
ATOM     30  C   UNL     1      -5.652   1.695  24.703  0.00  0.00    +0.201 A 
ATOM     34  C   UNL     1      -6.676   1.418  26.973  0.00  0.00    +0.150 C 
ENDBRANCH   1  24
ENDBRANCH   9   1
ENDBRANCH  15   9
TORSDOF 9
ENDMDL
MODEL 3
REMARK VINA RESULT:       8.4      2.741      7.426
REMARK  Name = 44716832
REMARK  11 active torsions:
REMARK  status: ('A' for Active; 'I' for Inactive)
REMARK    1  A    between atoms: S_1  and  N_9
REMARK    2  A    between atoms: S_1  and  C_24
REMARK    3  A    between atoms: N_9  and  C_15
REMARK    4  A    between atoms: N_10  and  C_22
REMARK    5  A    between atoms: N_13  and  C_34
REMARK    6  A    between atoms: C_17  and  C_20
REMARK    7  A    between atoms: C_21  and  C_23
REMARK    8  A    between atoms: C_22  and  C_25
REMARK    9  A    between atoms: C_22  and  C_26
REMARK   10  A    between atoms: C_25  and  C_29
REMARK   11  A    between atoms: C_31  and  C_35
REMARK                            x       y       z     vdW  Elec       q    Type
REMARK                         _______ _______ _______ _____ _____    ______ ____
ROOT
ATOM      4  O   UNL     1       0.184   4.105  24.968  0.00  0.00    -0.268 OA
ATOM      8  N   UNL     1      -1.095   2.142  25.047  0.00  0.00    -0.285 N 
ATOM     15  C   UNL     1      -3.462   0.673  24.201  0.00  0.00    +0.080 C 
ATOM     16  C   UNL     1      -2.870   0.463  25.597  0.00  0.00    +0.052 C 
ATOM     17  C   UNL     1      -1.393   0.847  25.686  0.00  0.00    +0.164 C 
ATOM     18  C   UNL     1      -3.176   2.087  23.704  0.00  0.00    +0.039 C 
ATOM     19  C   UNL     1      -1.681   2.372  23.722  0.00  0.00    +0.110 C 
ATOM     21  C   UNL     1      -0.182   3.083  25.546  0.00  0.00    +0.266 C 
ENDROOT
BRANCH  21  23
ATOM      2  S   UNL     1       0.701   2.254  29.319  0.00  0.00    -0.080 S 
ATOM     11  N   UNL     1       1.736   3.086  27.102  0.00  0.00    -0.240 NA
ATOM     23  C   UNL     1       0.395   2.852  26.874  0.00  0.00    +0.133 A 
ATOM     28  C   UNL     1      -0.330   2.397  27.956  0.00  0.00    +0.080 A 
ATOM     31  C   UNL     1       2.010   2.806  28.356  0.00  0.00    +0.076 A 
ATOM     35  C   UNL     1       3.349   2.935  28.970  0.00  0.00    +0.073 C 
ENDBRANCH  21  23
BRANCH  17  20
ATOM      3  O   UNL     1      -0.496  -1.348  25.397  0.00  0.00    -0.274 OA
ATOM     10  N   UNL     1       0.289   0.377  24.045  0.00  0.00    -0.302 N 
ATOM     20  C   UNL     1      -0.503  -0.173  25.039  0.00  0.00    +0.234 C 
ATOM     40  H   UNL     1       0.135   1.340  23.764  0.00  0.00    +0.150 HD
BRANCH  10  22
ATOM     22  C   UNL     1       1.249  -0.390  23.284  0.00  0.00    +0.163 C 
BRANCH  22  26
ATOM      7  O   UNL     1      -0.461  -1.816  22.309  0.00  0.00    -0.274 OA
ATOM     14  N   UNL     1       0.951  -0.673  20.903  0.00  0.00    -0.328 N 
ATOM     26  C   UNL     1       0.490  -1.054  22.145  0.00  0.00    +0.231 C 
ATOM     41  H   UNL     1       1.722  -0.025  20.781  0.00  0.00    +0.145 HD
ATOM     42  H   UNL     1       0.522  -1.032  20.055  0.00  0.00    +0.145 HD
ENDBRANCH  22  26
BRANCH  22  25
ATOM     25  C   UNL     1       2.382   0.484  22.733  0.00  0.00    +0.067 C 
BRANCH  25  29
ATOM     29  C   UNL     1       3.744   0.041  23.207  0.00  0.00    -0.045 A 
ATOM     32  C   UNL     1       4.812   0.939  23.194  0.00  0.00    +0.004 A 
ATOM     33  C   UNL     1       3.936  -1.264  23.658  0.00  0.00    +0.004 A 
ATOM     36  C   UNL     1       6.072   0.530  23.631  0.00  0.00    +0.000 A 
ATOM     37  C   UNL     1       5.196  -1.673  24.096  0.00  0.00    +0.000 A 
ATOM     38  C   UNL     1       6.264  -0.776  24.082  0.00  0.00    +0.000 A 
ENDBRANCH  25  29
ENDBRANCH  22  25
ENDBRANCH  10  22
ENDBRANCH  17  20
BRANCH  15   9
ATOM      9  N   UNL     1      -4.928   0.458  24.250  0.00  0.00    -0.185 NA
ATOM     39  H   UNL     1      -5.338  -0.020  23.437  0.00  0.00    +0.148 HD
BRANCH   9   1
ATOM      1  S   UNL     1      -5.906   1.507  25.159  0.00  0.00    +0.077 S 
ATOM      5  O   UNL     1      -6.192   0.906  26.448  0.00  0.00    -0.152 OA
ATOM      6  O   UNL     1      -6.988   1.982  24.318  0.00  0.00    -0.152 OA
BRANCH   1  24
ATOM     12  N   UNL     1      -4.292   3.160  26.660  0.00  0.00    -0.216 NA
ATOM     13  N   UNL     1      -3.578   4.639  25.165  0.00  0.00    -0.338 N 
ATOM     24  C   UNL     1      -4.821   2.877  25.426  0.00  0.00    +0.211 A 
ATOM     27  C   UNL     1      -4.393   3.781  24.483  0.00  0.00    +0.135 A 
ATOM     30  C   UNL     1      -3.548   4.228  26.468  0.00  0.00    +0.201 A 
ATOM     34  C   UNL     1      -2.878   5.773  24.613  0.00  0.00    +0.150 C 
ENDBRANCH   1  24
ENDBRANCH   9   1
ENDBRANCH  15   9
TORSDOF 9
ENDMDL
MODEL 4
REMARK VINA RESULT:       8.4      1.219      2.869
REMARK  Name = 44716832
REMARK  11 active torsions:
REMARK  status: ('A' for Active; 'I' for Inactive)
REMARK    1  A    between atoms: S_1  and  N_9
REMARK    2  A    between atoms: S_1  and  C_24
REMARK    3  A    between atoms: N_9  and  C_15
REMARK    4  A    between atoms: N_10  and  C_22
REMARK    5  A    between atoms: N_13  and  C_34
REMARK    6  A    between atoms: C_17  and  C_20
REMARK    7  A    between atoms: C_21  and  C_23
REMARK    8  A    between atoms: C_22  and  C_25
REMARK    9  A    between atoms: C_22  and  C_26
REMARK   10  A    between atoms: C_25  and  C_29
REMARK   11  A    between atoms: C_31  and  C_35
REMARK                            x       y       z     vdW  Elec       q    Type
REMARK                         _______ _______ _______ _____ _____    ______ ____
ROOT
ATOM      4  O   UNL     1      -1.503   3.164  27.117  0.00  0.00    -0.268 OA
ATOM      8  N   UNL     1      -1.131   1.935  25.156  0.00  0.00    -0.285 N 
ATOM     15  C   UNL     1       0.291  -0.205  23.787  0.00  0.00    +0.080 C 
ATOM     16  C   UNL     1      -0.128   1.060  23.034  0.00  0.00    +0.052 C 
ATOM     17  C   UNL     1      -1.294   1.794  23.697  0.00  0.00    +0.164 C 
ATOM     18  C   UNL     1       0.534   0.104  25.261  0.00  0.00    +0.039 C 
ATOM     19  C   UNL     1      -0.699   0.741  25.888  0.00  0.00    +0.110 C 
ATOM     21  C   UNL     1      -1.503   3.070  25.891  0.00  0.00    +0.266 C 
ENDROOT
BRANCH  21  23
ATOM      2  S   UNL     1      -2.024   6.587  24.140  0.00  0.00    -0.080 S 
ATOM     11  N   UNL     1      -3.120   4.268  24.457  0.00  0.00    -0.240 NA
ATOM     23  C   UNL     1      -1.928   4.265  25.153  0.00  0.00    +0.133 A 
ATOM     28  C   UNL     1      -1.195   5.432  25.099  0.00  0.00    +0.080 A 
ATOM     31  C   UNL     1      -3.275   5.440  23.884  0.00  0.00    +0.076 A 
ATOM     35  C   UNL     1      -4.438   5.818  23.052  0.00  0.00    +0.073 C 
ENDBRANCH  21  23
BRANCH  17  20
ATOM      3  O   UNL     1      -3.462   1.557  22.721  0.00  0.00    -0.274 OA
ATOM     10  N   UNL     1      -2.711  -0.070  24.209  0.00  0.00    -0.302 N 
ATOM     20  C   UNL     1      -2.604   1.097  23.470  0.00  0.00    +0.234 C 
ATOM     40  H   UNL     1      -1.904  -0.407  24.723  0.00  0.00    +0.150 HD
BRANCH  10  22
ATOM     22  C   UNL     1      -3.883  -0.914  24.186  0.00  0.00    +0.163 C 
BRANCH  22  26
ATOM      7  O   UNL     1      -4.098  -3.320  23.920  0.00  0.00    -0.274 OA
ATOM     14  N   UNL     1      -2.069  -2.463  24.574  0.00  0.00    -0.328 N 
ATOM     26  C   UNL     1      -3.398  -2.356  24.220  0.00  0.00    +0.231 C 
ATOM     41  H   UNL     1      -1.496  -1.656  24.797  0.00  0.00    +0.145 HD
ATOM     42  H   UNL     1      -1.615  -3.370  24.622  0.00  0.00    +0.145 HD
ENDBRANCH  22  26
BRANCH  22  25
ATOM     25  C   UNL     1      -4.820  -0.638  25.367  0.00  0.00    +0.067 C 
BRANCH  25  29
ATOM     29  C   UNL     1      -5.308   0.789  25.405  0.00  0.00    -0.045 A 
ATOM     32  C   UNL     1      -6.357   1.189  24.576  0.00  0.00    +0.004 A 
ATOM     33  C   UNL     1      -4.711   1.709  26.266  0.00  0.00    +0.004 A 
ATOM     36  C   UNL     1      -6.809   2.508  24.610  0.00  0.00    +0.000 A 
ATOM     37  C   UNL     1      -5.162   3.028  26.300  0.00  0.00    +0.000 A 
ATOM     38  C   UNL     1      -6.211   3.428  25.472  0.00  0.00    +0.000 A 
ENDBRANCH  25  29
ENDBRANCH  22  25
ENDBRANCH  10  22
ENDBRANCH  17  20
BRANCH  15   9
ATOM      9  N   UNL     1       1.536  -0.745  23.188  0.00  0.00    -0.185 NA
ATOM     39  H   UNL     1       1.880  -1.626  23.590  0.00  0.00    +0.148 HD
BRANCH   9   1
ATOM      1  S   UNL     1       2.648   0.309  22.457  0.00  0.00    +0.077 S 
ATOM      5  O   UNL     1       2.436   1.656  22.954  0.00  0.00    -0.152 OA
ATOM      6  O   UNL     1       2.665   0.052  21.030  0.00  0.00    -0.152 OA
BRANCH   1  24
ATOM     12  N   UNL     1       4.269  -1.407  23.878  0.00  0.00    -0.216 NA
ATOM     13  N   UNL     1       6.284  -0.511  23.613  0.00  0.00    -0.338 N 
ATOM     24  C   UNL     1       4.185  -0.275  23.106  0.00  0.00    +0.211 A 
ATOM     27  C   UNL     1       5.422   0.297  22.928  0.00  0.00    +0.135 A 
ATOM     30  C   UNL     1       5.547  -1.521  24.167  0.00  0.00    +0.201 A 
ATOM     34  C   UNL     1       7.711  -0.334  23.731  0.00  0.00    +0.150 C 
ENDBRANCH   1  24
ENDBRANCH   9   1
ENDBRANCH  15   9
TORSDOF 9
ENDMDL
MODEL 5
REMARK VINA RESULT:       8.4      2.630      7.052
REMARK  Name = 44716832
REMARK  11 active torsions:
REMARK  status: ('A' for Active; 'I' for Inactive)
REMARK    1  A    between atoms: S_1  and  N_9
REMARK    2  A    between atoms: S_1  and  C_24
REMARK    3  A    between atoms: N_9  and  C_15
REMARK    4  A    between atoms: N_10  and  C_22
REMARK    5  A    between atoms: N_13  and  C_34
REMARK    6  A    between atoms: C_17  and  C_20
REMARK    7  A    between atoms: C_21  and  C_23
REMARK    8  A    between atoms: C_22  and  C_25
REMARK    9  A    between atoms: C_22  and  C_26
REMARK   10  A    between atoms: C_25  and  C_29
REMARK   11  A    between atoms: C_31  and  C_35
REMARK                            x       y       z     vdW  Elec       q    Type
REMARK                         _______ _______ _______ _____ _____    ______ ____
ROOT
ATOM      4  O   UNL     1       0.572   5.037  25.330  0.00  0.00    -0.268 OA
ATOM      8  N   UNL     1      -1.086   3.412  25.002  0.00  0.00    -0.285 N 
ATOM     15  C   UNL     1      -3.705   2.700  23.948  0.00  0.00    +0.080 C 
ATOM     16  C   UNL     1      -3.171   2.042  25.223  0.00  0.00    +0.052 C 
ATOM     17  C   UNL     1      -1.646   2.088  25.328  0.00  0.00    +0.164 C 
ATOM     18  C   UNL     1      -3.132   4.105  23.789  0.00  0.00    +0.039 C 
ATOM     19  C   UNL     1      -1.609   4.071  23.801  0.00  0.00    +0.110 C 
ATOM     21  C   UNL     1       0.002   4.000  25.665  0.00  0.00    +0.266 C 
ENDROOT
BRANCH  21  23
ATOM      2  S   UNL     1       0.719   1.947  28.978  0.00  0.00    -0.080 S 
ATOM     11  N   UNL     1       1.832   3.517  27.252  0.00  0.00    -0.240 NA
ATOM     23  C   UNL     1       0.517   3.341  26.869  0.00  0.00    +0.133 A 
ATOM     28  C   UNL     1      -0.243   2.523  27.680  0.00  0.00    +0.080 A 
ATOM     31  C   UNL     1       2.050   2.830  28.351  0.00  0.00    +0.076 A 
ATOM     35  C   UNL     1       3.347   2.775  29.060  0.00  0.00    +0.073 C 
ENDBRANCH  21  23
BRANCH  17  20
ATOM      3  O   UNL     1      -1.161   1.121  23.198  0.00  0.00    -0.274 OA
ATOM     10  N   UNL     1      -0.209   0.183  25.104  0.00  0.00    -0.302 N 
ATOM     20  C   UNL     1      -0.986   1.098  24.413  0.00  0.00    +0.234 C 
ATOM     40  H   UNL     1      -0.057   0.313  26.099  0.00  0.00    +0.150 HD
BRANCH  10  22
ATOM     22  C   UNL     1       0.515  -0.887  24.457  0.00  0.00    +0.163 C 
BRANCH  22  26
ATOM      7  O   UNL     1      -0.973  -2.275  23.127  0.00  0.00    -0.274 OA
ATOM     14  N   UNL     1      -0.717  -2.761  25.358  0.00  0.00    -0.328 N 
ATOM     26  C   UNL     1      -0.475  -2.019  24.221  0.00  0.00    +0.231 C 
ATOM     41  H   UNL     1      -0.281  -2.552  26.250  0.00  0.00    +0.145 HD
ATOM     42  H   UNL     1      -1.348  -3.555  25.336  0.00  0.00    +0.145 HD
ENDBRANCH  22  26
BRANCH  22  25
ATOM     25  C   UNL     1       1.144  -0.443  23.131  0.00  0.00    +0.067 C 
BRANCH  25  29
ATOM     29  C   UNL     1       2.642  -0.287  23.218  0.00  0.00    -0.045 A 
ATOM     32  C   UNL     1       3.423  -1.331  23.713  0.00  0.00    +0.004 A 
ATOM     33  C   UNL     1       3.245   0.900  22.805  0.00  0.00    +0.004 A 
ATOM     36  C   UNL     1       4.809  -1.188  23.795  0.00  0.00    +0.000 A 
ATOM     37  C   UNL     1       4.630   1.044  22.886  0.00  0.00    +0.000 A 
ATOM     38  C   UNL     1       5.412  -0.000  23.381  0.00  0.00    +0.000 A 
ENDBRANCH  25  29
ENDBRANCH  22  25
ENDBRANCH  10  22
ENDBRANCH  17  20
BRANCH  15   9
ATOM      9  N   UNL     1      -5.184   2.779  24.016  0.00  0.00    -0.185 NA
ATOM     39  H   UNL     1      -5.599   3.673  23.724  0.00  0.00    +0.148 HD
BRANCH   9   1
ATOM      1  S   UNL     1      -6.032   1.809  25.123  0.00  0.00    +0.077 S 
ATOM      5  O   UNL     1      -7.362   1.542  24.611  0.00  0.00    -0.152 OA
ATOM      6  O   UNL     1      -5.858   2.359  26.453  0.00  0.00    -0.152 OA
BRANCH   1  24
ATOM     12  N   UNL     1      -4.300  -0.101  26.095  0.00  0.00    -0.216 NA
ATOM     13  N   UNL     1      -4.247  -1.596  24.453  0.00  0.00    -0.338 N 
ATOM     24  C   UNL     1      -5.112   0.301  25.064  0.00  0.00    +0.211 A 
ATOM     27  C   UNL     1      -5.094  -0.611  24.034  0.00  0.00    +0.135 A 
ATOM     30  C   UNL     1      -3.794  -1.247  25.695  0.00  0.00    +0.201 A 
ATOM     34  C   UNL     1      -3.892  -2.787  23.721  0.00  0.00    +0.150 C 
ENDBRANCH   1  24
ENDBRANCH   9   1
ENDBRANCH  15   9
TORSDOF 9
ENDMDL
MODEL 6
REMARK VINA RESULT:       8.5      2.702      7.578
REMARK  Name = 44716832
REMARK  11 active torsions:
REMARK  status: ('A' for Active; 'I' for Inactive)
REMARK    1  A    between atoms: S_1  and  N_9
REMARK    2  A    between atoms: S_1  and  C_24
REMARK    3  A    between atoms: N_9  and  C_15
REMARK    4  A    between atoms: N_10  and  C_22
REMARK    5  A    between atoms: N_13  and  C_34
REMARK    6  A    between atoms: C_17  and  C_20
REMARK    7  A    between atoms: C_21  and  C_23
REMARK    8  A    between atoms: C_22  and  C_25
REMARK    9  A    between atoms: C_22  and  C_26
REMARK   10  A    between atoms: C_25  and  C_29
REMARK   11  A    between atoms: C_31  and  C_35
REMARK                            x       y       z     vdW  Elec       q    Type
REMARK                         _______ _______ _______ _____ _____    ______ ____
ROOT
ATOM      4  O   UNL     1       0.252  -2.669  25.048  0.00  0.00    -0.268 OA
ATOM      8  N   UNL     1      -1.317  -0.938  24.857  0.00  0.00    -0.285 N 
ATOM     15  C   UNL     1      -4.055  -0.007  25.194  0.00  0.00    +0.080 C 
ATOM     16  C   UNL     1      -3.187   0.519  24.048  0.00  0.00    +0.052 C 
ATOM     17  C   UNL     1      -1.688   0.384  24.321  0.00  0.00    +0.164 C 
ATOM     18  C   UNL     1      -3.637  -1.424  25.577  0.00  0.00    +0.039 C 
ATOM     19  C   UNL     1      -2.158  -1.471  25.934  0.00  0.00    +0.110 C 
ATOM     21  C   UNL     1      -0.147  -1.634  24.518  0.00  0.00    +0.266 C 
ENDROOT
BRANCH  21  23
ATOM      2  S   UNL     1       1.580  -0.448  21.154  0.00  0.00    -0.080 S 
ATOM     11  N   UNL     1       1.877  -0.463  23.722  0.00  0.00    -0.240 NA
ATOM     23  C   UNL     1       0.687  -1.100  23.436  0.00  0.00    +0.133 A 
ATOM     28  C   UNL     1       0.356  -1.189  22.100  0.00  0.00    +0.080 A 
ATOM     31  C   UNL     1       2.435  -0.077  22.596  0.00  0.00    +0.076 A 
ATOM     35  C   UNL     1       3.725   0.640  22.503  0.00  0.00    +0.073 C 
ENDBRANCH  21  23
BRANCH  17  20
ATOM      3  O   UNL     1      -1.510   1.367  26.490  0.00  0.00    -0.274 OA
ATOM     10  N   UNL     1      -0.401   2.369  24.705  0.00  0.00    -0.302 N 
ATOM     20  C   UNL     1      -1.198   1.407  25.304  0.00  0.00    +0.234 C 
ATOM     40  H   UNL     1      -0.128   2.253  23.734  0.00  0.00    +0.150 HD
BRANCH  10  22
ATOM     22  C   UNL     1       0.178   3.477  25.429  0.00  0.00    +0.163 C 
BRANCH  22  26
ATOM      7  O   UNL     1      -0.685   5.733  25.166  0.00  0.00    -0.274 OA
ATOM     14  N   UNL     1       0.224   4.683  23.336  0.00  0.00    -0.328 N 
ATOM     26  C   UNL     1      -0.162   4.743  24.658  0.00  0.00    +0.231 C 
ATOM     41  H   UNL     1       0.676   3.867  22.936  0.00  0.00    +0.145 HD
ATOM     42  H   UNL     1       0.069   5.468  22.712  0.00  0.00    +0.145 HD
ENDBRANCH  22  26
BRANCH  22  25
ATOM     25  C   UNL     1      -0.348   3.568  26.866  0.00  0.00    +0.067 C 
BRANCH  25  29
ATOM     29  C   UNL     1       0.665   3.118  27.890  0.00  0.00    -0.045 A 
ATOM     32  C   UNL     1       2.026   3.154  27.585  0.00  0.00    +0.004 A 
ATOM     33  C   UNL     1       0.242   2.667  29.139  0.00  0.00    +0.004 A 
ATOM     36  C   UNL     1       2.964   2.737  28.531  0.00  0.00    +0.000 A 
ATOM     37  C   UNL     1       1.178   2.251  30.085  0.00  0.00    +0.000 A 
ATOM     38  C   UNL     1       2.540   2.286  29.781  0.00  0.00    +0.000 A 
ENDBRANCH  25  29
ENDBRANCH  22  25
ENDBRANCH  10  22
ENDBRANCH  17  20
BRANCH  15   9
ATOM      9  N   UNL     1      -5.477  -0.013  24.773  0.00  0.00    -0.185 NA
ATOM     39  H   UNL     1      -5.706  -0.620  23.975  0.00  0.00    +0.148 HD
BRANCH   9   1
ATOM      1  S   UNL     1      -6.452   1.345  25.072  0.00  0.00    +0.077 S 
ATOM      5  O   UNL     1      -7.013   1.252  26.407  0.00  0.00    -0.152 OA
ATOM      6  O   UNL     1      -7.319   1.557  23.929  0.00  0.00    -0.152 OA
BRANCH   1  24
ATOM     12  N   UNL     1      -4.632   3.064  23.924  0.00  0.00    -0.216 NA
ATOM     13  N   UNL     1      -3.933   4.268  25.655  0.00  0.00    -0.338 N 
ATOM     24  C   UNL     1      -5.264   2.654  25.070  0.00  0.00    +0.211 A 
ATOM     27  C   UNL     1      -4.847   3.385  26.157  0.00  0.00    +0.135 A 
ATOM     30  C   UNL     1      -3.837   4.039  24.311  0.00  0.00    +0.201 A 
ATOM     34  C   UNL     1      -3.203   5.260  26.404  0.00  0.00    +0.150 C 
ENDBRANCH   1  24
ENDBRANCH   9   1
ENDBRANCH  15   9
TORSDOF 9
ENDMDL
MODEL 7
REMARK VINA RESULT:      10.1      2.531      3.713
REMARK  Name = 44716832
REMARK  11 active torsions:
REMARK  status: ('A' for Active; 'I' for Inactive)
REMARK    1  A    between atoms: S_1  and  N_9
REMARK    2  A    between atoms: S_1  and  C_24
REMARK    3  A    between atoms: N_9  and  C_15
REMARK    4  A    between atoms: N_10  and  C_22
REMARK    5  A    between atoms: N_13  and  C_34
REMARK    6  A    between atoms: C_17  and  C_20
REMARK    7  A    between atoms: C_21  and  C_23
REMARK    8  A    between atoms: C_22  and  C_25
REMARK    9  A    between atoms: C_22  and  C_26
REMARK   10  A    between atoms: C_25  and  C_29
REMARK   11  A    between atoms: C_31  and  C_35
REMARK                            x       y       z     vdW  Elec       q    Type
REMARK                         _______ _______ _______ _____ _____    ______ ____
ROOT
ATOM      4  O   UNL     1      -0.501  -0.209  28.299  0.00  0.00    -0.268 OA
ATOM      8  N   UNL     1      -0.376   1.065  26.335  0.00  0.00    -0.285 N 
ATOM     15  C   UNL     1      -0.290   1.159  23.426  0.00  0.00    +0.080 C 
ATOM     16  C   UNL     1       0.467   2.193  24.264  0.00  0.00    +0.052 C 
ATOM     17  C   UNL     1      -0.101   2.354  25.674  0.00  0.00    +0.164 C 
ATOM     18  C   UNL     1      -0.409  -0.161  24.182  0.00  0.00    +0.039 C 
ATOM     19  C   UNL     1      -1.073   0.051  25.536  0.00  0.00    +0.110 C 
ATOM     21  C   UNL     1      -0.157   0.807  27.696  0.00  0.00    +0.266 C 
ENDROOT
BRANCH  21  23
ATOM      2  S   UNL     1       1.174   3.486  30.295  0.00  0.00    -0.080 S 
ATOM     11  N   UNL     1       1.761   2.319  28.065  0.00  0.00    -0.240 NA
ATOM     23  C   UNL     1       0.546   1.821  28.489  0.00  0.00    +0.133 A 
ATOM     28  C   UNL     1       0.066   2.332  29.677  0.00  0.00    +0.080 A 
ATOM     31  C   UNL     1       2.186   3.205  28.937  0.00  0.00    +0.076 A 
ATOM     35  C   UNL     1       3.456   3.954  28.820  0.00  0.00    +0.073 C 
ENDBRANCH  21  23
BRANCH  17  20
ATOM      3  O   UNL     1      -1.409   4.342  25.886  0.00  0.00    -0.274 OA
ATOM     10  N   UNL     1      -2.488   2.323  25.461  0.00  0.00    -0.302 N 
ATOM     20  C   UNL     1      -1.385   3.131  25.682  0.00  0.00    +0.234 C 
ATOM     40  H   UNL     1      -2.347   1.349  25.209  0.00  0.00    +0.150 HD
BRANCH  10  22
ATOM     22  C   UNL     1      -3.843   2.824  25.443  0.00  0.00    +0.163 C 
BRANCH  22  26
ATOM      7  O   UNL     1      -4.016   2.968  23.023  0.00  0.00    -0.274 OA
ATOM     14  N   UNL     1      -4.298   4.882  24.262  0.00  0.00    -0.328 N 
ATOM     26  C   UNL     1      -4.040   3.536  24.113  0.00  0.00    +0.231 C 
ATOM     41  H   UNL     1      -4.337   5.334  25.170  0.00  0.00    +0.145 HD
ATOM     42  H   UNL     1      -4.463   5.473  23.453  0.00  0.00    +0.145 HD
ENDBRANCH  22  26
BRANCH  22  25
ATOM     25  C   UNL     1      -4.876   1.703  25.607  0.00  0.00    +0.067 C 
BRANCH  25  29
ATOM     29  C   UNL     1      -4.356   0.359  25.162  0.00  0.00    -0.045 A 
ATOM     32  C   UNL     1      -4.286   0.054  23.802  0.00  0.00    +0.004 A 
ATOM     33  C   UNL     1      -3.946  -0.579  26.109  0.00  0.00    +0.004 A 
ATOM     36  C   UNL     1      -3.806  -1.190  23.390  0.00  0.00    +0.000 A 
ATOM     37  C   UNL     1      -3.466  -1.822  25.697  0.00  0.00    +0.000 A 
ATOM     38  C   UNL     1      -3.396  -2.127  24.337  0.00  0.00    +0.000 A 
ENDBRANCH  25  29
ENDBRANCH  22  25
ENDBRANCH  10  22
ENDBRANCH  17  20
BRANCH  15   9
ATOM      9  N   UNL     1       0.434   0.930  22.152  0.00  0.00    -0.185 NA
ATOM     39  H   UNL     1       0.079   1.445  21.337  0.00  0.00    +0.148 HD
BRANCH   9   1
ATOM      1  S   UNL     1       1.255  -0.535  21.900  0.00  0.00    +0.077 S 
ATOM      5  O   UNL     1       1.406  -0.765  20.475  0.00  0.00    -0.152 OA
ATOM      6  O   UNL     1       0.663  -1.553  22.745  0.00  0.00    -0.152 OA
BRANCH   1  24
ATOM     12  N   UNL     1       3.492   1.016  22.330  0.00  0.00    -0.216 NA
ATOM     13  N   UNL     1       4.752  -0.286  23.615  0.00  0.00    -0.338 N 
ATOM     24  C   UNL     1       2.853  -0.176  22.565  0.00  0.00    +0.211 A 
ATOM     27  C   UNL     1       3.615  -1.000  23.360  0.00  0.00    +0.135 A 
ATOM     30  C   UNL     1       4.633   0.917  22.977  0.00  0.00    +0.201 A 
ATOM     34  C   UNL     1       5.873  -0.721  24.411  0.00  0.00    +0.150 C 
ENDBRANCH   1  24
ENDBRANCH   9   1
ENDBRANCH  15   9
TORSDOF 9
ENDMDL
MODEL 8
REMARK VINA RESULT:      10.2      2.694      7.601
REMARK  Name = 44716832
REMARK  11 active torsions:
REMARK  status: ('A' for Active; 'I' for Inactive)
REMARK    1  A    between atoms: S_1  and  N_9
REMARK    2  A    between atoms: S_1  and  C_24
REMARK    3  A    between atoms: N_9  and  C_15
REMARK    4  A    between atoms: N_10  and  C_22
REMARK    5  A    between atoms: N_13  and  C_34
REMARK    6  A    between atoms: C_17  and  C_20
REMARK    7  A    between atoms: C_21  and  C_23
REMARK    8  A    between atoms: C_22  and  C_25
REMARK    9  A    between atoms: C_22  and  C_26
REMARK   10  A    between atoms: C_25  and  C_29
REMARK   11  A    between atoms: C_31  and  C_35
REMARK                            x       y       z     vdW  Elec       q    Type
REMARK                         _______ _______ _______ _____ _____    ______ ____
ROOT
ATOM      4  O   UNL     1       0.638  -1.767  25.351  0.00  0.00    -0.268 OA
ATOM      8  N   UNL     1      -1.068  -0.291  24.714  0.00  0.00    -0.285 N 
ATOM     15  C   UNL     1      -3.862   0.511  24.882  0.00  0.00    +0.080 C 
ATOM     16  C   UNL     1      -3.068   0.712  23.588  0.00  0.00    +0.052 C 
ATOM     17  C   UNL     1      -1.557   0.770  23.815  0.00  0.00    +0.164 C 
ATOM     18  C   UNL     1      -3.323  -0.684  25.662  0.00  0.00    +0.039 C 
ATOM     19  C   UNL     1      -1.835  -0.518  25.943  0.00  0.00    +0.110 C 
ATOM     21  C   UNL     1       0.144  -0.977  24.548  0.00  0.00    +0.266 C 
ENDROOT
BRANCH  21  23
ATOM      2  S   UNL     1       1.609  -0.645  20.881  0.00  0.00    -0.080 S 
ATOM     11  N   UNL     1       2.170  -0.205  23.365  0.00  0.00    -0.240 NA
ATOM     23  C   UNL     1       0.905  -0.752  23.314  0.00  0.00    +0.133 A 
ATOM     28  C   UNL     1       0.429  -1.056  22.056  0.00  0.00    +0.080 A 
ATOM     31  C   UNL     1       2.639  -0.102  22.142  0.00  0.00    +0.076 A 
ATOM     35  C   UNL     1       3.971   0.441  21.798  0.00  0.00    +0.073 C 
ENDBRANCH  21  23
BRANCH  17  20
ATOM      3  O   UNL     1      -0.784   3.028  23.708  0.00  0.00    -0.274 OA
ATOM     10  N   UNL     1      -1.138   2.056  25.793  0.00  0.00    -0.302 N 
ATOM     20  C   UNL     1      -1.124   2.079  24.409  0.00  0.00    +0.234 C 
ATOM     40  H   UNL     1      -1.528   1.250  26.273  0.00  0.00    +0.150 HD
BRANCH  10  22
ATOM     22  C   UNL     1      -0.744   3.183  26.606  0.00  0.00    +0.163 C 
BRANCH  22  26
ATOM      7  O   UNL     1      -2.811   4.430  26.879  0.00  0.00    -0.274 OA
ATOM     14  N   UNL     1      -1.243   5.213  25.394  0.00  0.00    -0.328 N 
ATOM     26  C   UNL     1      -1.725   4.310  26.318  0.00  0.00    +0.231 C 
ATOM     41  H   UNL     1      -0.334   5.113  24.955  0.00  0.00    +0.145 HD
ATOM     42  H   UNL     1      -1.793   6.021  25.121  0.00  0.00    +0.145 HD
ENDBRANCH  22  26
BRANCH  22  25
ATOM     25  C   UNL     1      -0.742   2.846  28.102  0.00  0.00    +0.067 C 
BRANCH  25  29
ATOM     29  C   UNL     1       0.649   2.667  28.658  0.00  0.00    -0.045 A 
ATOM     32  C   UNL     1       0.824   2.161  29.947  0.00  0.00    +0.004 A 
ATOM     33  C   UNL     1       1.760   3.006  27.886  0.00  0.00    +0.004 A 
ATOM     36  C   UNL     1       2.110   1.996  30.463  0.00  0.00    +0.000 A 
ATOM     37  C   UNL     1       3.045   2.840  28.401  0.00  0.00    +0.000 A 
ATOM     38  C   UNL     1       3.220   2.335  29.690  0.00  0.00    +0.000 A 
ENDBRANCH  25  29
ENDBRANCH  22  25
ENDBRANCH  10  22
ENDBRANCH  17  20
BRANCH  15   9
ATOM      9  N   UNL     1      -5.289   0.279  24.554  0.00  0.00    -0.185 NA
ATOM     39  H   UNL     1      -5.470  -0.248  23.690  0.00  0.00    +0.148 HD
BRANCH   9   1
ATOM      1  S   UNL     1      -6.471   1.363  25.113  0.00  0.00    +0.077 S 
ATOM      5  O   UNL     1      -6.676   1.163  26.535  0.00  0.00    -0.152 OA
ATOM      6  O   UNL     1      -7.599   1.333  24.202  0.00  0.00    -0.152 OA
BRANCH   1  24
ATOM     12  N   UNL     1      -5.905   3.989  25.723  0.00  0.00    -0.216 NA
ATOM     13  N   UNL     1      -4.430   4.549  24.159  0.00  0.00    -0.338 N 
ATOM     24  C   UNL     1      -5.669   2.922  24.892  0.00  0.00    +0.211 A 
ATOM     27  C   UNL     1      -4.759   3.246  23.914  0.00  0.00    +0.135 A 
ATOM     30  C   UNL     1      -5.142   4.953  25.254  0.00  0.00    +0.201 A 
ATOM     34  C   UNL     1      -3.503   5.353  23.402  0.00  0.00    +0.150 C 
ENDBRANCH   1  24
ENDBRANCH   9   1
ENDBRANCH  15   9
TORSDOF 9
ENDMDL
