MODEL 1
REMARK VINA RESULT:      -4.3      0.000      0.000
REMARK  Name = 45784328
REMARK  5 active torsions:
REMARK  status: ('A' for Active; 'I' for Inactive)
REMARK    1  A    between atoms: N_1  and  C_9
REMARK    2  A    between atoms: C_5  and  C_10
REMARK    3  A    between atoms: C_9  and  C_11
REMARK    4  A    between atoms: C_9  and  C_12
REMARK    5  A    between atoms: C_17  and  C_19
REMARK                            x       y       z     vdW  Elec       q    Type
REMARK                         _______ _______ _______ _____ _____    ______ ____
ROOT
ATOM      2  N   UNL     1      -5.864 -10.434  14.790  0.00  0.00    -0.342 N 
ATOM      3  N   UNL     1      -8.032 -10.061  14.466  0.00  0.00    -0.232 NA
ATOM     10  C   UNL     1      -6.865 -10.219  13.883  0.00  0.00    +0.113 A 
ATOM     13  C   UNL     1      -6.423 -10.414  16.042  0.00  0.00    +0.067 A 
ATOM     14  C   UNL     1      -7.776 -10.181  15.813  0.00  0.00    +0.089 A 
ATOM     15  C   UNL     1      -5.878 -10.577  17.316  0.00  0.00    +0.046 A 
ATOM     16  C   UNL     1      -8.652 -10.101  16.909  0.00  0.00    +0.031 A 
ATOM     17  C   UNL     1      -6.764 -10.494  18.395  0.00  0.00    +0.054 A 
ATOM     18  C   UNL     1      -8.127 -10.261  18.198  0.00  0.00    +0.021 A 
ATOM     20  H   UNL     1      -4.886 -10.581  14.580  0.00  0.00    +0.167 HD
ENDROOT
BRANCH  10   5
ATOM      1  N   UNL     1      -4.844 -10.032  10.832  0.00  0.00    -0.299 NA
ATOM      5  C   UNL     1      -6.583 -10.180  12.399  0.00  0.00    +0.070 C 
ATOM      6  C   UNL     1      -5.219 -10.781  12.033  0.00  0.00    +0.096 C 
ATOM      7  C   UNL     1      -6.565  -8.771  11.781  0.00  0.00    +0.028 C 
ATOM      8  C   UNL     1      -5.194  -8.643  11.130  0.00  0.00    +0.085 C 
BRANCH   1   9
ATOM      9  C   UNL     1      -3.436 -10.188  10.497  0.00  0.00    +0.050 C 
ATOM     11  C   UNL     1      -2.880  -8.853  10.009  0.00  0.00    +0.024 C 
ATOM     12  C   UNL     1      -2.657 -10.698  11.706  0.00  0.00    +0.024 C 
ENDBRANCH   1   9
ENDBRANCH  10   5
BRANCH  17  19
ATOM      4  N   UNL     1      -5.856 -10.781  20.805  0.00  0.00    -0.191 NA
ATOM     19  C   UNL     1      -6.263 -10.652  19.725  0.00  0.00    +0.099 C 
ENDBRANCH  17  19
TORSDOF 3
ENDMDL
MODEL 2
REMARK VINA RESULT:      -3.5      1.708      2.227
REMARK  Name = 45784328
REMARK  5 active torsions:
REMARK  status: ('A' for Active; 'I' for Inactive)
REMARK    1  A    between atoms: N_1  and  C_9
REMARK    2  A    between atoms: C_5  and  C_10
REMARK    3  A    between atoms: C_9  and  C_11
REMARK    4  A    between atoms: C_9  and  C_12
REMARK    5  A    between atoms: C_17  and  C_19
REMARK                            x       y       z     vdW  Elec       q    Type
REMARK                         _______ _______ _______ _____ _____    ______ ____
ROOT
ATOM      2  N   UNL     1      -5.990 -10.663  14.086  0.00  0.00    -0.342 N 
ATOM      3  N   UNL     1      -7.396  -9.680  12.673  0.00  0.00    -0.232 NA
ATOM     10  C   UNL     1      -6.218 -10.247  12.804  0.00  0.00    +0.113 A 
ATOM     13  C   UNL     1      -7.094 -10.343  14.833  0.00  0.00    +0.067 A 
ATOM     14  C   UNL     1      -7.958  -9.731  13.929  0.00  0.00    +0.089 A 
ATOM     15  C   UNL     1      -7.404 -10.531  16.181  0.00  0.00    +0.046 A 
ATOM     16  C   UNL     1      -9.208  -9.273  14.377  0.00  0.00    +0.031 A 
ATOM     17  C   UNL     1      -8.652 -10.069  16.610  0.00  0.00    +0.054 A 
ATOM     18  C   UNL     1      -9.540  -9.451  15.727  0.00  0.00    +0.021 A 
ATOM     20  H   UNL     1      -5.157 -11.124  14.427  0.00  0.00    +0.167 HD
ENDROOT
BRANCH  10   5
ATOM      1  N   UNL     1      -2.900 -10.230  11.251  0.00  0.00    -0.299 NA
ATOM      5  C   UNL     1      -5.188 -10.451  11.718  0.00  0.00    +0.070 C 
ATOM      6  C   UNL     1      -3.794 -10.781  12.270  0.00  0.00    +0.096 C 
ATOM      7  C   UNL     1      -4.965  -9.235  10.802  0.00  0.00    +0.028 C 
ATOM      8  C   UNL     1      -3.476  -8.929  10.907  0.00  0.00    +0.085 C 
BRANCH   1   9
ATOM      9  C   UNL     1      -1.525 -10.121  11.717  0.00  0.00    +0.050 C 
ATOM     11  C   UNL     1      -0.877  -8.886  11.098  0.00  0.00    +0.024 C 
ATOM     12  C   UNL     1      -1.487 -10.055  13.241  0.00  0.00    +0.024 C 
ENDBRANCH   1   9
ENDBRANCH  10   5
BRANCH  17  19
ATOM      4  N   UNL     1      -9.327 -10.367  19.094  0.00  0.00    -0.191 NA
ATOM     19  C   UNL     1      -9.024 -10.233  17.981  0.00  0.00    +0.099 C 
ENDBRANCH  17  19
TORSDOF 3
ENDMDL
MODEL 3
REMARK VINA RESULT:      -3.2      2.031      2.772
REMARK  Name = 45784328
REMARK  5 active torsions:
REMARK  status: ('A' for Active; 'I' for Inactive)
REMARK    1  A    between atoms: N_1  and  C_9
REMARK    2  A    between atoms: C_5  and  C_10
REMARK    3  A    between atoms: C_9  and  C_11
REMARK    4  A    between atoms: C_9  and  C_12
REMARK    5  A    between atoms: C_17  and  C_19
REMARK                            x       y       z     vdW  Elec       q    Type
REMARK                         _______ _______ _______ _____ _____    ______ ____
ROOT
ATOM      2  N   UNL     1      -3.628 -10.688  14.903  0.00  0.00    -0.342 N 
ATOM      3  N   UNL     1      -5.348 -10.378  13.529  0.00  0.00    -0.232 NA
ATOM     10  C   UNL     1      -4.052 -10.580  13.607  0.00  0.00    +0.113 A 
ATOM     13  C   UNL     1      -4.724 -10.547  15.715  0.00  0.00    +0.067 A 
ATOM     14  C   UNL     1      -5.785 -10.355  14.834  0.00  0.00    +0.089 A 
ATOM     15  C   UNL     1      -4.875 -10.571  17.102  0.00  0.00    +0.046 A 
ATOM     16  C   UNL     1      -7.079 -10.175  15.349  0.00  0.00    +0.031 A 
ATOM     17  C   UNL     1      -6.170 -10.388  17.598  0.00  0.00    +0.054 A 
ATOM     18  C   UNL     1      -7.255 -10.194  16.739  0.00  0.00    +0.021 A 
ATOM     20  H   UNL     1      -2.678 -10.843  15.212  0.00  0.00    +0.167 HD
ENDROOT
BRANCH  10   5
ATOM      1  N   UNL     1      -1.126  -9.752  11.563  0.00  0.00    -0.299 NA
ATOM      5  C   UNL     1      -3.083 -10.690  12.453  0.00  0.00    +0.070 C 
ATOM      6  C   UNL     1      -1.656 -10.265  12.828  0.00  0.00    +0.096 C 
ATOM      7  C   UNL     1      -3.436  -9.829  11.228  0.00  0.00    +0.028 C 
ATOM      8  C   UNL     1      -2.212  -8.952  10.996  0.00  0.00    +0.085 C 
BRANCH   1   9
ATOM      9  C   UNL     1       0.095  -8.979  11.745  0.00  0.00    +0.050 C 
ATOM     11  C   UNL     1       0.727  -8.704  10.383  0.00  0.00    +0.024 C 
ATOM     12  C   UNL     1      -0.208  -7.678  12.482  0.00  0.00    +0.024 C 
ENDBRANCH   1   9
ENDBRANCH  10   5
BRANCH  17  19
ATOM      4  N   UNL     1      -6.561 -10.414  20.159  0.00  0.00    -0.191 NA
ATOM     19  C   UNL     1      -6.386 -10.402  19.011  0.00  0.00    +0.099 C 
ENDBRANCH  17  19
TORSDOF 3
ENDMDL
MODEL 4
REMARK VINA RESULT:      -3.0     14.656     16.528
REMARK  Name = 45784328
REMARK  5 active torsions:
REMARK  status: ('A' for Active; 'I' for Inactive)
REMARK    1  A    between atoms: N_1  and  C_9
REMARK    2  A    between atoms: C_5  and  C_10
REMARK    3  A    between atoms: C_9  and  C_11
REMARK    4  A    between atoms: C_9  and  C_12
REMARK    5  A    between atoms: C_17  and  C_19
REMARK                            x       y       z     vdW  Elec       q    Type
REMARK                         _______ _______ _______ _____ _____    ______ ____
ROOT
ATOM      2  N   UNL     1      -1.612   0.642  24.033  0.00  0.00    -0.342 N 
ATOM      3  N   UNL     1       0.060   2.017  24.539  0.00  0.00    -0.232 NA
ATOM     10  C   UNL     1      -0.260   0.841  24.048  0.00  0.00    +0.113 A 
ATOM     13  C   UNL     1      -2.206   1.766  24.549  0.00  0.00    +0.067 A 
ATOM     14  C   UNL     1      -1.141   2.609  24.856  0.00  0.00    +0.089 A 
ATOM     15  C   UNL     1      -3.541   2.108  24.766  0.00  0.00    +0.046 A 
ATOM     16  C   UNL     1      -1.406   3.871  25.414  0.00  0.00    +0.031 A 
ATOM     17  C   UNL     1      -3.786   3.367  25.322  0.00  0.00    +0.054 A 
ATOM     18  C   UNL     1      -2.739   4.235  25.641  0.00  0.00    +0.021 A 
ATOM     20  H   UNL     1      -2.094  -0.183  23.703  0.00  0.00    +0.167 HD
ENDROOT
BRANCH  10   5
ATOM      1  N   UNL     1       2.886  -0.541  22.774  0.00  0.00    -0.299 NA
ATOM      5  C   UNL     1       0.694  -0.217  23.541  0.00  0.00    +0.070 C 
ATOM      6  C   UNL     1       2.159   0.088  23.879  0.00  0.00    +0.096 C 
ATOM      7  C   UNL     1       0.680  -0.424  22.017  0.00  0.00    +0.028 C 
ATOM      8  C   UNL     1       2.121  -0.198  21.575  0.00  0.00    +0.085 C 
BRANCH   1   9
ATOM      9  C   UNL     1       4.270  -0.096  22.694  0.00  0.00    +0.050 C 
ATOM     11  C   UNL     1       4.310   1.430  22.663  0.00  0.00    +0.024 C 
ATOM     12  C   UNL     1       5.071  -0.642  23.873  0.00  0.00    +0.024 C 
ENDBRANCH   1   9
ENDBRANCH  10   5
BRANCH  17  19
ATOM      4  N   UNL     1      -6.231   4.101  25.767  0.00  0.00    -0.191 NA
ATOM     19  C   UNL     1      -5.135   3.772  25.568  0.00  0.00    +0.099 C 
ENDBRANCH  17  19
TORSDOF 3
ENDMDL
MODEL 5
REMARK VINA RESULT:      -1.9     14.853     17.206
REMARK  Name = 45784328
REMARK  5 active torsions:
REMARK  status: ('A' for Active; 'I' for Inactive)
REMARK    1  A    between atoms: N_1  and  C_9
REMARK    2  A    between atoms: C_5  and  C_10
REMARK    3  A    between atoms: C_9  and  C_11
REMARK    4  A    between atoms: C_9  and  C_12
REMARK    5  A    between atoms: C_17  and  C_19
REMARK                            x       y       z     vdW  Elec       q    Type
REMARK                         _______ _______ _______ _____ _____    ______ ____
ROOT
ATOM      2  N   UNL     1      -0.030   2.525  24.792  0.00  0.00    -0.342 N 
ATOM      3  N   UNL     1      -1.467   1.042  23.968  0.00  0.00    -0.232 NA
ATOM     10  C   UNL     1      -1.335   2.127  24.698  0.00  0.00    +0.113 A 
ATOM     13  C   UNL     1       0.731   1.638  24.074  0.00  0.00    +0.067 A 
ATOM     14  C   UNL     1      -0.189   0.723  23.569  0.00  0.00    +0.089 A 
ATOM     15  C   UNL     1       2.102   1.561  23.829  0.00  0.00    +0.046 A 
ATOM     16  C   UNL     1       0.269  -0.339  22.771  0.00  0.00    +0.031 A 
ATOM     17  C   UNL     1       2.541   0.498  23.034  0.00  0.00    +0.054 A 
ATOM     18  C   UNL     1       1.643  -0.437  22.513  0.00  0.00    +0.021 A 
ATOM     20  H   UNL     1       0.316   3.328  25.299  0.00  0.00    +0.167 HD
ENDROOT
BRANCH  10   5
ATOM      1  N   UNL     1      -4.773   3.013  25.604  0.00  0.00    -0.299 NA
ATOM      5  C   UNL     1      -2.441   2.895  25.383  0.00  0.00    +0.070 C 
ATOM      6  C   UNL     1      -3.682   2.037  25.661  0.00  0.00    +0.096 C 
ATOM      7  C   UNL     1      -2.972   4.104  24.595  0.00  0.00    +0.028 C 
ATOM      8  C   UNL     1      -4.467   3.853  24.446  0.00  0.00    +0.085 C 
BRANCH   1   9
ATOM      9  C   UNL     1      -6.080   2.380  25.501  0.00  0.00    +0.050 C 
ATOM     11  C   UNL     1      -6.020   1.258  24.468  0.00  0.00    +0.024 C 
ATOM     12  C   UNL     1      -6.521   1.851  26.862  0.00  0.00    +0.024 C 
ENDBRANCH   1   9
ENDBRANCH  10   5
BRANCH  17  19
ATOM      4  N   UNL     1       5.068   0.260  22.517  0.00  0.00    -0.191 NA
ATOM     19  C   UNL     1       3.936   0.366  22.749  0.00  0.00    +0.099 C 
ENDBRANCH  17  19
TORSDOF 3
ENDMDL
MODEL 6
REMARK VINA RESULT:      -1.8     14.095     15.698
REMARK  Name = 45784328
REMARK  5 active torsions:
REMARK  status: ('A' for Active; 'I' for Inactive)
REMARK    1  A    between atoms: N_1  and  C_9
REMARK    2  A    between atoms: C_5  and  C_10
REMARK    3  A    between atoms: C_9  and  C_11
REMARK    4  A    between atoms: C_9  and  C_12
REMARK    5  A    between atoms: C_17  and  C_19
REMARK                            x       y       z     vdW  Elec       q    Type
REMARK                         _______ _______ _______ _____ _____    ______ ____
ROOT
ATOM      2  N   UNL     1      -1.081   1.028  23.880  0.00  0.00    -0.342 N 
ATOM      3  N   UNL     1      -1.960  -0.988  24.206  0.00  0.00    -0.232 NA
ATOM     10  C   UNL     1      -0.897  -0.325  23.809  0.00  0.00    +0.113 A 
ATOM     13  C   UNL     1      -2.347   1.253  24.356  0.00  0.00    +0.067 A 
ATOM     14  C   UNL     1      -2.875  -0.020  24.552  0.00  0.00    +0.089 A 
ATOM     15  C   UNL     1      -3.055   2.425  24.624  0.00  0.00    +0.046 A 
ATOM     16  C   UNL     1      -4.184  -0.151  25.044  0.00  0.00    +0.031 A 
ATOM     17  C   UNL     1      -4.357   2.277  25.112  0.00  0.00    +0.054 A 
ATOM     18  C   UNL     1      -4.914   1.013  25.320  0.00  0.00    +0.021 A 
ATOM     20  H   UNL     1      -0.407   1.738  23.628  0.00  0.00    +0.167 HD
ENDROOT
BRANCH  10   5
ATOM      1  N   UNL     1       2.690  -0.446  23.068  0.00  0.00    -0.299 NA
ATOM      5  C   UNL     1       0.405  -0.915  23.319  0.00  0.00    +0.070 C 
ATOM      6  C   UNL     1       1.628  -0.375  24.074  0.00  0.00    +0.096 C 
ATOM      7  C   UNL     1       0.717  -0.652  21.836  0.00  0.00    +0.028 C 
ATOM      8  C   UNL     1       2.073   0.042  21.834  0.00  0.00    +0.085 C 
BRANCH   1   9
ATOM      9  C   UNL     1       3.864   0.328  23.444  0.00  0.00    +0.050 C 
ATOM     11  C   UNL     1       5.013  -0.621  23.770  0.00  0.00    +0.024 C 
ATOM     12  C   UNL     1       4.246   1.288  22.321  0.00  0.00    +0.024 C 
ENDBRANCH   1   9
ENDBRANCH  10   5
BRANCH  17  19
ATOM      4  N   UNL     1      -5.760   4.390  25.643  0.00  0.00    -0.191 NA
ATOM     19  C   UNL     1      -5.131   3.443  25.405  0.00  0.00    +0.099 C 
ENDBRANCH  17  19
TORSDOF 3
ENDMDL
MODEL 7
REMARK VINA RESULT:      -1.6     14.810     15.809
REMARK  Name = 45784328
REMARK  5 active torsions:
REMARK  status: ('A' for Active; 'I' for Inactive)
REMARK    1  A    between atoms: N_1  and  C_9
REMARK    2  A    between atoms: C_5  and  C_10
REMARK    3  A    between atoms: C_9  and  C_11
REMARK    4  A    between atoms: C_9  and  C_12
REMARK    5  A    between atoms: C_17  and  C_19
REMARK                            x       y       z     vdW  Elec       q    Type
REMARK                         _______ _______ _______ _____ _____    ______ ____
ROOT
ATOM      2  N   UNL     1      -0.443   1.099  23.199  0.00  0.00    -0.342 N 
ATOM      3  N   UNL     1       0.071  -0.907  24.007  0.00  0.00    -0.232 NA
ATOM     10  C   UNL     1       0.484   0.096  23.266  0.00  0.00    +0.113 A 
ATOM     13  C   UNL     1      -1.527   0.717  23.947  0.00  0.00    +0.067 A 
ATOM     14  C   UNL     1      -1.181  -0.538  24.441  0.00  0.00    +0.089 A 
ATOM     15  C   UNL     1      -2.742   1.343  24.227  0.00  0.00    +0.046 A 
ATOM     16  C   UNL     1      -2.090  -1.224  25.264  0.00  0.00    +0.031 A 
ATOM     17  C   UNL     1      -3.635   0.646  25.047  0.00  0.00    +0.054 A 
ATOM     18  C   UNL     1      -3.317  -0.615  25.558  0.00  0.00    +0.021 A 
ATOM     20  H   UNL     1      -0.351   1.967  22.690  0.00  0.00    +0.167 HD
ENDROOT
BRANCH  10   5
ATOM      1  N   UNL     1       4.115  -0.112  22.820  0.00  0.00    -0.299 NA
ATOM      5  C   UNL     1       1.808   0.201  22.544  0.00  0.00    +0.070 C 
ATOM      6  C   UNL     1       2.847  -0.808  23.050  0.00  0.00    +0.096 C 
ATOM      7  C   UNL     1       2.502   1.569  22.663  0.00  0.00    +0.028 C 
ATOM      8  C   UNL     1       3.874   1.265  23.252  0.00  0.00    +0.085 C 
BRANCH   1   9
ATOM      9  C   UNL     1       5.225  -0.729  23.533  0.00  0.00    +0.050 C 
ATOM     11  C   UNL     1       5.674   0.190  24.665  0.00  0.00    +0.024 C 
ATOM     12  C   UNL     1       4.815  -2.098  24.067  0.00  0.00    +0.024 C 
ENDBRANCH   1   9
ENDBRANCH  10   5
BRANCH  17  19
ATOM      4  N   UNL     1      -5.922   1.716  25.629  0.00  0.00    -0.191 NA
ATOM     19  C   UNL     1      -4.897   1.237  25.368  0.00  0.00    +0.099 C 
ENDBRANCH  17  19
TORSDOF 3
ENDMDL
