MODEL 1
REMARK VINA RESULT:       5.7      0.000      0.000
REMARK  Name = 45783937
REMARK  10 active torsions:
REMARK  status: ('A' for Active; 'I' for Inactive)
REMARK    1  A    between atoms: N_2  and  C_13
REMARK    2  A    between atoms: C_8  and  C_12
REMARK    3  A    between atoms: C_9  and  C_13
REMARK    4  A    between atoms: C_11  and  C_16
REMARK    5  A    between atoms: C_12  and  C_17
REMARK    6  A    between atoms: C_12  and  C_18
REMARK    7  A    between atoms: C_15  and  C_21
REMARK    8  A    between atoms: C_16  and  C_24
REMARK    9  A    between atoms: C_26  and  C_28
REMARK   10  A    between atoms: C_35  and  C_36
REMARK                            x       y       z     vdW  Elec       q    Type
REMARK                         _______ _______ _______ _____ _____    ______ ____
ROOT
ATOM      8  C   UNL     1      -2.074   4.319  23.809  0.00  0.00    +0.000 C 
ATOM      9  C   UNL     1      -1.385   3.248  24.687  0.00  0.00    +0.029 C 
ATOM     10  C   UNL     1      -3.594   4.293  24.021  0.00  0.00    +0.012 C 
ATOM     11  C   UNL     1      -4.009   4.491  25.495  0.00  0.00    +0.024 C 
ATOM     14  C   UNL     1      -1.933   3.209  26.090  0.00  0.00    -0.023 C 
ATOM     15  C   UNL     1      -3.095   3.768  26.473  0.00  0.00    -0.073 C 
ATOM     21  C   UNL     1      -3.507   3.746  27.921  0.00  0.00    +0.039 C 
ENDROOT
BRANCH   8  12
ATOM     12  C   UNL     1      -1.500   5.717  24.079  0.00  0.00    -0.013 C 
ATOM     17  C   UNL     1      -2.386   6.475  25.064  0.00  0.00    +0.007 C 
ATOM     18  C   UNL     1      -0.072   5.613  24.604  0.00  0.00    +0.007 C 
ENDBRANCH   8  12
BRANCH   9  13
ATOM     13  C   UNL     1      -1.494   1.852  24.064  0.00  0.00    +0.092 C 
BRANCH  13   2
ATOM      2  N   UNL     1      -0.217   1.445  23.481  0.00  0.00    -0.299 NA
ATOM      3  N   UNL     1       2.410   0.323  23.481  0.00  0.00    -0.312 N 
ATOM      6  N   UNL     1       4.638   0.518  22.677  0.00  0.00    -0.237 NA
ATOM      7  N   UNL     1       5.229  -1.940  23.892  0.00  0.00    -0.258 NA
ATOM     19  C   UNL     1      -0.028  -0.005  23.616  0.00  0.00    +0.103 C 
ATOM     20  C   UNL     1       0.894   2.155  24.126  0.00  0.00    +0.103 C 
ATOM     22  C   UNL     1       1.280  -0.453  22.959  0.00  0.00    +0.122 C 
ATOM     23  C   UNL     1       2.232   1.780  23.485  0.00  0.00    +0.122 C 
ATOM     25  C   UNL     1       3.711  -0.180  23.363  0.00  0.00    +0.140 A 
ATOM     27  C   UNL     1       4.001  -1.387  23.960  0.00  0.00    +0.154 A 
ATOM     29  C   UNL     1       5.865  -0.035  22.610  0.00  0.00    +0.132 A 
ATOM     30  C   UNL     1       6.156  -1.241  23.208  0.00  0.00    +0.130 A 
ENDBRANCH  13   2
ENDBRANCH   9  13
BRANCH  11  16
ATOM     16  C   UNL     1      -5.482   4.092  25.648  0.00  0.00    +0.105 C 
BRANCH  16  24
ATOM      1  O   UNL     1      -4.596   1.850  25.271  0.00  0.00    -0.420 OA
ATOM      4  N   UNL     1      -6.811   2.015  25.008  0.00  0.00    -0.112 NA
ATOM      5  N   UNL     1      -6.449   0.703  24.767  0.00  0.00    -0.107 NA
ATOM     24  C   UNL     1      -5.698   2.648  25.299  0.00  0.00    +0.218 A 
ATOM     26  C   UNL     1      -5.147   0.653  24.931  0.00  0.00    +0.248 A 
BRANCH  26  28
ATOM     28  C   UNL     1      -4.235  -0.447  24.811  0.00  0.00    +0.038 A 
ATOM     31  C   UNL     1      -4.451  -1.430  23.844  0.00  0.00    +0.013 A 
ATOM     32  C   UNL     1      -3.133  -0.536  25.660  0.00  0.00    +0.013 A 
ATOM     33  C   UNL     1      -3.565  -2.500  23.726  0.00  0.00    +0.004 A 
ATOM     34  C   UNL     1      -2.246  -1.605  25.543  0.00  0.00    +0.004 A 
ATOM     35  C   UNL     1      -2.462  -2.588  24.576  0.00  0.00    -0.050 A 
ATOM     36  C   UNL     1      -1.514  -3.732  24.451  0.00  0.00    +0.044 C 
ENDBRANCH  26  28
ENDBRANCH  16  24
ENDBRANCH  11  16
TORSDOF 6
ENDMDL
MODEL 2
REMARK VINA RESULT:       9.2      1.824      3.346
REMARK  Name = 45783937
REMARK  10 active torsions:
REMARK  status: ('A' for Active; 'I' for Inactive)
REMARK    1  A    between atoms: N_2  and  C_13
REMARK    2  A    between atoms: C_8  and  C_12
REMARK    3  A    between atoms: C_9  and  C_13
REMARK    4  A    between atoms: C_11  and  C_16
REMARK    5  A    between atoms: C_12  and  C_17
REMARK    6  A    between atoms: C_12  and  C_18
REMARK    7  A    between atoms: C_15  and  C_21
REMARK    8  A    between atoms: C_16  and  C_24
REMARK    9  A    between atoms: C_26  and  C_28
REMARK   10  A    between atoms: C_35  and  C_36
REMARK                            x       y       z     vdW  Elec       q    Type
REMARK                         _______ _______ _______ _____ _____    ______ ____
ROOT
ATOM      8  C   UNL     1      -4.105   2.862  24.453  0.00  0.00    +0.000 C 
ATOM      9  C   UNL     1      -3.382   3.396  23.194  0.00  0.00    +0.029 C 
ATOM     10  C   UNL     1      -3.087   2.438  25.519  0.00  0.00    +0.012 C 
ATOM     11  C   UNL     1      -2.119   3.571  25.925  0.00  0.00    +0.024 C 
ATOM     14  C   UNL     1      -2.240   4.321  23.531  0.00  0.00    -0.023 C 
ATOM     15  C   UNL     1      -1.672   4.422  24.746  0.00  0.00    -0.073 C 
ATOM     21  C   UNL     1      -0.594   5.442  24.996  0.00  0.00    +0.039 C 
ENDROOT
BRANCH   8  12
ATOM     12  C   UNL     1      -5.096   3.893  25.009  0.00  0.00    -0.013 C 
ATOM     17  C   UNL     1      -6.355   3.199  25.521  0.00  0.00    +0.007 C 
ATOM     18  C   UNL     1      -4.443   4.714  26.115  0.00  0.00    +0.007 C 
ENDBRANCH   8  12
BRANCH   9  13
ATOM     13  C   UNL     1      -2.863   2.256  22.312  0.00  0.00    +0.092 C 
BRANCH  13   2
ATOM      2  N   UNL     1      -1.684   1.634  22.911  0.00  0.00    -0.299 NA
ATOM      3  N   UNL     1       1.025   0.734  23.005  0.00  0.00    -0.312 N 
ATOM      6  N   UNL     1       2.508  -0.990  23.697  0.00  0.00    -0.237 NA
ATOM      7  N   UNL     1       4.658   0.607  22.867  0.00  0.00    -0.258 NA
ATOM     19  C   UNL     1      -0.582   2.600  23.002  0.00  0.00    +0.103 C 
ATOM     20  C   UNL     1      -1.262   0.468  22.127  0.00  0.00    +0.103 C 
ATOM     22  C   UNL     1       0.642   1.978  23.679  0.00  0.00    +0.122 C 
ATOM     23  C   UNL     1      -0.062  -0.226  22.777  0.00  0.00    +0.122 C 
ATOM     25  C   UNL     1       2.323   0.233  23.160  0.00  0.00    +0.140 A 
ATOM     27  C   UNL     1       3.379   1.017  22.753  0.00  0.00    +0.154 A 
ATOM     29  C   UNL     1       3.786  -1.399  23.811  0.00  0.00    +0.132 A 
ATOM     30  C   UNL     1       4.843  -0.615  23.403  0.00  0.00    +0.130 A 
ENDBRANCH  13   2
ENDBRANCH   9  13
BRANCH  11  16
ATOM     16  C   UNL     1      -0.946   2.960  26.700  0.00  0.00    +0.105 C 
BRANCH  16  24
ATOM      1  O   UNL     1      -1.857   0.901  25.760  0.00  0.00    -0.420 OA
ATOM      4  N   UNL     1      -0.150   0.587  27.170  0.00  0.00    -0.112 NA
ATOM      5  N   UNL     1      -0.563  -0.652  26.717  0.00  0.00    -0.107 NA
ATOM     24  C   UNL     1      -0.932   1.463  26.585  0.00  0.00    +0.218 A 
ATOM     26  C   UNL     1      -1.563  -0.420  25.898  0.00  0.00    +0.248 A 
BRANCH  26  28
ATOM     28  C   UNL     1      -2.374  -1.327  25.139  0.00  0.00    +0.038 A 
ATOM     31  C   UNL     1      -3.592  -0.898  24.611  0.00  0.00    +0.013 A 
ATOM     32  C   UNL     1      -1.947  -2.639  24.930  0.00  0.00    +0.013 A 
ATOM     33  C   UNL     1      -4.382  -1.780  23.873  0.00  0.00    +0.004 A 
ATOM     34  C   UNL     1      -2.736  -3.520  24.192  0.00  0.00    +0.004 A 
ATOM     35  C   UNL     1      -3.954  -3.091  23.663  0.00  0.00    -0.050 A 
ATOM     36  C   UNL     1      -4.798  -4.033  22.875  0.00  0.00    +0.044 C 
ENDBRANCH  26  28
ENDBRANCH  16  24
ENDBRANCH  11  16
TORSDOF 6
ENDMDL
MODEL 3
REMARK VINA RESULT:       9.3      2.550      4.985
REMARK  Name = 45783937
REMARK  10 active torsions:
REMARK  status: ('A' for Active; 'I' for Inactive)
REMARK    1  A    between atoms: N_2  and  C_13
REMARK    2  A    between atoms: C_8  and  C_12
REMARK    3  A    between atoms: C_9  and  C_13
REMARK    4  A    between atoms: C_11  and  C_16
REMARK    5  A    between atoms: C_12  and  C_17
REMARK    6  A    between atoms: C_12  and  C_18
REMARK    7  A    between atoms: C_15  and  C_21
REMARK    8  A    between atoms: C_16  and  C_24
REMARK    9  A    between atoms: C_26  and  C_28
REMARK   10  A    between atoms: C_35  and  C_36
REMARK                            x       y       z     vdW  Elec       q    Type
REMARK                         _______ _______ _______ _____ _____    ______ ____
ROOT
ATOM      8  C   UNL     1      -4.580   1.235  25.798  0.00  0.00    +0.000 C 
ATOM      9  C   UNL     1      -3.785   0.293  24.864  0.00  0.00    +0.029 C 
ATOM     10  C   UNL     1      -3.955   2.637  25.807  0.00  0.00    +0.012 C 
ATOM     11  C   UNL     1      -3.854   3.271  24.403  0.00  0.00    +0.024 C 
ATOM     14  C   UNL     1      -3.421   0.946  23.555  0.00  0.00    -0.023 C 
ATOM     15  C   UNL     1      -3.457   2.272  23.326  0.00  0.00    -0.073 C 
ATOM     21  C   UNL     1      -3.158   2.812  21.954  0.00  0.00    +0.039 C 
ENDROOT
BRANCH   8  12
ATOM     12  C   UNL     1      -6.063   1.291  25.406  0.00  0.00    -0.013 C 
ATOM     17  C   UNL     1      -6.943   1.276  26.652  0.00  0.00    +0.007 C 
ATOM     18  C   UNL     1      -6.343   2.529  24.560  0.00  0.00    +0.007 C 
ENDBRANCH   8  12
BRANCH   9  13
ATOM     13  C   UNL     1      -2.512  -0.229  25.537  0.00  0.00    +0.092 C 
BRANCH  13   2
ATOM      2  N   UNL     1      -1.382  -0.187  24.611  0.00  0.00    -0.299 NA
ATOM      3  N   UNL     1       1.372  -0.205  23.854  0.00  0.00    -0.312 N 
ATOM      6  N   UNL     1       3.032   0.725  22.430  0.00  0.00    -0.237 NA
ATOM      7  N   UNL     1       4.865  -1.138  23.449  0.00  0.00    -0.258 NA
ATOM     19  C   UNL     1      -0.594  -1.422  24.702  0.00  0.00    +0.103 C 
ATOM     20  C   UNL     1      -0.527   0.972  24.893  0.00  0.00    +0.103 C 
ATOM     22  C   UNL     1       0.560  -1.415  23.696  0.00  0.00    +0.122 C 
ATOM     23  C   UNL     1       0.628   1.060  23.892  0.00  0.00    +0.122 C 
ATOM     25  C   UNL     1       2.684  -0.181  23.366  0.00  0.00    +0.140 A 
ATOM     27  C   UNL     1       3.584  -1.096  23.866  0.00  0.00    +0.154 A 
ATOM     29  C   UNL     1       4.313   0.682  22.013  0.00  0.00    +0.132 A 
ATOM     30  C   UNL     1       5.213  -0.232  22.514  0.00  0.00    +0.130 A 
ENDBRANCH  13   2
ENDBRANCH   9  13
BRANCH  11  16
ATOM     16  C   UNL     1      -2.909   4.476  24.476  0.00  0.00    +0.105 C 
BRANCH  16  24
ATOM      1  O   UNL     1      -1.300   3.736  26.154  0.00  0.00    -0.420 OA
ATOM      4  N   UNL     1      -0.444   3.956  24.100  0.00  0.00    -0.112 NA
ATOM      5  N   UNL     1       0.568   3.535  24.941  0.00  0.00    -0.107 NA
ATOM     24  C   UNL     1      -1.516   4.060  24.850  0.00  0.00    +0.218 A 
ATOM     26  C   UNL     1       0.023   3.420  26.130  0.00  0.00    +0.248 A 
BRANCH  26  28
ATOM     28  C   UNL     1       0.596   3.021  27.383  0.00  0.00    +0.038 A 
ATOM     31  C   UNL     1       1.982   3.016  27.546  0.00  0.00    +0.013 A 
ATOM     32  C   UNL     1      -0.231   2.636  28.438  0.00  0.00    +0.013 A 
ATOM     33  C   UNL     1       2.540   2.627  28.764  0.00  0.00    +0.004 A 
ATOM     34  C   UNL     1       0.326   2.249  29.656  0.00  0.00    +0.004 A 
ATOM     35  C   UNL     1       1.712   2.243  29.819  0.00  0.00    -0.050 A 
ATOM     36  C   UNL     1       2.308   1.828  31.121  0.00  0.00    +0.044 C 
ENDBRANCH  26  28
ENDBRANCH  16  24
ENDBRANCH  11  16
TORSDOF 6
ENDMDL
MODEL 4
REMARK VINA RESULT:       9.7      1.122      4.867
REMARK  Name = 45783937
REMARK  10 active torsions:
REMARK  status: ('A' for Active; 'I' for Inactive)
REMARK    1  A    between atoms: N_2  and  C_13
REMARK    2  A    between atoms: C_8  and  C_12
REMARK    3  A    between atoms: C_9  and  C_13
REMARK    4  A    between atoms: C_11  and  C_16
REMARK    5  A    between atoms: C_12  and  C_17
REMARK    6  A    between atoms: C_12  and  C_18
REMARK    7  A    between atoms: C_15  and  C_21
REMARK    8  A    between atoms: C_16  and  C_24
REMARK    9  A    between atoms: C_26  and  C_28
REMARK   10  A    between atoms: C_35  and  C_36
REMARK                            x       y       z     vdW  Elec       q    Type
REMARK                         _______ _______ _______ _____ _____    ______ ____
ROOT
ATOM      8  C   UNL     1      -2.230  -0.726  25.179  0.00  0.00    +0.000 C 
ATOM      9  C   UNL     1      -2.489  -0.384  23.693  0.00  0.00    +0.029 C 
ATOM     10  C   UNL     1      -3.302  -0.088  26.073  0.00  0.00    +0.012 C 
ATOM     11  C   UNL     1      -4.740  -0.503  25.694  0.00  0.00    +0.024 C 
ATOM     14  C   UNL     1      -3.941  -0.518  23.313  0.00  0.00    -0.023 C 
ATOM     15  C   UNL     1      -4.959  -0.585  24.190  0.00  0.00    -0.073 C 
ATOM     21  C   UNL     1      -6.366  -0.808  23.705  0.00  0.00    +0.039 C 
ENDROOT
BRANCH   8  12
ATOM     12  C   UNL     1      -2.154  -2.243  25.399  0.00  0.00    -0.013 C 
ATOM     17  C   UNL     1      -2.953  -2.976  24.326  0.00  0.00    +0.007 C 
ATOM     18  C   UNL     1      -0.701  -2.707  25.403  0.00  0.00    +0.007 C 
ENDBRANCH   8  12
BRANCH   9  13
ATOM     13  C   UNL     1      -2.006   1.028  23.345  0.00  0.00    +0.092 C 
BRANCH  13   2
ATOM      2  N   UNL     1      -0.577   1.024  23.035  0.00  0.00    -0.299 NA
ATOM      3  N   UNL     1       2.163   0.291  23.374  0.00  0.00    -0.312 N 
ATOM      6  N   UNL     1       4.421   1.030  23.337  0.00  0.00    -0.237 NA
ATOM      7  N   UNL     1       5.234  -1.624  23.740  0.00  0.00    -0.258 NA
ATOM     19  C   UNL     1      -0.125  -0.333  22.707  0.00  0.00    +0.103 C 
ATOM     20  C   UNL     1       0.197   1.548  24.166  0.00  0.00    +0.103 C 
ATOM     22  C   UNL     1       1.357  -0.343  22.325  0.00  0.00    +0.122 C 
ATOM     23  C   UNL     1       1.690   1.603  23.832  0.00  0.00    +0.122 C 
ATOM     25  C   UNL     1       3.534   0.021  23.454  0.00  0.00    +0.140 A 
ATOM     27  C   UNL     1       3.933  -1.282  23.651  0.00  0.00    +0.154 A 
ATOM     29  C   UNL     1       5.721   0.687  23.425  0.00  0.00    +0.132 A 
ATOM     30  C   UNL     1       6.121  -0.616  23.625  0.00  0.00    +0.130 A 
ENDBRANCH  13   2
ENDBRANCH   9  13
BRANCH  11  16
ATOM     16  C   UNL     1      -5.724   0.446  26.389  0.00  0.00    +0.105 C 
BRANCH  16  24
ATOM      1  O   UNL     1      -4.130   2.198  25.800  0.00  0.00    -0.420 OA
ATOM      4  N   UNL     1      -6.245   2.905  25.977  0.00  0.00    -0.112 NA
ATOM      5  N   UNL     1      -5.458   3.991  25.642  0.00  0.00    -0.107 NA
ATOM     24  C   UNL     1      -5.428   1.881  26.058  0.00  0.00    +0.218 A 
ATOM     26  C   UNL     1      -4.231   3.532  25.551  0.00  0.00    +0.248 A 
BRANCH  26  28
ATOM     28  C   UNL     1      -3.006   4.206  25.233  0.00  0.00    +0.038 A 
ATOM     31  C   UNL     1      -1.789   3.683  25.669  0.00  0.00    +0.013 A 
ATOM     32  C   UNL     1      -3.031   5.386  24.488  0.00  0.00    +0.013 A 
ATOM     33  C   UNL     1      -0.597   4.338  25.360  0.00  0.00    +0.004 A 
ATOM     34  C   UNL     1      -1.840   6.040  24.178  0.00  0.00    +0.004 A 
ATOM     35  C   UNL     1      -0.622   5.517  24.615  0.00  0.00    -0.050 A 
ATOM     36  C   UNL     1       0.652   6.217  24.284  0.00  0.00    +0.044 C 
ENDBRANCH  26  28
ENDBRANCH  16  24
ENDBRANCH  11  16
TORSDOF 6
ENDMDL
