MODEL 1
REMARK VINA RESULT:      -1.7      0.000      0.000
REMARK  Name = 45361570
REMARK  10 active torsions:
REMARK  status: ('A' for Active; 'I' for Inactive)
REMARK    1  A    between atoms: O_1  and  C_11
REMARK    2  A    between atoms: N_4  and  C_15
REMARK    3  A    between atoms: N_5  and  C_25
REMARK    4  A    between atoms: C_8  and  C_18
REMARK    5  A    between atoms: C_10  and  C_20
REMARK    6  A    between atoms: C_14  and  C_19
REMARK    7  A    between atoms: C_19  and  C_21
REMARK    8  A    between atoms: C_19  and  C_22
REMARK    9  A    between atoms: C_23  and  C_24
REMARK   10  A    between atoms: C_25  and  C_28
REMARK                            x       y       z     vdW  Elec       q    Type
REMARK                         _______ _______ _______ _____ _____    ______ ____
ROOT
ATOM      8  C   UNL     1      -2.962  -1.377  24.839  0.00  0.00    -0.027 C 
ATOM      9  C   UNL     1      -2.591  -0.029  24.136  0.00  0.00    +0.028 C 
ATOM     10  C   UNL     1      -1.050   0.251  24.242  0.00  0.00    +0.012 C 
ATOM     11  C   UNL     1      -3.516   1.128  24.612  0.00  0.00    +0.122 C 
ATOM     12  C   UNL     1      -4.464  -1.679  24.619  0.00  0.00    +0.007 C 
ATOM     13  C   UNL     1      -2.152  -2.524  24.191  0.00  0.00    +0.009 C 
ATOM     14  C   UNL     1      -5.018   0.780  24.485  0.00  0.00    +0.029 C 
ATOM     15  C   UNL     1      -0.243  -0.942  23.656  0.00  0.00    +0.076 C 
ATOM     16  C   UNL     1      -5.373  -0.565  25.119  0.00  0.00    +0.007 C 
ATOM     17  C   UNL     1      -0.648  -2.295  24.241  0.00  0.00    +0.023 C 
ATOM     18  C   UNL     1      -2.679  -1.350  26.362  0.00  0.00    +0.011 C 
ATOM     20  C   UNL     1      -0.610   1.549  23.545  0.00  0.00    +0.010 C 
ENDROOT
BRANCH  15   4
ATOM      3  O   UNL     1       1.675  -0.232  21.642  0.00  0.00    -0.270 OA
ATOM      4  N   UNL     1       1.181  -0.768  23.842  0.00  0.00    -0.308 N 
ATOM     23  C   UNL     1       2.028  -0.424  22.802  0.00  0.00    +0.244 C 
ATOM     35  H   UNL     1       1.560  -1.021  24.749  0.00  0.00    +0.149 HD
BRANCH  23  24
ATOM      6  N   UNL     1       6.175  -0.097  23.811  0.00  0.00    -0.263 NA
ATOM     24  C   UNL     1       3.467  -0.311  23.150  0.00  0.00    +0.040 A 
ATOM     26  C   UNL     1       4.125  -1.377  23.754  0.00  0.00    +0.033 A 
ATOM     27  C   UNL     1       4.162   0.862  22.877  0.00  0.00    +0.033 A 
ATOM     29  C   UNL     1       5.466  -1.221  24.062  0.00  0.00    +0.111 A 
ATOM     30  C   UNL     1       5.503   0.918  23.224  0.00  0.00    +0.111 A 
ENDBRANCH  23  24
ENDBRANCH  15   4
BRANCH  11   1
ATOM      1  O   UNL     1      -3.294   2.281  23.798  0.00  0.00    -0.391 OA
ATOM     36  H   UNL     1      -3.918   2.973  24.078  0.00  0.00    +0.210 HD
ENDBRANCH  11   1
BRANCH  14  19
ATOM     19  C   UNL     1      -5.909   1.878  25.080  0.00  0.00    +0.077 C 
ATOM     21  C   UNL     1      -7.150   2.072  24.217  0.00  0.00    +0.017 C 
BRANCH  19  22
ATOM      2  O   UNL     1      -5.105   4.039  24.340  0.00  0.00    -0.276 OA
ATOM      5  N   UNL     1      -4.425   3.253  26.414  0.00  0.00    -0.309 N 
ATOM     22  C   UNL     1      -5.116   3.174  25.213  0.00  0.00    +0.217 C 
ATOM     37  H   UNL     1      -4.528   2.519  27.107  0.00  0.00    +0.149 HD
BRANCH   5  25
ATOM     25  C   UNL     1      -3.602   4.386  26.768  0.00  0.00    +0.159 C 
BRANCH  25  28
ATOM      7  N   UNL     1      -1.464   3.302  26.374  0.00  0.00    -0.258 NA
ATOM     28  C   UNL     1      -2.267   4.349  26.081  0.00  0.00    +0.058 A 
ATOM     31  C   UNL     1      -1.929   5.364  25.199  0.00  0.00    +0.025 A 
ATOM     32  C   UNL     1      -0.686   5.300  24.579  0.00  0.00    +0.003 A 
ATOM     33  C   UNL     1      -0.263   3.274  25.752  0.00  0.00    +0.111 A 
ATOM     34  C   UNL     1       0.169   4.240  24.856  0.00  0.00    +0.020 A 
ENDBRANCH  25  28
ENDBRANCH   5  25
ENDBRANCH  19  22
ENDBRANCH  14  19
TORSDOF 7
ENDMDL
