MODEL 1
REMARK VINA RESULT:      -2.3      0.000      0.000
REMARK  Name = 11865552
REMARK  6 active torsions:
REMARK  status: ('A' for Active; 'I' for Inactive)
REMARK    1  A    between atoms: O_6  and  C_16
REMARK    2  A    between atoms: O_6  and  C_20
REMARK    3  A    between atoms: N_9  and  C_15
REMARK    4  A    between atoms: N_10  and  C_22
REMARK    5  A    between atoms: C_19  and  C_21
REMARK    6  A    between atoms: C_27  and  C_31
REMARK                            x       y       z     vdW  Elec       q    Type
REMARK                         _______ _______ _______ _____ _____    ______ ____
ROOT
ATOM      4  O   UNL     1      -0.617   2.335  25.635  0.00  0.00    -0.368 OA
ATOM      5  O   UNL     1      -1.109   3.472  22.830  0.00  0.00    -0.368 OA
ATOM     13  C   UNL     1       0.106   3.085  23.505  0.00  0.00    +0.173 C 
ATOM     14  C   UNL     1      -0.057   3.474  24.961  0.00  0.00    +0.192 C 
ATOM     15  C   UNL     1       0.221   1.579  23.543  0.00  0.00    +0.130 C 
ATOM     16  C   UNL     1      -1.039   4.618  24.884  0.00  0.00    +0.235 C 
ATOM     17  C   UNL     1      -0.652   1.219  24.732  0.00  0.00    +0.185 C 
ATOM     18  C   UNL     1      -1.944   4.187  23.753  0.00  0.00    +0.207 C 
ENDROOT
BRANCH  15   9
ATOM      7  O   UNL     1       1.739  -0.214  21.892  0.00  0.00    -0.270 OA
ATOM      9  N   UNL     1       1.587   1.164  23.751  0.00  0.00    -0.304 N 
ATOM     19  C   UNL     1       2.241   0.289  22.894  0.00  0.00    +0.247 C 
ATOM     32  H   UNL     1       2.035   1.460  24.613  0.00  0.00    +0.149 HD
BRANCH  19  21
ATOM     11  N   UNL     1       5.207  -1.654  24.064  0.00  0.00    -0.243 NA
ATOM     12  N   UNL     1       5.919   0.571  23.470  0.00  0.00    -0.243 NA
ATOM     21  C   UNL     1       3.637  -0.060  23.260  0.00  0.00    +0.073 A 
ATOM     23  C   UNL     1       3.949  -1.302  23.721  0.00  0.00    +0.127 A 
ATOM     24  C   UNL     1       4.640   0.854  23.145  0.00  0.00    +0.127 A 
ATOM     29  C   UNL     1       6.128  -0.683  23.915  0.00  0.00    +0.221 A 
ENDBRANCH  19  21
ENDBRANCH  15   9
BRANCH  16   6
ATOM      6  O   UNL     1      -1.752   4.829  26.083  0.00  0.00    -0.442 OA
BRANCH   6  20
ATOM      8  O   UNL     1      -3.447   4.010  27.382  0.00  0.00    -0.226 OA
ATOM     10  N   UNL     1      -3.032   3.178  25.233  0.00  0.00    -0.251 N 
ATOM     20  C   UNL     1      -2.819   3.991  26.330  0.00  0.00    +0.405 C 
ATOM     33  H   UNL     1      -2.401   3.311  24.447  0.00  0.00    +0.158 HD
BRANCH  10  22
ATOM     22  C   UNL     1      -4.020   2.181  25.068  0.00  0.00    +0.037 A 
ATOM     25  C   UNL     1      -3.633   0.876  24.811  0.00  0.00    +0.035 A 
ATOM     26  C   UNL     1      -5.358   2.528  25.168  0.00  0.00    +0.023 A 
ATOM     27  C   UNL     1      -4.608  -0.108  24.650  0.00  0.00    +0.057 A 
ATOM     28  C   UNL     1      -6.334   1.544  25.006  0.00  0.00    +0.002 A 
ATOM     30  C   UNL     1      -5.959   0.226  24.747  0.00  0.00    +0.012 A 
BRANCH  27  31
ATOM      1  F   UNL     1      -5.158  -2.237  23.707  0.00  0.00    -0.166 F 
ATOM      2  F   UNL     1      -3.940  -2.242  25.502  0.00  0.00    -0.166 F 
ATOM      3  F   UNL     1      -3.079  -1.603  23.610  0.00  0.00    -0.166 F 
ATOM     31  C   UNL     1      -4.206  -1.518  24.374  0.00  0.00    +0.417 C 
ENDBRANCH  27  31
ENDBRANCH  10  22
ENDBRANCH   6  20
ENDBRANCH  16   6
TORSDOF 6
ENDMDL
MODEL 2
REMARK VINA RESULT:      -2.2      3.307      4.934
REMARK  Name = 11865552
REMARK  6 active torsions:
REMARK  status: ('A' for Active; 'I' for Inactive)
REMARK    1  A    between atoms: O_6  and  C_16
REMARK    2  A    between atoms: O_6  and  C_20
REMARK    3  A    between atoms: N_9  and  C_15
REMARK    4  A    between atoms: N_10  and  C_22
REMARK    5  A    between atoms: C_19  and  C_21
REMARK    6  A    between atoms: C_27  and  C_31
REMARK                            x       y       z     vdW  Elec       q    Type
REMARK                         _______ _______ _______ _____ _____    ______ ____
ROOT
ATOM      4  O   UNL     1      -2.459  -0.282  24.975  0.00  0.00    -0.368 OA
ATOM      5  O   UNL     1      -2.622  -3.344  25.016  0.00  0.00    -0.368 OA
ATOM     13  C   UNL     1      -1.750  -2.443  24.302  0.00  0.00    +0.173 C 
ATOM     14  C   UNL     1      -2.586  -1.240  23.912  0.00  0.00    +0.192 C 
ATOM     15  C   UNL     1      -0.713  -1.873  25.240  0.00  0.00    +0.130 C 
ATOM     16  C   UNL     1      -3.979  -1.820  23.844  0.00  0.00    +0.235 C 
ATOM     17  C   UNL     1      -1.471  -0.741  25.911  0.00  0.00    +0.185 C 
ATOM     18  C   UNL     1      -3.960  -2.828  24.970  0.00  0.00    +0.207 C 
ENDROOT
BRANCH  15   9
ATOM      7  O   UNL     1      -0.588   0.515  23.650  0.00  0.00    -0.270 OA
ATOM      9  N   UNL     1       0.433  -1.380  24.515  0.00  0.00    -0.304 N 
ATOM     19  C   UNL     1       0.397  -0.209  23.770  0.00  0.00    +0.247 C 
ATOM     32  H   UNL     1       1.254  -1.976  24.485  0.00  0.00    +0.149 HD
BRANCH  19  21
ATOM     11  N   UNL     1       3.717   1.326  23.015  0.00  0.00    -0.243 NA
ATOM     12  N   UNL     1       3.045  -0.035  21.144  0.00  0.00    -0.243 NA
ATOM     21  C   UNL     1       1.652   0.150  23.060  0.00  0.00    +0.073 A 
ATOM     23  C   UNL     1       2.567   0.979  23.632  0.00  0.00    +0.127 A 
ATOM     24  C   UNL     1       1.917  -0.341  21.817  0.00  0.00    +0.127 A 
ATOM     29  C   UNL     1       3.888   0.790  21.792  0.00  0.00    +0.221 A 
ENDBRANCH  19  21
ENDBRANCH  15   9
BRANCH  16   6
ATOM      6  O   UNL     1      -4.998  -0.858  24.009  0.00  0.00    -0.442 OA
BRANCH   6  20
ATOM      8  O   UNL     1      -4.928   0.117  26.077  0.00  0.00    -0.226 OA
ATOM     10  N   UNL     1      -4.242   1.261  24.153  0.00  0.00    -0.251 N 
ATOM     20  C   UNL     1      -4.734   0.188  24.869  0.00  0.00    +0.405 C 
ATOM     33  H   UNL     1      -4.152   1.128  23.149  0.00  0.00    +0.158 HD
BRANCH  10  22
ATOM     22  C   UNL     1      -3.846   2.527  24.643  0.00  0.00    +0.037 A 
ATOM     25  C   UNL     1      -2.523   2.920  24.521  0.00  0.00    +0.035 A 
ATOM     26  C   UNL     1      -4.790   3.351  25.235  0.00  0.00    +0.023 A 
ATOM     27  C   UNL     1      -2.133   4.170  25.003  0.00  0.00    +0.057 A 
ATOM     28  C   UNL     1      -4.400   4.601  25.718  0.00  0.00    +0.002 A 
ATOM     30  C   UNL     1      -3.072   5.010  25.602  0.00  0.00    +0.012 A 
BRANCH  27  31
ATOM      1  F   UNL     1      -0.540   5.955  25.029  0.00  0.00    -0.166 F 
ATOM      2  F   UNL     1      -0.153   4.311  23.668  0.00  0.00    -0.166 F 
ATOM      3  F   UNL     1       0.100   4.028  25.809  0.00  0.00    -0.166 F 
ATOM     31  C   UNL     1      -0.713   4.608  24.878  0.00  0.00    +0.417 C 
ENDBRANCH  27  31
ENDBRANCH  10  22
ENDBRANCH   6  20
ENDBRANCH  16   6
TORSDOF 6
ENDMDL
MODEL 3
REMARK VINA RESULT:      -1.8     15.038     16.976
REMARK  Name = 11865552
REMARK  6 active torsions:
REMARK  status: ('A' for Active; 'I' for Inactive)
REMARK    1  A    between atoms: O_6  and  C_16
REMARK    2  A    between atoms: O_6  and  C_20
REMARK    3  A    between atoms: N_9  and  C_15
REMARK    4  A    between atoms: N_10  and  C_22
REMARK    5  A    between atoms: C_19  and  C_21
REMARK    6  A    between atoms: C_27  and  C_31
REMARK                            x       y       z     vdW  Elec       q    Type
REMARK                         _______ _______ _______ _____ _____    ______ ____
ROOT
ATOM      4  O   UNL     1      -5.195  -9.601  11.790  0.00  0.00    -0.368 OA
ATOM      5  O   UNL     1      -4.902 -10.781   8.975  0.00  0.00    -0.368 OA
ATOM     13  C   UNL     1      -4.037  -9.921   9.746  0.00  0.00    +0.173 C 
ATOM     14  C   UNL     1      -4.935  -8.978  10.522  0.00  0.00    +0.192 C 
ATOM     15  C   UNL     1      -3.335 -10.718  10.819  0.00  0.00    +0.130 C 
ATOM     16  C   UNL     1      -6.173  -8.923   9.660  0.00  0.00    +0.235 C 
ATOM     17  C   UNL     1      -4.385 -10.781  11.914  0.00  0.00    +0.185 C 
ATOM     18  C   UNL     1      -6.257 -10.337   9.132  0.00  0.00    +0.207 C 
ENDROOT
BRANCH  15   9
ATOM      7  O   UNL     1      -2.044  -8.479   9.566  0.00  0.00    -0.270 OA
ATOM      9  N   UNL     1      -2.143 -10.045  11.275  0.00  0.00    -0.304 N 
ATOM     19  C   UNL     1      -1.591  -8.965  10.599  0.00  0.00    +0.247 C 
ATOM     32  H   UNL     1      -1.654 -10.452  12.066  0.00  0.00    +0.149 HD
BRANCH  19  21
ATOM     11  N   UNL     1       2.020  -8.186  11.148  0.00  0.00    -0.243 NA
ATOM     12  N   UNL     1       0.715  -7.051  12.825  0.00  0.00    -0.243 NA
ATOM     21  C   UNL     1      -0.347  -8.399  11.181  0.00  0.00    +0.073 A 
ATOM     23  C   UNL     1       0.870  -8.683  10.644  0.00  0.00    +0.127 A 
ATOM     24  C   UNL     1      -0.394  -7.581  12.271  0.00  0.00    +0.127 A 
ATOM     29  C   UNL     1       1.870  -7.389  12.223  0.00  0.00    +0.221 A 
ENDBRANCH  19  21
ENDBRANCH  15   9
BRANCH  16   6
ATOM      6  O   UNL     1      -7.335  -8.550  10.367  0.00  0.00    -0.442 OA
BRANCH   6  20
ATOM      8  O   UNL     1      -8.040 -10.670  10.858  0.00  0.00    -0.226 OA
ATOM     10  N   UNL     1      -8.231  -8.921  12.403  0.00  0.00    -0.251 N 
ATOM     20  C   UNL     1      -7.893  -9.501  11.196  0.00  0.00    +0.405 C 
ATOM     33  H   UNL     1      -8.030  -7.929  12.496  0.00  0.00    +0.158 HD
BRANCH  10  22
ATOM     22  C   UNL     1      -8.825  -9.537  13.529  0.00  0.00    +0.037 A 
ATOM     25  C   UNL     1      -8.175  -9.489  14.751  0.00  0.00    +0.035 A 
ATOM     26  C   UNL     1     -10.047 -10.175  13.388  0.00  0.00    +0.023 A 
ATOM     27  C   UNL     1      -8.762 -10.094  15.863  0.00  0.00    +0.057 A 
ATOM     28  C   UNL     1     -10.634 -10.781  14.499  0.00  0.00    +0.002 A 
ATOM     30  C   UNL     1      -9.992 -10.741  15.736  0.00  0.00    +0.012 A 
BRANCH  27  31
ATOM      1  F   UNL     1      -6.831 -10.614  17.175  0.00  0.00    -0.166 F 
ATOM      2  F   UNL     1      -8.753 -10.704  18.176  0.00  0.00    -0.166 F 
ATOM      3  F   UNL     1      -7.898  -8.777  17.644  0.00  0.00    -0.166 F 
ATOM     31  C   UNL     1      -8.076 -10.050  17.186  0.00  0.00    +0.417 C 
ENDBRANCH  27  31
ENDBRANCH  10  22
ENDBRANCH   6  20
ENDBRANCH  16   6
TORSDOF 6
ENDMDL
MODEL 4
REMARK VINA RESULT:      -1.5      3.536      4.621
REMARK  Name = 11865552
REMARK  6 active torsions:
REMARK  status: ('A' for Active; 'I' for Inactive)
REMARK    1  A    between atoms: O_6  and  C_16
REMARK    2  A    between atoms: O_6  and  C_20
REMARK    3  A    between atoms: N_9  and  C_15
REMARK    4  A    between atoms: N_10  and  C_22
REMARK    5  A    between atoms: C_19  and  C_21
REMARK    6  A    between atoms: C_27  and  C_31
REMARK                            x       y       z     vdW  Elec       q    Type
REMARK                         _______ _______ _______ _____ _____    ______ ____
ROOT
ATOM      4  O   UNL     1      -2.761   2.272  24.736  0.00  0.00    -0.368 OA
ATOM      5  O   UNL     1      -3.191   5.228  24.042  0.00  0.00    -0.368 OA
ATOM     13  C   UNL     1      -2.596   4.593  25.193  0.00  0.00    +0.173 C 
ATOM     14  C   UNL     1      -3.397   3.335  25.464  0.00  0.00    +0.192 C 
ATOM     15  C   UNL     1      -1.219   4.078  24.847  0.00  0.00    +0.130 C 
ATOM     16  C   UNL     1      -4.749   3.679  24.886  0.00  0.00    +0.235 C 
ATOM     17  C   UNL     1      -1.530   2.753  24.174  0.00  0.00    +0.185 C 
ATOM     18  C   UNL     1      -4.378   4.508  23.677  0.00  0.00    +0.207 C 
ENDROOT
BRANCH  15   9
ATOM      7  O   UNL     1       0.046   1.642  25.692  0.00  0.00    -0.270 OA
ATOM      9  N   UNL     1      -0.418   3.889  26.032  0.00  0.00    -0.304 N 
ATOM     19  C   UNL     1       0.155   2.668  26.359  0.00  0.00    +0.247 C 
ATOM     32  H   UNL     1      -0.366   4.665  26.685  0.00  0.00    +0.149 HD
BRANCH  19  21
ATOM     11  N   UNL     1       2.978   2.947  28.787  0.00  0.00    -0.243 NA
ATOM     12  N   UNL     1       1.011   2.203  29.963  0.00  0.00    -0.243 NA
ATOM     21  C   UNL     1       0.928   2.629  27.627  0.00  0.00    +0.073 A 
ATOM     23  C   UNL     1       2.245   2.971  27.653  0.00  0.00    +0.127 A 
ATOM     24  C   UNL     1       0.338   2.250  28.795  0.00  0.00    +0.127 A 
ATOM     29  C   UNL     1       2.307   2.559  29.889  0.00  0.00    +0.221 A 
ENDBRANCH  19  21
ENDBRANCH  15   9
BRANCH  16   6
ATOM      6  O   UNL     1      -5.516   2.547  24.539  0.00  0.00    -0.442 OA
BRANCH   6  20
ATOM      8  O   UNL     1      -5.417   0.962  26.184  0.00  0.00    -0.226 OA
ATOM     10  N   UNL     1      -4.345   0.666  24.123  0.00  0.00    -0.251 N 
ATOM     20  C   UNL     1      -5.111   1.336  25.057  0.00  0.00    +0.405 C 
ATOM     33  H   UNL     1      -4.199   1.143  23.237  0.00  0.00    +0.158 HD
BRANCH  10  22
ATOM     22  C   UNL     1      -3.734  -0.604  24.247  0.00  0.00    +0.037 A 
ATOM     25  C   UNL     1      -2.426  -0.688  24.696  0.00  0.00    +0.035 A 
ATOM     26  C   UNL     1      -4.457  -1.739  23.919  0.00  0.00    +0.023 A 
ATOM     27  C   UNL     1      -1.825  -1.940  24.820  0.00  0.00    +0.057 A 
ATOM     28  C   UNL     1      -3.856  -2.992  24.042  0.00  0.00    +0.002 A 
ATOM     30  C   UNL     1      -2.540  -3.093  24.493  0.00  0.00    +0.012 A 
BRANCH  27  31
ATOM      1  F   UNL     1       0.004  -3.336  25.475  0.00  0.00    -0.166 F 
ATOM      2  F   UNL     1      -0.204  -1.440  26.506  0.00  0.00    -0.166 F 
ATOM      3  F   UNL     1       0.477  -1.481  24.442  0.00  0.00    -0.166 F 
ATOM     31  C   UNL     1      -0.418  -2.048  25.302  0.00  0.00    +0.417 C 
ENDBRANCH  27  31
ENDBRANCH  10  22
ENDBRANCH   6  20
ENDBRANCH  16   6
TORSDOF 6
ENDMDL
MODEL 5
REMARK VINA RESULT:      -0.4      2.112      3.437
REMARK  Name = 11865552
REMARK  6 active torsions:
REMARK  status: ('A' for Active; 'I' for Inactive)
REMARK    1  A    between atoms: O_6  and  C_16
REMARK    2  A    between atoms: O_6  and  C_20
REMARK    3  A    between atoms: N_9  and  C_15
REMARK    4  A    between atoms: N_10  and  C_22
REMARK    5  A    between atoms: C_19  and  C_21
REMARK    6  A    between atoms: C_27  and  C_31
REMARK                            x       y       z     vdW  Elec       q    Type
REMARK                         _______ _______ _______ _____ _____    ______ ____
ROOT
ATOM      4  O   UNL     1      -3.337   3.311  23.882  0.00  0.00    -0.368 OA
ATOM      5  O   UNL     1      -2.111   5.072  26.073  0.00  0.00    -0.368 OA
ATOM     13  C   UNL     1      -1.613   3.897  25.401  0.00  0.00    +0.173 C 
ATOM     14  C   UNL     1      -2.801   2.983  25.174  0.00  0.00    +0.192 C 
ATOM     15  C   UNL     1      -1.156   4.251  24.005  0.00  0.00    +0.130 C 
ATOM     16  C   UNL     1      -3.738   3.386  26.288  0.00  0.00    +0.235 C 
ATOM     17  C   UNL     1      -2.461   4.243  23.228  0.00  0.00    +0.185 C 
ATOM     18  C   UNL     1      -3.498   4.875  26.384  0.00  0.00    +0.207 C 
ENDROOT
BRANCH  15   9
ATOM      7  O   UNL     1       0.316   2.316  25.534  0.00  0.00    -0.270 OA
ATOM      9  N   UNL     1      -0.234   3.267  23.491  0.00  0.00    -0.304 N 
ATOM     19  C   UNL     1       0.434   2.369  24.312  0.00  0.00    +0.247 C 
ATOM     32  H   UNL     1      -0.009   3.315  22.502  0.00  0.00    +0.149 HD
BRANCH  19  21
ATOM     11  N   UNL     1       3.565   0.922  22.883  0.00  0.00    -0.243 NA
ATOM     12  N   UNL     1       1.752  -0.619  22.505  0.00  0.00    -0.243 NA
ATOM     21  C   UNL     1       1.369   1.437  23.633  0.00  0.00    +0.073 A 
ATOM     23  C   UNL     1       2.688   1.746  23.495  0.00  0.00    +0.127 A 
ATOM     24  C   UNL     1       0.931   0.250  23.128  0.00  0.00    +0.127 A 
ATOM     29  C   UNL     1       3.037  -0.226  22.419  0.00  0.00    +0.221 A 
ENDBRANCH  19  21
ENDBRANCH  15   9
BRANCH  16   6
ATOM      6  O   UNL     1      -5.090   3.082  26.023  0.00  0.00    -0.442 OA
BRANCH   6  20
ATOM      8  O   UNL     1      -6.469   1.536  25.054  0.00  0.00    -0.226 OA
ATOM     10  N   UNL     1      -4.191   1.112  25.394  0.00  0.00    -0.251 N 
ATOM     20  C   UNL     1      -5.353   1.858  25.445  0.00  0.00    +0.405 C 
ATOM     33  H   UNL     1      -3.357   1.554  25.772  0.00  0.00    +0.158 HD
BRANCH  10  22
ATOM     22  C   UNL     1      -4.017  -0.194  24.880  0.00  0.00    +0.037 A 
ATOM     25  C   UNL     1      -2.773  -0.797  24.965  0.00  0.00    +0.035 A 
ATOM     26  C   UNL     1      -5.096  -0.846  24.305  0.00  0.00    +0.023 A 
ATOM     27  C   UNL     1      -2.602  -2.086  24.461  0.00  0.00    +0.057 A 
ATOM     28  C   UNL     1      -4.925  -2.135  23.799  0.00  0.00    +0.002 A 
ATOM     30  C   UNL     1      -3.678  -2.755  23.877  0.00  0.00    +0.012 A 
BRANCH  27  31
ATOM      1  F   UNL     1      -1.187  -3.690  25.533  0.00  0.00    -0.166 F 
ATOM      2  F   UNL     1      -0.242  -1.884  24.792  0.00  0.00    -0.166 F 
ATOM      3  F   UNL     1      -0.932  -3.399  23.393  0.00  0.00    -0.166 F 
ATOM     31  C   UNL     1      -1.269  -2.750  24.545  0.00  0.00    +0.417 C 
ENDBRANCH  27  31
ENDBRANCH  10  22
ENDBRANCH   6  20
ENDBRANCH  16   6
TORSDOF 6
ENDMDL
