MODEL 1
REMARK VINA RESULT:       9.3      0.000      0.000
REMARK  Name = 40780146
REMARK  12 active torsions:
REMARK  status: ('A' for Active; 'I' for Inactive)
REMARK    1  A    between atoms: O_2  and  C_27
REMARK    2  A    between atoms: O_2  and  C_35
REMARK    3  A    between atoms: O_3  and  C_29
REMARK    4  A    between atoms: O_3  and  C_36
REMARK    5  A    between atoms: O_4  and  C_34
REMARK    6  A    between atoms: O_4  and  C_37
REMARK    7  A    between atoms: N_6  and  C_21
REMARK    8  A    between atoms: N_7  and  C_18
REMARK    9  A    between atoms: N_9  and  C_26
REMARK   10  A    between atoms: C_11  and  C_17
REMARK   11  A    between atoms: C_12  and  C_18
REMARK   12  A    between atoms: C_20  and  C_23
REMARK                            x       y       z     vdW  Elec       q    Type
REMARK                         _______ _______ _______ _____ _____    ______ ____
ROOT
ATOM      5  N   UNL     1      -4.933   2.928  25.717  0.00  0.00    -0.297 NA
ATOM     10  C   UNL     1      -4.896   1.064  23.898  0.00  0.00    +0.002 C 
ATOM     11  C   UNL     1      -3.917   0.716  25.053  0.00  0.00    +0.055 C 
ATOM     12  C   UNL     1      -4.751   3.534  24.372  0.00  0.00    +0.074 C 
ATOM     13  C   UNL     1      -4.520   2.439  23.308  0.00  0.00    +0.024 C 
ATOM     14  C   UNL     1      -6.296   1.210  24.531  0.00  0.00    +0.019 C 
ATOM     15  C   UNL     1      -3.843   1.957  25.988  0.00  0.00    +0.094 C 
ATOM     16  C   UNL     1      -6.220   2.191  25.713  0.00  0.00    +0.085 C 
ENDROOT
BRANCH  11  17
ATOM      6  N   UNL     1      -2.241  -1.146  24.649  0.00  0.00    -0.270 N 
ATOM      8  N   UNL     1      -0.968  -1.408  24.308  0.00  0.00    -0.171 NA
ATOM     17  C   UNL     1      -2.537   0.184  24.690  0.00  0.00    +0.044 A 
ATOM     19  C   UNL     1      -1.378   0.838  24.352  0.00  0.00    +0.053 A 
ATOM     20  C   UNL     1      -0.446  -0.192  24.127  0.00  0.00    +0.093 A 
ATOM     21  C   UNL     1      -3.136  -2.245  24.932  0.00  0.00    +0.172 C 
BRANCH  20  23
ATOM     23  C   UNL     1       0.934  -0.037  23.745  0.00  0.00    +0.006 A 
ATOM     24  C   UNL     1       1.811  -1.116  23.848  0.00  0.00    +0.059 A 
ATOM     25  C   UNL     1       1.393   1.192  23.273  0.00  0.00    +0.014 A 
ATOM     27  C   UNL     1       3.148  -0.966  23.480  0.00  0.00    +0.162 A 
ATOM     28  C   UNL     1       2.730   1.343  22.904  0.00  0.00    +0.050 A 
ATOM     29  C   UNL     1       3.608   0.263  23.007  0.00  0.00    +0.162 A 
BRANCH  27   2
ATOM      2  O   UNL     1       3.996  -2.028  23.585  0.00  0.00    -0.491 OA
ATOM     35  C   UNL     1       5.228  -1.807  24.268  0.00  0.00    +0.277 C 
ENDBRANCH  27   2
BRANCH  29   3
ATOM      3  O   UNL     1       4.911   0.422  22.643  0.00  0.00    -0.491 OA
ATOM     36  C   UNL     1       5.812   0.881  23.647  0.00  0.00    +0.277 C 
ENDBRANCH  29   3
ENDBRANCH  20  23
ENDBRANCH  11  17
BRANCH  12  18
ATOM     18  C   UNL     1      -3.645   4.591  24.353  0.00  0.00    +0.124 C 
BRANCH  18   7
ATOM      1  O   UNL     1      -2.460   4.261  26.940  0.00  0.00    -0.253 OA
ATOM      7  N   UNL     1      -2.373   4.004  24.642  0.00  0.00    -0.298 N 
ATOM      9  N   UNL     1      -0.596   3.267  25.917  0.00  0.00    -0.269 N 
ATOM     22  C   UNL     1      -1.853   3.876  25.943  0.00  0.00    +0.304 C 
ATOM     38  H   UNL     1      -1.812   3.667  23.866  0.00  0.00    +0.150 HD
ATOM     39  H   UNL     1      -0.233   3.008  25.002  0.00  0.00    +0.156 HD
BRANCH   9  26
ATOM     26  C   UNL     1       0.245   2.964  27.013  0.00  0.00    +0.035 A 
ATOM     30  C   UNL     1       1.594   3.320  26.977  0.00  0.00    +0.027 A 
ATOM     31  C   UNL     1      -0.273   2.309  28.130  0.00  0.00    +0.027 A 
ATOM     32  C   UNL     1       2.423   3.022  28.057  0.00  0.00    +0.047 A 
ATOM     33  C   UNL     1       0.556   2.011  29.210  0.00  0.00    +0.047 A 
ATOM     34  C   UNL     1       1.904   2.367  29.175  0.00  0.00    +0.120 A 
BRANCH  34   4
ATOM      4  O   UNL     1       2.714   2.076  30.229  0.00  0.00    -0.495 OA
ATOM     37  C   UNL     1       2.079   1.692  31.448  0.00  0.00    +0.277 C 
ENDBRANCH  34   4
ENDBRANCH   9  26
ENDBRANCH  18   7
ENDBRANCH  12  18
TORSDOF 8
ENDMDL
MODEL 2
REMARK VINA RESULT:      12.2      2.879      4.429
REMARK  Name = 40780146
REMARK  12 active torsions:
REMARK  status: ('A' for Active; 'I' for Inactive)
REMARK    1  A    between atoms: O_2  and  C_27
REMARK    2  A    between atoms: O_2  and  C_35
REMARK    3  A    between atoms: O_3  and  C_29
REMARK    4  A    between atoms: O_3  and  C_36
REMARK    5  A    between atoms: O_4  and  C_34
REMARK    6  A    between atoms: O_4  and  C_37
REMARK    7  A    between atoms: N_6  and  C_21
REMARK    8  A    between atoms: N_7  and  C_18
REMARK    9  A    between atoms: N_9  and  C_26
REMARK   10  A    between atoms: C_11  and  C_17
REMARK   11  A    between atoms: C_12  and  C_18
REMARK   12  A    between atoms: C_20  and  C_23
REMARK                            x       y       z     vdW  Elec       q    Type
REMARK                         _______ _______ _______ _____ _____    ______ ____
ROOT
ATOM      5  N   UNL     1      -5.616   4.607  25.041  0.00  0.00    -0.297 NA
ATOM     10  C   UNL     1      -3.456   3.930  26.330  0.00  0.00    +0.002 C 
ATOM     11  C   UNL     1      -3.138   4.177  24.830  0.00  0.00    +0.055 C 
ATOM     12  C   UNL     1      -5.866   3.380  25.843  0.00  0.00    +0.074 C 
ATOM     13  C   UNL     1      -4.549   2.847  26.449  0.00  0.00    +0.024 C 
ATOM     14  C   UNL     1      -4.056   5.242  26.880  0.00  0.00    +0.019 C 
ATOM     15  C   UNL     1      -4.495   4.375  24.095  0.00  0.00    +0.094 C 
ATOM     16  C   UNL     1      -5.217   5.687  25.975  0.00  0.00    +0.085 C 
ENDROOT
BRANCH  11  17
ATOM      6  N   UNL     1      -2.578   2.575  22.943  0.00  0.00    -0.270 N 
ATOM      8  N   UNL     1      -1.642   1.733  22.474  0.00  0.00    -0.171 NA
ATOM     17  C   UNL     1      -2.233   3.184  24.114  0.00  0.00    +0.044 A 
ATOM     19  C   UNL     1      -0.985   2.708  24.432  0.00  0.00    +0.053 A 
ATOM     20  C   UNL     1      -0.671   1.819  23.387  0.00  0.00    +0.093 A 
ATOM     21  C   UNL     1      -3.807   2.747  22.203  0.00  0.00    +0.172 C 
BRANCH  20  23
ATOM     23  C   UNL     1       0.537   1.049  23.246  0.00  0.00    +0.006 A 
ATOM     24  C   UNL     1       1.778   1.686  23.275  0.00  0.00    +0.059 A 
ATOM     25  C   UNL     1       0.467  -0.334  23.079  0.00  0.00    +0.014 A 
ATOM     27  C   UNL     1       2.948   0.940  23.137  0.00  0.00    +0.162 A 
ATOM     28  C   UNL     1       1.638  -1.080  22.940  0.00  0.00    +0.050 A 
ATOM     29  C   UNL     1       2.878  -0.443  22.970  0.00  0.00    +0.162 A 
BRANCH  27   2
ATOM      2  O   UNL     1       4.154   1.573  23.167  0.00  0.00    -0.491 OA
ATOM     35  C   UNL     1       5.250   0.852  23.726  0.00  0.00    +0.277 C 
ENDBRANCH  27   2
BRANCH  29   3
ATOM      3  O   UNL     1       4.015  -1.183  22.835  0.00  0.00    -0.491 OA
ATOM     36  C   UNL     1       4.465  -1.893  23.986  0.00  0.00    +0.277 C 
ENDBRANCH  29   3
ENDBRANCH  20  23
ENDBRANCH  11  17
BRANCH  12  18
ATOM     18  C   UNL     1      -6.605   2.303  25.047  0.00  0.00    +0.124 C 
BRANCH  18   7
ATOM      1  O   UNL     1      -4.686   0.594  26.310  0.00  0.00    -0.253 OA
ATOM      7  N   UNL     1      -5.682   1.426  24.395  0.00  0.00    -0.298 N 
ATOM      9  N   UNL     1      -3.994  -0.134  24.189  0.00  0.00    -0.269 N 
ATOM     22  C   UNL     1      -4.764   0.613  25.084  0.00  0.00    +0.304 C 
ATOM     38  H   UNL     1      -5.686   1.392  23.381  0.00  0.00    +0.150 HD
ATOM     39  H   UNL     1      -4.186   0.000  23.199  0.00  0.00    +0.156 HD
BRANCH   9  26
ATOM     26  C   UNL     1      -2.969  -1.062  24.489  0.00  0.00    +0.035 A 
ATOM     30  C   UNL     1      -3.021  -2.353  23.961  0.00  0.00    +0.027 A 
ATOM     31  C   UNL     1      -1.908  -0.687  25.313  0.00  0.00    +0.027 A 
ATOM     32  C   UNL     1      -2.010  -3.267  24.257  0.00  0.00    +0.047 A 
ATOM     33  C   UNL     1      -0.899  -1.602  25.610  0.00  0.00    +0.047 A 
ATOM     34  C   UNL     1      -0.949  -2.892  25.081  0.00  0.00    +0.120 A 
BRANCH  34   4
ATOM      4  O   UNL     1       0.037  -3.786  25.370  0.00  0.00    -0.495 OA
ATOM     37  C   UNL     1       1.334  -3.256  25.642  0.00  0.00    +0.277 C 
ENDBRANCH  34   4
ENDBRANCH   9  26
ENDBRANCH  18   7
ENDBRANCH  12  18
TORSDOF 8
ENDMDL
MODEL 3
REMARK VINA RESULT:      13.3      1.625      5.422
REMARK  Name = 40780146
REMARK  12 active torsions:
REMARK  status: ('A' for Active; 'I' for Inactive)
REMARK    1  A    between atoms: O_2  and  C_27
REMARK    2  A    between atoms: O_2  and  C_35
REMARK    3  A    between atoms: O_3  and  C_29
REMARK    4  A    between atoms: O_3  and  C_36
REMARK    5  A    between atoms: O_4  and  C_34
REMARK    6  A    between atoms: O_4  and  C_37
REMARK    7  A    between atoms: N_6  and  C_21
REMARK    8  A    between atoms: N_7  and  C_18
REMARK    9  A    between atoms: N_9  and  C_26
REMARK   10  A    between atoms: C_11  and  C_17
REMARK   11  A    between atoms: C_12  and  C_18
REMARK   12  A    between atoms: C_20  and  C_23
REMARK                            x       y       z     vdW  Elec       q    Type
REMARK                         _______ _______ _______ _____ _____    ______ ____
ROOT
ATOM      5  N   UNL     1      -5.585   1.048  23.892  0.00  0.00    -0.297 NA
ATOM     10  C   UNL     1      -5.324   2.207  26.210  0.00  0.00    +0.002 C 
ATOM     11  C   UNL     1      -4.389   2.870  25.162  0.00  0.00    +0.055 C 
ATOM     12  C   UNL     1      -5.372   0.026  24.951  0.00  0.00    +0.074 C 
ATOM     13  C   UNL     1      -5.010   0.699  26.293  0.00  0.00    +0.024 C 
ATOM     14  C   UNL     1      -6.764   2.341  25.669  0.00  0.00    +0.019 C 
ATOM     15  C   UNL     1      -4.450   2.004  23.872  0.00  0.00    +0.094 C 
ATOM     16  C   UNL     1      -6.818   1.800  24.230  0.00  0.00    +0.085 C 
ENDROOT
BRANCH  11  17
ATOM      6  N   UNL     1      -2.243   4.220  25.039  0.00  0.00    -0.270 N 
ATOM      8  N   UNL     1      -1.000   4.333  25.538  0.00  0.00    -0.171 NA
ATOM     17  C   UNL     1      -2.959   3.190  25.576  0.00  0.00    +0.044 A 
ATOM     19  C   UNL     1      -2.127   2.590  26.488  0.00  0.00    +0.053 A 
ATOM     20  C   UNL     1      -0.936   3.335  26.423  0.00  0.00    +0.093 A 
ATOM     21  C   UNL     1      -2.685   5.150  24.026  0.00  0.00    +0.172 C 
BRANCH  20  23
ATOM     23  C   UNL     1       0.264   3.112  27.188  0.00  0.00    +0.006 A 
ATOM     24  C   UNL     1       0.181   2.584  28.476  0.00  0.00    +0.059 A 
ATOM     25  C   UNL     1       1.508   3.424  26.641  0.00  0.00    +0.014 A 
ATOM     27  C   UNL     1       1.342   2.369  29.217  0.00  0.00    +0.162 A 
ATOM     28  C   UNL     1       2.670   3.209  27.382  0.00  0.00    +0.050 A 
ATOM     29  C   UNL     1       2.587   2.680  28.671  0.00  0.00    +0.162 A 
BRANCH  27   2
ATOM      2  O   UNL     1       1.249   1.852  30.475  0.00  0.00    -0.491 OA
ATOM     35  C   UNL     1       0.519   2.613  31.435  0.00  0.00    +0.277 C 
ENDBRANCH  27   2
BRANCH  29   3
ATOM      3  O   UNL     1       3.729   2.473  29.384  0.00  0.00    -0.491 OA
ATOM     36  C   UNL     1       4.891   2.093  28.651  0.00  0.00    +0.277 C 
ENDBRANCH  29   3
ENDBRANCH  20  23
ENDBRANCH  11  17
BRANCH  12  18
ATOM     18  C   UNL     1      -4.339  -1.028  24.544  0.00  0.00    +0.124 C 
BRANCH  18   7
ATOM      1  O   UNL     1      -1.542  -0.891  25.144  0.00  0.00    -0.253 OA
ATOM      7  N   UNL     1      -3.317  -0.452  23.726  0.00  0.00    -0.298 N 
ATOM      9  N   UNL     1      -1.195   0.202  23.096  0.00  0.00    -0.269 N 
ATOM     22  C   UNL     1      -1.957  -0.421  24.088  0.00  0.00    +0.304 C 
ATOM     38  H   UNL     1      -3.586  -0.040  22.839  0.00  0.00    +0.150 HD
ATOM     39  H   UNL     1      -1.697   0.538  22.278  0.00  0.00    +0.156 HD
BRANCH   9  26
ATOM     26  C   UNL     1       0.202   0.427  23.088  0.00  0.00    +0.035 A 
ATOM     30  C   UNL     1       0.741   1.489  23.815  0.00  0.00    +0.027 A 
ATOM     31  C   UNL     1       1.039  -0.412  22.352  0.00  0.00    +0.027 A 
ATOM     32  C   UNL     1       2.118   1.710  23.807  0.00  0.00    +0.047 A 
ATOM     33  C   UNL     1       2.416  -0.189  22.344  0.00  0.00    +0.047 A 
ATOM     34  C   UNL     1       2.956   0.871  23.071  0.00  0.00    +0.120 A 
BRANCH  34   4
ATOM      4  O   UNL     1       4.300   1.089  23.064  0.00  0.00    -0.495 OA
ATOM     37  C   UNL     1       5.137  -0.017  23.400  0.00  0.00    +0.277 C 
ENDBRANCH  34   4
ENDBRANCH   9  26
ENDBRANCH  18   7
ENDBRANCH  12  18
TORSDOF 8
ENDMDL
