MODEL 1
REMARK VINA RESULT:      -0.6      0.000      0.000
REMARK  Name = 28961885
REMARK  9 active torsions:
REMARK  status: ('A' for Active; 'I' for Inactive)
REMARK    1  A    between atoms: O_4  and  C_11
REMARK    2  A    between atoms: O_5  and  C_18
REMARK    3  A    between atoms: N_6  and  C_9
REMARK    4  A    between atoms: N_7  and  C_19
REMARK    5  A    between atoms: N_8  and  C_15
REMARK    6  A    between atoms: N_8  and  C_20
REMARK    7  A    between atoms: C_10  and  C_15
REMARK    8  A    between atoms: C_12  and  C_18
REMARK    9  A    between atoms: C_20  and  C_23
REMARK                            x       y       z     vdW  Elec       q    Type
REMARK                         _______ _______ _______ _____ _____    ______ ____
ROOT
ATOM      3  O   UNL     1      -5.002   3.070  23.734  0.00  0.00    -0.366 OA
ATOM      9  C   UNL     1      -2.625   3.020  23.876  0.00  0.00    +0.118 C 
ATOM     10  C   UNL     1      -3.851   2.338  23.253  0.00  0.00    +0.152 C 
ATOM     11  C   UNL     1      -3.188   3.646  25.142  0.00  0.00    +0.165 C 
ATOM     12  C   UNL     1      -4.560   4.089  24.651  0.00  0.00    +0.174 C 
ENDROOT
BRANCH   9   6
ATOM      6  N   UNL     1      -1.454   2.183  24.065  0.00  0.00    -0.292 NA
ATOM      7  N   UNL     1       1.204   1.266  23.560  0.00  0.00    -0.327 N 
ATOM     13  C   UNL     1      -1.144   1.443  22.835  0.00  0.00    +0.104 C 
ATOM     14  C   UNL     1      -0.298   2.997  24.461  0.00  0.00    +0.104 C 
ATOM     16  C   UNL     1       0.055   0.515  23.039  0.00  0.00    +0.120 C 
ATOM     17  C   UNL     1       0.930   2.121  24.719  0.00  0.00    +0.120 C 
BRANCH   7  19
ATOM      1  F   UNL     1       6.246  -0.899  22.885  0.00  0.00    -0.205 F 
ATOM     19  C   UNL     1       2.481   0.717  23.389  0.00  0.00    +0.030 A 
ATOM     21  C   UNL     1       3.539   1.529  22.982  0.00  0.00    +0.026 A 
ATOM     22  C   UNL     1       2.693  -0.641  23.626  0.00  0.00    +0.026 A 
ATOM     24  C   UNL     1       4.812   0.983  22.812  0.00  0.00    +0.040 A 
ATOM     25  C   UNL     1       3.966  -1.186  23.456  0.00  0.00    +0.040 A 
ATOM     26  C   UNL     1       5.025  -0.375  23.048  0.00  0.00    +0.124 A 
ENDBRANCH   7  19
ENDBRANCH   9   6
BRANCH  11   4
ATOM      4  O   UNL     1      -3.319   2.687  26.183  0.00  0.00    -0.388 OA
ATOM     32  H   UNL     1      -4.267   2.594  26.380  0.00  0.00    +0.210 HD
ENDBRANCH  11   4
BRANCH  10  15
ATOM     15  C   UNL     1      -4.069   0.871  23.603  0.00  0.00    +0.114 C 
BRANCH  15   8
ATOM      8  N   UNL     1      -4.822   0.737  24.842  0.00  0.00    -0.310 NA
ATOM     33  H   UNL     1      -4.481   1.418  25.519  0.00  0.00    +0.122 HD
BRANCH   8  20
ATOM     20  C   UNL     1      -4.696  -0.608  25.385  0.00  0.00    +0.116 C 
BRANCH  20  23
ATOM      2  F   UNL     1       0.658  -2.366  25.405  0.00  0.00    -0.205 F 
ATOM     23  C   UNL     1      -3.265  -1.078  25.391  0.00  0.00    -0.033 A 
ATOM     27  C   UNL     1      -2.312  -0.399  26.149  0.00  0.00    +0.008 A 
ATOM     28  C   UNL     1      -2.893  -2.193  24.638  0.00  0.00    +0.008 A 
ATOM     29  C   UNL     1      -0.986  -0.835  26.154  0.00  0.00    +0.038 A 
ATOM     30  C   UNL     1      -1.569  -2.627  24.643  0.00  0.00    +0.038 A 
ATOM     31  C   UNL     1      -0.614  -1.948  25.400  0.00  0.00    +0.123 A 
ENDBRANCH  20  23
ENDBRANCH   8  20
ENDBRANCH  15   8
ENDBRANCH  10  15
BRANCH  12  18
ATOM     18  C   UNL     1      -5.611   4.279  25.731  0.00  0.00    +0.190 C 
BRANCH  18   5
ATOM      5  O   UNL     1      -6.143   3.013  26.082  0.00  0.00    -0.392 OA
ATOM     34  H   UNL     1      -6.268   2.516  25.256  0.00  0.00    +0.210 HD
ENDBRANCH  18   5
ENDBRANCH  12  18
TORSDOF 9
ENDMDL
MODEL 2
REMARK VINA RESULT:       1.7      1.051      1.678
REMARK  Name = 28961885
REMARK  9 active torsions:
REMARK  status: ('A' for Active; 'I' for Inactive)
REMARK    1  A    between atoms: O_4  and  C_11
REMARK    2  A    between atoms: O_5  and  C_18
REMARK    3  A    between atoms: N_6  and  C_9
REMARK    4  A    between atoms: N_7  and  C_19
REMARK    5  A    between atoms: N_8  and  C_15
REMARK    6  A    between atoms: N_8  and  C_20
REMARK    7  A    between atoms: C_10  and  C_15
REMARK    8  A    between atoms: C_12  and  C_18
REMARK    9  A    between atoms: C_20  and  C_23
REMARK                            x       y       z     vdW  Elec       q    Type
REMARK                         _______ _______ _______ _____ _____    ______ ____
ROOT
ATOM      3  O   UNL     1      -5.399   2.780  24.283  0.00  0.00    -0.366 OA
ATOM      9  C   UNL     1      -3.043   2.721  23.943  0.00  0.00    +0.118 C 
ATOM     10  C   UNL     1      -4.350   1.937  23.756  0.00  0.00    +0.152 C 
ATOM     11  C   UNL     1      -3.356   3.631  25.121  0.00  0.00    +0.165 C 
ATOM     12  C   UNL     1      -4.812   3.974  24.833  0.00  0.00    +0.174 C 
ENDROOT
BRANCH   9   6
ATOM      6  N   UNL     1      -1.834   1.928  24.075  0.00  0.00    -0.292 NA
ATOM      7  N   UNL     1       0.884   1.214  23.561  0.00  0.00    -0.327 N 
ATOM     13  C   UNL     1      -1.449   1.356  22.779  0.00  0.00    +0.104 C 
ATOM     14  C   UNL     1      -0.737   2.748  24.604  0.00  0.00    +0.104 C 
ATOM     16  C   UNL     1      -0.206   0.473  22.915  0.00  0.00    +0.120 C 
ATOM     17  C   UNL     1       0.529   1.912  24.801  0.00  0.00    +0.120 C 
BRANCH   7  19
ATOM      1  F   UNL     1       6.052  -0.599  22.813  0.00  0.00    -0.205 F 
ATOM     19  C   UNL     1       2.193   0.756  23.372  0.00  0.00    +0.030 A 
ATOM     21  C   UNL     1       2.500  -0.587  23.594  0.00  0.00    +0.026 A 
ATOM     22  C   UNL     1       3.190   1.641  22.961  0.00  0.00    +0.026 A 
ATOM     24  C   UNL     1       3.803  -1.045  23.405  0.00  0.00    +0.040 A 
ATOM     25  C   UNL     1       4.493   1.182  22.772  0.00  0.00    +0.040 A 
ATOM     26  C   UNL     1       4.801  -0.160  22.995  0.00  0.00    +0.124 A 
ENDBRANCH   7  19
ENDBRANCH   9   6
BRANCH  11   4
ATOM      4  O   UNL     1      -3.245   2.938  26.357  0.00  0.00    -0.388 OA
ATOM     32  H   UNL     1      -2.823   3.539  26.994  0.00  0.00    +0.210 HD
ENDBRANCH  11   4
BRANCH  10  15
ATOM     15  C   UNL     1      -4.449   0.593  24.469  0.00  0.00    +0.114 C 
BRANCH  15   8
ATOM      8  N   UNL     1      -3.836   0.657  25.788  0.00  0.00    -0.310 NA
ATOM     33  H   UNL     1      -2.928   1.114  25.716  0.00  0.00    +0.122 HD
BRANCH   8  20
ATOM     20  C   UNL     1      -3.676  -0.676  26.353  0.00  0.00    +0.116 C 
BRANCH  20  23
ATOM      2  F   UNL     1      -1.199  -4.206  22.725  0.00  0.00    -0.205 F 
ATOM     23  C   UNL     1      -3.014  -1.620  25.383  0.00  0.00    -0.033 A 
ATOM     27  C   UNL     1      -3.791  -2.473  24.601  0.00  0.00    +0.008 A 
ATOM     28  C   UNL     1      -1.623  -1.639  25.267  0.00  0.00    +0.008 A 
ATOM     29  C   UNL     1      -3.178  -3.347  23.702  0.00  0.00    +0.038 A 
ATOM     30  C   UNL     1      -1.011  -2.512  24.370  0.00  0.00    +0.038 A 
ATOM     31  C   UNL     1      -1.787  -3.367  23.587  0.00  0.00    +0.123 A 
ENDBRANCH  20  23
ENDBRANCH   8  20
ENDBRANCH  15   8
ENDBRANCH  10  15
BRANCH  12  18
ATOM     18  C   UNL     1      -5.626   4.426  26.032  0.00  0.00    +0.190 C 
BRANCH  18   5
ATOM      5  O   UNL     1      -6.621   5.337  25.594  0.00  0.00    -0.392 OA
ATOM     34  H   UNL     1      -7.438   5.121  26.073  0.00  0.00    +0.210 HD
ENDBRANCH  18   5
ENDBRANCH  12  18
TORSDOF 9
ENDMDL
MODEL 3
REMARK VINA RESULT:       2.7      1.667      2.379
REMARK  Name = 28961885
REMARK  9 active torsions:
REMARK  status: ('A' for Active; 'I' for Inactive)
REMARK    1  A    between atoms: O_4  and  C_11
REMARK    2  A    between atoms: O_5  and  C_18
REMARK    3  A    between atoms: N_6  and  C_9
REMARK    4  A    between atoms: N_7  and  C_19
REMARK    5  A    between atoms: N_8  and  C_15
REMARK    6  A    between atoms: N_8  and  C_20
REMARK    7  A    between atoms: C_10  and  C_15
REMARK    8  A    between atoms: C_12  and  C_18
REMARK    9  A    between atoms: C_20  and  C_23
REMARK                            x       y       z     vdW  Elec       q    Type
REMARK                         _______ _______ _______ _____ _____    ______ ____
ROOT
ATOM      3  O   UNL     1      -3.929   2.018  25.490  0.00  0.00    -0.366 OA
ATOM      9  C   UNL     1      -2.488   1.708  23.619  0.00  0.00    +0.118 C 
ATOM     10  C   UNL     1      -2.789   1.245  25.052  0.00  0.00    +0.152 C 
ATOM     11  C   UNL     1      -3.041   3.124  23.594  0.00  0.00    +0.165 C 
ATOM     12  C   UNL     1      -4.286   2.956  24.456  0.00  0.00    +0.174 C 
ENDROOT
BRANCH   9   6
ATOM      6  N   UNL     1      -1.112   1.571  23.177  0.00  0.00    -0.292 NA
ATOM      7  N   UNL     1       1.601   0.689  23.332  0.00  0.00    -0.327 N 
ATOM     13  C   UNL     1      -0.194   2.162  24.158  0.00  0.00    +0.104 C 
ATOM     14  C   UNL     1      -0.777   0.156  22.969  0.00  0.00    +0.104 C 
ATOM     16  C   UNL     1       1.257   2.074  23.676  0.00  0.00    +0.120 C 
ATOM     17  C   UNL     1       0.654   0.001  22.449  0.00  0.00    +0.120 C 
BRANCH   7  19
ATOM      1  F   UNL     1       6.948  -0.709  23.245  0.00  0.00    -0.205 F 
ATOM     19  C   UNL     1       2.955   0.334  23.309  0.00  0.00    +0.030 A 
ATOM     21  C   UNL     1       3.912   1.266  22.909  0.00  0.00    +0.026 A 
ATOM     22  C   UNL     1       3.346  -0.950  23.688  0.00  0.00    +0.026 A 
ATOM     24  C   UNL     1       5.262   0.914  22.887  0.00  0.00    +0.040 A 
ATOM     25  C   UNL     1       4.695  -1.302  23.667  0.00  0.00    +0.040 A 
ATOM     26  C   UNL     1       5.653  -0.370  23.265  0.00  0.00    +0.124 A 
ENDBRANCH   7  19
ENDBRANCH   9   6
BRANCH  11   4
ATOM      4  O   UNL     1      -2.141   4.045  24.197  0.00  0.00    -0.388 OA
ATOM     32  H   UNL     1      -2.431   4.182  25.115  0.00  0.00    +0.210 HD
ENDBRANCH  11   4
BRANCH  10  15
ATOM     15  C   UNL     1      -1.683   1.445  26.081  0.00  0.00    +0.114 C 
BRANCH  15   8
ATOM      8  N   UNL     1      -0.747   0.330  26.064  0.00  0.00    -0.310 NA
ATOM     33  H   UNL     1      -0.449   0.154  25.105  0.00  0.00    +0.122 HD
BRANCH   8  20
ATOM     20  C   UNL     1      -1.358  -0.870  26.620  0.00  0.00    +0.116 C 
BRANCH  20  23
ATOM      2  F   UNL     1      -4.759  -3.402  22.908  0.00  0.00    -0.205 F 
ATOM     23  C   UNL     1      -2.267  -1.547  25.628  0.00  0.00    -0.033 A 
ATOM     27  C   UNL     1      -3.622  -1.220  25.589  0.00  0.00    +0.008 A 
ATOM     28  C   UNL     1      -1.753  -2.500  24.747  0.00  0.00    +0.008 A 
ATOM     29  C   UNL     1      -4.464  -1.846  24.669  0.00  0.00    +0.038 A 
ATOM     30  C   UNL     1      -2.595  -3.126  23.829  0.00  0.00    +0.038 A 
ATOM     31  C   UNL     1      -3.951  -2.800  23.790  0.00  0.00    +0.123 A 
ENDBRANCH  20  23
ENDBRANCH   8  20
ENDBRANCH  15   8
ENDBRANCH  10  15
BRANCH  12  18
ATOM     18  C   UNL     1      -4.815   4.228  25.095  0.00  0.00    +0.190 C 
BRANCH  18   5
ATOM      5  O   UNL     1      -6.026   3.931  25.772  0.00  0.00    -0.392 OA
ATOM     34  H   UNL     1      -5.940   4.278  26.677  0.00  0.00    +0.210 HD
ENDBRANCH  18   5
ENDBRANCH  12  18
TORSDOF 9
ENDMDL
MODEL 4
REMARK VINA RESULT:       3.0      2.346      4.184
REMARK  Name = 28961885
REMARK  9 active torsions:
REMARK  status: ('A' for Active; 'I' for Inactive)
REMARK    1  A    between atoms: O_4  and  C_11
REMARK    2  A    between atoms: O_5  and  C_18
REMARK    3  A    between atoms: N_6  and  C_9
REMARK    4  A    between atoms: N_7  and  C_19
REMARK    5  A    between atoms: N_8  and  C_15
REMARK    6  A    between atoms: N_8  and  C_20
REMARK    7  A    between atoms: C_10  and  C_15
REMARK    8  A    between atoms: C_12  and  C_18
REMARK    9  A    between atoms: C_20  and  C_23
REMARK                            x       y       z     vdW  Elec       q    Type
REMARK                         _______ _______ _______ _____ _____    ______ ____
ROOT
ATOM      3  O   UNL     1      -4.210  -0.095  25.825  0.00  0.00    -0.366 OA
ATOM      9  C   UNL     1      -2.814  -0.840  24.045  0.00  0.00    +0.118 C 
ATOM     10  C   UNL     1      -3.033  -0.893  25.564  0.00  0.00    +0.152 C 
ATOM     11  C   UNL     1      -3.467   0.475  23.651  0.00  0.00    +0.165 C 
ATOM     12  C   UNL     1      -4.668   0.486  24.589  0.00  0.00    +0.174 C 
ENDROOT
BRANCH   9   6
ATOM      6  N   UNL     1      -1.447  -1.016  23.589  0.00  0.00    -0.292 NA
ATOM      7  N   UNL     1       1.374  -0.565  23.570  0.00  0.00    -0.327 N 
ATOM     13  C   UNL     1      -0.901   0.254  23.094  0.00  0.00    +0.104 C 
ATOM     14  C   UNL     1      -0.605  -1.532  24.674  0.00  0.00    +0.104 C 
ATOM     16  C   UNL     1       0.520   0.070  22.558  0.00  0.00    +0.120 C 
ATOM     17  C   UNL     1       0.827  -1.776  24.191  0.00  0.00    +0.120 C 
BRANCH   7  19
ATOM      1  F   UNL     1       6.848   0.042  23.101  0.00  0.00    -0.205 F 
ATOM     19  C   UNL     1       2.760  -0.411  23.451  0.00  0.00    +0.030 A 
ATOM     21  C   UNL     1       3.614  -1.417  23.901  0.00  0.00    +0.026 A 
ATOM     22  C   UNL     1       3.286   0.749  22.883  0.00  0.00    +0.026 A 
ATOM     24  C   UNL     1       4.996  -1.265  23.783  0.00  0.00    +0.040 A 
ATOM     25  C   UNL     1       4.668   0.901  22.765  0.00  0.00    +0.040 A 
ATOM     26  C   UNL     1       5.522  -0.105  23.215  0.00  0.00    +0.124 A 
ENDBRANCH   7  19
ENDBRANCH   9   6
BRANCH  11   4
ATOM      4  O   UNL     1      -2.616   1.581  23.922  0.00  0.00    -0.388 OA
ATOM     32  H   UNL     1      -3.008   2.080  24.658  0.00  0.00    +0.210 HD
ENDBRANCH  11   4
BRANCH  10  15
ATOM     15  C   UNL     1      -1.911  -0.342  26.436  0.00  0.00    +0.114 C 
BRANCH  15   8
ATOM      8  N   UNL     1      -1.070   0.578  25.683  0.00  0.00    -0.310 NA
ATOM     33  H   UNL     1      -0.279   0.068  25.291  0.00  0.00    +0.122 HD
BRANCH   8  20
ATOM     20  C   UNL     1      -0.590   1.659  26.533  0.00  0.00    +0.116 C 
BRANCH  20  23
ATOM      2  F   UNL     1      -2.119   6.712  24.561  0.00  0.00    -0.205 F 
ATOM     23  C   UNL     1      -0.998   3.010  26.006  0.00  0.00    -0.033 A 
ATOM     27  C   UNL     1      -0.144   3.714  25.158  0.00  0.00    +0.008 A 
ATOM     28  C   UNL     1      -2.232   3.555  26.365  0.00  0.00    +0.008 A 
ATOM     29  C   UNL     1      -0.523   4.965  24.669  0.00  0.00    +0.038 A 
ATOM     30  C   UNL     1      -2.609   4.805  25.877  0.00  0.00    +0.038 A 
ATOM     31  C   UNL     1      -1.756   5.511  25.030  0.00  0.00    +0.123 A 
ENDBRANCH  20  23
ENDBRANCH   8  20
ENDBRANCH  15   8
ENDBRANCH  10  15
BRANCH  12  18
ATOM     18  C   UNL     1      -5.266   1.854  24.870  0.00  0.00    +0.190 C 
BRANCH  18   5
ATOM      5  O   UNL     1      -6.655   1.706  25.111  0.00  0.00    -0.392 OA
ATOM     34  H   UNL     1      -6.880   0.777  24.934  0.00  0.00    +0.210 HD
ENDBRANCH  18   5
ENDBRANCH  12  18
TORSDOF 9
ENDMDL
