MODEL 1
REMARK VINA RESULT:      -4.0      0.000      0.000
REMARK  Name = 75536752
REMARK  6 active torsions:
REMARK  status: ('A' for Active; 'I' for Inactive)
REMARK    1  A    between atoms: O_3  and  C_10
REMARK    2  A    between atoms: N_6  and  C_9
REMARK    3  A    between atoms: N_6  and  C_14
REMARK    4  A    between atoms: N_7  and  C_13
REMARK    5  A    between atoms: C_11  and  C_13
REMARK    6  A    between atoms: C_14  and  C_18
REMARK                            x       y       z     vdW  Elec       q    Type
REMARK                         _______ _______ _______ _____ _____    ______ ____
ROOT
ATOM      2  O   UNL     1      -2.652  -2.979  23.605  0.00  0.00    -0.371 OA
ATOM      9  C   UNL     1      -1.188  -2.170  25.292  0.00  0.00    +0.111 C 
ATOM     10  C   UNL     1      -2.515  -1.441  25.397  0.00  0.00    +0.164 C 
ATOM     11  C   UNL     1      -3.438  -2.404  24.662  0.00  0.00    +0.165 C 
ATOM     12  C   UNL     1      -1.263  -2.728  23.880  0.00  0.00    +0.181 C 
ENDROOT
BRANCH  10   3
ATOM      3  O   UNL     1      -2.922  -1.239  26.737  0.00  0.00    -0.388 OA
ATOM     28  H   UNL     1      -2.849  -2.085  27.209  0.00  0.00    +0.210 HD
ENDBRANCH  10   3
BRANCH   9   6
ATOM      6  N   UNL     1      -0.034  -1.313  25.501  0.00  0.00    -0.305 NA
ATOM     26  H   UNL     1       0.790  -1.896  25.657  0.00  0.00    +0.123 HD
BRANCH   6  14
ATOM     14  C   UNL     1       0.204  -0.460  24.342  0.00  0.00    +0.116 C 
BRANCH  14  18
ATOM      1  F   UNL     1      -0.898   4.952  25.456  0.00  0.00    -0.205 F 
ATOM     18  C   UNL     1      -0.090   0.985  24.639  0.00  0.00    -0.033 A 
ATOM     21  C   UNL     1       0.068   1.949  23.642  0.00  0.00    +0.008 A 
ATOM     22  C   UNL     1      -0.519   1.363  25.912  0.00  0.00    +0.008 A 
ATOM     23  C   UNL     1      -0.205   3.288  23.919  0.00  0.00    +0.038 A 
ATOM     24  C   UNL     1      -0.792   2.702  26.188  0.00  0.00    +0.038 A 
ATOM     25  C   UNL     1      -0.636   3.666  25.191  0.00  0.00    +0.123 A 
ENDBRANCH  14  18
ENDBRANCH   6  14
ENDBRANCH   9   6
BRANCH  11  13
ATOM     13  C   UNL     1      -4.668  -1.732  24.080  0.00  0.00    +0.140 C 
BRANCH  13   7
ATOM      4  O   UNL     1      -5.172   4.557  25.260  0.00  0.00    -0.377 OA
ATOM      5  O   UNL     1      -3.270   0.518  23.127  0.00  0.00    -0.253 OA
ATOM      7  N   UNL     1      -4.813  -0.379  24.570  0.00  0.00    -0.297 N 
ATOM      8  N   UNL     1      -4.329   1.934  24.628  0.00  0.00    -0.281 N 
ATOM     15  C   UNL     1      -4.083   0.680  24.044  0.00  0.00    +0.302 C 
ATOM     16  C   UNL     1      -3.598   3.105  24.140  0.00  0.00    +0.137 C 
ATOM     17  C   UNL     1      -5.160   2.190  25.813  0.00  0.00    +0.137 C 
ATOM     19  C   UNL     1      -4.518   4.309  24.014  0.00  0.00    +0.179 C 
ATOM     20  C   UNL     1      -5.997   3.451  25.627  0.00  0.00    +0.179 C 
ATOM     27  H   UNL     1      -5.464  -0.251  25.330  0.00  0.00    +0.150 HD
ENDBRANCH  13   7
ENDBRANCH  11  13
TORSDOF 6
ENDMDL
MODEL 2
REMARK VINA RESULT:      -3.8      2.719      5.645
REMARK  Name = 75536752
REMARK  6 active torsions:
REMARK  status: ('A' for Active; 'I' for Inactive)
REMARK    1  A    between atoms: O_3  and  C_10
REMARK    2  A    between atoms: N_6  and  C_9
REMARK    3  A    between atoms: N_6  and  C_14
REMARK    4  A    between atoms: N_7  and  C_13
REMARK    5  A    between atoms: C_11  and  C_13
REMARK    6  A    between atoms: C_14  and  C_18
REMARK                            x       y       z     vdW  Elec       q    Type
REMARK                         _______ _______ _______ _____ _____    ______ ____
ROOT
ATOM      2  O   UNL     1      -2.643  -2.122  24.096  0.00  0.00    -0.371 OA
ATOM      9  C   UNL     1      -3.774  -0.090  24.578  0.00  0.00    +0.111 C 
ATOM     10  C   UNL     1      -2.464  -0.121  25.343  0.00  0.00    +0.164 C 
ATOM     11  C   UNL     1      -1.680  -1.152  24.542  0.00  0.00    +0.165 C 
ATOM     12  C   UNL     1      -3.959  -1.560  24.241  0.00  0.00    +0.181 C 
ENDROOT
BRANCH  10   3
ATOM      3  O   UNL     1      -1.814   1.136  25.363  0.00  0.00    -0.388 OA
ATOM     28  H   UNL     1      -0.930   1.017  25.748  0.00  0.00    +0.210 HD
ENDBRANCH  10   3
BRANCH   9   6
ATOM      6  N   UNL     1      -4.882   0.458  25.343  0.00  0.00    -0.305 NA
ATOM     26  H   UNL     1      -4.578   0.613  26.305  0.00  0.00    +0.123 HD
BRANCH   6  14
ATOM     14  C   UNL     1      -5.333   1.726  24.780  0.00  0.00    +0.116 C 
BRANCH  14  18
ATOM      1  F   UNL     1      -1.432   5.758  25.304  0.00  0.00    -0.205 F 
ATOM     18  C   UNL     1      -4.291   2.803  24.920  0.00  0.00    -0.033 A 
ATOM     21  C   UNL     1      -3.584   3.239  23.799  0.00  0.00    +0.008 A 
ATOM     22  C   UNL     1      -4.032   3.365  26.170  0.00  0.00    +0.008 A 
ATOM     23  C   UNL     1      -2.618   4.237  23.929  0.00  0.00    +0.038 A 
ATOM     24  C   UNL     1      -3.066   4.363  26.300  0.00  0.00    +0.038 A 
ATOM     25  C   UNL     1      -2.359   4.800  25.179  0.00  0.00    +0.123 A 
ENDBRANCH  14  18
ENDBRANCH   6  14
ENDBRANCH   9   6
BRANCH  11  13
ATOM     13  C   UNL     1      -0.594  -1.840  25.349  0.00  0.00    +0.140 C 
BRANCH  13   7
ATOM      4  O   UNL     1       4.957   0.134  22.801  0.00  0.00    -0.377 OA
ATOM      5  O   UNL     1       0.051   0.130  23.445  0.00  0.00    -0.253 OA
ATOM      7  N   UNL     1       0.713  -1.623  24.769  0.00  0.00    -0.297 N 
ATOM      8  N   UNL     1       2.269  -0.542  23.355  0.00  0.00    -0.281 N 
ATOM     15  C   UNL     1       0.950  -0.625  23.831  0.00  0.00    +0.302 C 
ATOM     16  C   UNL     1       2.606   0.476  22.358  0.00  0.00    +0.137 C 
ATOM     17  C   UNL     1       3.356  -1.489  23.644  0.00  0.00    +0.137 C 
ATOM     19  C   UNL     1       3.941   1.131  22.678  0.00  0.00    +0.179 C 
ATOM     20  C   UNL     1       4.669  -0.751  23.885  0.00  0.00    +0.179 C 
ATOM     27  H   UNL     1       1.442  -2.252  25.072  0.00  0.00    +0.150 HD
ENDBRANCH  13   7
ENDBRANCH  11  13
TORSDOF 6
ENDMDL
MODEL 3
REMARK VINA RESULT:      -3.7      2.119      5.183
REMARK  Name = 75536752
REMARK  6 active torsions:
REMARK  status: ('A' for Active; 'I' for Inactive)
REMARK    1  A    between atoms: O_3  and  C_10
REMARK    2  A    between atoms: N_6  and  C_9
REMARK    3  A    between atoms: N_6  and  C_14
REMARK    4  A    between atoms: N_7  and  C_13
REMARK    5  A    between atoms: C_11  and  C_13
REMARK    6  A    between atoms: C_14  and  C_18
REMARK                            x       y       z     vdW  Elec       q    Type
REMARK                         _______ _______ _______ _____ _____    ______ ____
ROOT
ATOM      2  O   UNL     1      -4.753   3.445  26.496  0.00  0.00    -0.371 OA
ATOM      9  C   UNL     1      -3.308   4.518  24.945  0.00  0.00    +0.111 C 
ATOM     10  C   UNL     1      -3.885   3.269  24.304  0.00  0.00    +0.164 C 
ATOM     11  C   UNL     1      -5.117   3.037  25.167  0.00  0.00    +0.165 C 
ATOM     12  C   UNL     1      -3.557   4.239  26.419  0.00  0.00    +0.181 C 
ENDROOT
BRANCH  10   3
ATOM      3  O   UNL     1      -4.222   3.461  22.943  0.00  0.00    -0.388 OA
ATOM     28  H   UNL     1      -3.904   2.694  22.438  0.00  0.00    +0.210 HD
ENDBRANCH  10   3
BRANCH   9   6
ATOM      6  N   UNL     1      -1.904   4.736  24.640  0.00  0.00    -0.305 NA
ATOM     26  H   UNL     1      -1.665   5.706  24.849  0.00  0.00    +0.123 HD
BRANCH   6  14
ATOM     14  C   UNL     1      -1.052   3.858  25.434  0.00  0.00    +0.116 C 
BRANCH  14  18
ATOM      1  F   UNL     1       0.789  -0.548  22.442  0.00  0.00    -0.205 F 
ATOM     18  C   UNL     1      -0.560   2.682  24.634  0.00  0.00    -0.033 A 
ATOM     21  C   UNL     1      -1.463   1.908  23.905  0.00  0.00    +0.008 A 
ATOM     22  C   UNL     1       0.797   2.363  24.624  0.00  0.00    +0.008 A 
ATOM     23  C   UNL     1      -1.007   0.817  23.165  0.00  0.00    +0.038 A 
ATOM     24  C   UNL     1       1.254   1.273  23.884  0.00  0.00    +0.038 A 
ATOM     25  C   UNL     1       0.350   0.499  23.153  0.00  0.00    +0.123 A 
ENDBRANCH  14  18
ENDBRANCH   6  14
ENDBRANCH   9   6
BRANCH  11  13
ATOM     13  C   UNL     1      -5.577   1.591  25.181  0.00  0.00    +0.140 C 
BRANCH  13   7
ATOM      4  O   UNL     1      -0.696  -2.576  25.295  0.00  0.00    -0.377 OA
ATOM      5  O   UNL     1      -5.087  -0.828  23.829  0.00  0.00    -0.253 OA
ATOM      7  N   UNL     1      -4.477   0.688  25.439  0.00  0.00    -0.297 N 
ATOM      8  N   UNL     1      -3.193  -1.267  25.094  0.00  0.00    -0.281 N 
ATOM     15  C   UNL     1      -4.305  -0.491  24.724  0.00  0.00    +0.302 C 
ATOM     16  C   UNL     1      -2.940  -2.530  24.399  0.00  0.00    +0.137 C 
ATOM     17  C   UNL     1      -2.305  -1.018  26.239  0.00  0.00    +0.137 C 
ATOM     19  C   UNL     1      -1.460  -2.697  24.093  0.00  0.00    +0.179 C 
ATOM     20  C   UNL     1      -0.850  -1.275  25.864  0.00  0.00    +0.179 C 
ATOM     27  H   UNL     1      -3.849   0.957  26.183  0.00  0.00    +0.150 HD
ENDBRANCH  13   7
ENDBRANCH  11  13
TORSDOF 6
ENDMDL
MODEL 4
REMARK VINA RESULT:      -3.7      2.491      5.568
REMARK  Name = 75536752
REMARK  6 active torsions:
REMARK  status: ('A' for Active; 'I' for Inactive)
REMARK    1  A    between atoms: O_3  and  C_10
REMARK    2  A    between atoms: N_6  and  C_9
REMARK    3  A    between atoms: N_6  and  C_14
REMARK    4  A    between atoms: N_7  and  C_13
REMARK    5  A    between atoms: C_11  and  C_13
REMARK    6  A    between atoms: C_14  and  C_18
REMARK                            x       y       z     vdW  Elec       q    Type
REMARK                         _______ _______ _______ _____ _____    ______ ____
ROOT
ATOM      2  O   UNL     1       0.162   3.505  23.502  0.00  0.00    -0.371 OA
ATOM      9  C   UNL     1      -0.592   3.906  25.718  0.00  0.00    +0.111 C 
ATOM     10  C   UNL     1      -0.160   2.457  25.597  0.00  0.00    +0.164 C 
ATOM     11  C   UNL     1       0.744   2.521  24.372  0.00  0.00    +0.165 C 
ATOM     12  C   UNL     1      -0.779   4.286  24.259  0.00  0.00    +0.181 C 
ENDROOT
BRANCH  10   3
ATOM      3  O   UNL     1       0.534   1.997  26.741  0.00  0.00    -0.388 OA
ATOM     28  H   UNL     1       0.585   2.726  27.381  0.00  0.00    +0.210 HD
ENDBRANCH  10   3
BRANCH   9   6
ATOM      6  N   UNL     1      -1.797   4.091  26.509  0.00  0.00    -0.305 NA
ATOM     26  H   UNL     1      -1.581   4.684  27.311  0.00  0.00    +0.123 HD
BRANCH   6  14
ATOM     14  C   UNL     1      -2.849   4.725  25.723  0.00  0.00    +0.116 C 
BRANCH  14  18
ATOM      1  F   UNL     1      -7.018   1.133  24.510  0.00  0.00    -0.205 F 
ATOM     18  C   UNL     1      -3.963   3.766  25.399  0.00  0.00    -0.033 A 
ATOM     21  C   UNL     1      -4.050   3.204  24.125  0.00  0.00    +0.008 A 
ATOM     22  C   UNL     1      -4.907   3.439  26.372  0.00  0.00    +0.008 A 
ATOM     23  C   UNL     1      -5.083   2.315  23.826  0.00  0.00    +0.038 A 
ATOM     24  C   UNL     1      -5.939   2.550  26.072  0.00  0.00    +0.038 A 
ATOM     25  C   UNL     1      -6.027   1.987  24.798  0.00  0.00    +0.123 A 
ENDBRANCH  14  18
ENDBRANCH   6  14
ENDBRANCH   9   6
BRANCH  11  13
ATOM     13  C   UNL     1       0.862   1.195  23.643  0.00  0.00    +0.140 C 
BRANCH  13   7
ATOM      4  O   UNL     1      -3.861  -2.978  24.857  0.00  0.00    -0.377 OA
ATOM      5  O   UNL     1      -1.882   1.167  23.018  0.00  0.00    -0.253 OA
ATOM      7  N   UNL     1      -0.104   0.235  24.129  0.00  0.00    -0.297 N 
ATOM      8  N   UNL     1      -2.262  -0.707  24.330  0.00  0.00    -0.281 N 
ATOM     15  C   UNL     1      -1.446   0.291  23.772  0.00  0.00    +0.302 C 
ATOM     16  C   UNL     1      -3.692  -0.720  24.013  0.00  0.00    +0.137 C 
ATOM     17  C   UNL     1      -1.859  -1.689  25.347  0.00  0.00    +0.137 C 
ATOM     19  C   UNL     1      -4.179  -2.135  23.747  0.00  0.00    +0.179 C 
ATOM     20  C   UNL     1      -2.447  -3.062  25.039  0.00  0.00    +0.179 C 
ATOM     27  H   UNL     1       0.251  -0.469  24.759  0.00  0.00    +0.150 HD
ENDBRANCH  13   7
ENDBRANCH  11  13
TORSDOF 6
ENDMDL
MODEL 5
REMARK VINA RESULT:      -3.6      2.821      4.906
REMARK  Name = 75536752
REMARK  6 active torsions:
REMARK  status: ('A' for Active; 'I' for Inactive)
REMARK    1  A    between atoms: O_3  and  C_10
REMARK    2  A    between atoms: N_6  and  C_9
REMARK    3  A    between atoms: N_6  and  C_14
REMARK    4  A    between atoms: N_7  and  C_13
REMARK    5  A    between atoms: C_11  and  C_13
REMARK    6  A    between atoms: C_14  and  C_18
REMARK                            x       y       z     vdW  Elec       q    Type
REMARK                         _______ _______ _______ _____ _____    ______ ____
ROOT
ATOM      2  O   UNL     1      -0.674   3.047  26.528  0.00  0.00    -0.371 OA
ATOM      9  C   UNL     1       0.321   1.726  24.822  0.00  0.00    +0.111 C 
ATOM     10  C   UNL     1      -0.352   2.930  24.189  0.00  0.00    +0.164 C 
ATOM     11  C   UNL     1      -0.442   3.876  25.378  0.00  0.00    +0.165 C 
ATOM     12  C   UNL     1      -0.355   1.687  26.183  0.00  0.00    +0.181 C 
ENDROOT
BRANCH  10   3
ATOM      3  O   UNL     1       0.406   3.484  23.130  0.00  0.00    -0.388 OA
ATOM     28  H   UNL     1       0.331   2.895  22.360  0.00  0.00    +0.210 HD
ENDBRANCH  10   3
BRANCH   9   6
ATOM      6  N   UNL     1       0.145   0.496  24.069  0.00  0.00    -0.305 NA
ATOM     26  H   UNL     1       1.028   0.255  23.615  0.00  0.00    +0.123 HD
BRANCH   6  14
ATOM     14  C   UNL     1      -0.251  -0.603  24.941  0.00  0.00    +0.116 C 
BRANCH  14  18
ATOM      1  F   UNL     1      -5.347  -2.606  23.609  0.00  0.00    -0.205 F 
ATOM     18  C   UNL     1      -1.612  -1.138  24.586  0.00  0.00    -0.033 A 
ATOM     21  C   UNL     1      -1.852  -2.512  24.619  0.00  0.00    +0.008 A 
ATOM     22  C   UNL     1      -2.634  -0.261  24.222  0.00  0.00    +0.008 A 
ATOM     23  C   UNL     1      -3.113  -3.007  24.289  0.00  0.00    +0.038 A 
ATOM     24  C   UNL     1      -3.895  -0.756  23.892  0.00  0.00    +0.038 A 
ATOM     25  C   UNL     1      -4.135  -2.130  23.926  0.00  0.00    +0.123 A 
ENDBRANCH  14  18
ENDBRANCH   6  14
ENDBRANCH   9   6
BRANCH  11  13
ATOM     13  C   UNL     1      -1.557   4.899  25.249  0.00  0.00    +0.140 C 
BRANCH  13   7
ATOM      4  O   UNL     1      -6.987   1.571  26.046  0.00  0.00    -0.377 OA
ATOM      5  O   UNL     1      -3.210   3.470  23.475  0.00  0.00    -0.253 OA
ATOM      7  N   UNL     1      -2.843   4.323  25.573  0.00  0.00    -0.297 N 
ATOM      8  N   UNL     1      -4.831   3.135  25.099  0.00  0.00    -0.281 N 
ATOM     15  C   UNL     1      -3.600   3.629  24.637  0.00  0.00    +0.302 C 
ATOM     16  C   UNL     1      -5.697   2.398  24.177  0.00  0.00    +0.137 C 
ATOM     17  C   UNL     1      -5.436   3.407  26.411  0.00  0.00    +0.137 C 
ATOM     19  C   UNL     1      -6.303   1.178  24.854  0.00  0.00    +0.179 C 
ATOM     20  C   UNL     1      -6.079   2.148  26.985  0.00  0.00    +0.179 C 
ATOM     27  H   UNL     1      -3.169   4.470  26.517  0.00  0.00    +0.150 HD
ENDBRANCH  13   7
ENDBRANCH  11  13
TORSDOF 6
ENDMDL
MODEL 6
REMARK VINA RESULT:      -3.6      2.640      6.264
REMARK  Name = 75536752
REMARK  6 active torsions:
REMARK  status: ('A' for Active; 'I' for Inactive)
REMARK    1  A    between atoms: O_3  and  C_10
REMARK    2  A    between atoms: N_6  and  C_9
REMARK    3  A    between atoms: N_6  and  C_14
REMARK    4  A    between atoms: N_7  and  C_13
REMARK    5  A    between atoms: C_11  and  C_13
REMARK    6  A    between atoms: C_14  and  C_18
REMARK                            x       y       z     vdW  Elec       q    Type
REMARK                         _______ _______ _______ _____ _____    ______ ____
ROOT
ATOM      2  O   UNL     1      -2.974   3.983  23.418  0.00  0.00    -0.371 OA
ATOM      9  C   UNL     1      -4.908   3.131  24.501  0.00  0.00    +0.111 C 
ATOM     10  C   UNL     1      -3.869   3.483  25.549  0.00  0.00    +0.164 C 
ATOM     11  C   UNL     1      -2.989   4.456  24.775  0.00  0.00    +0.165 C 
ATOM     12  C   UNL     1      -4.054   3.049  23.247  0.00  0.00    +0.181 C 
ENDROOT
BRANCH  10   3
ATOM      3  O   UNL     1      -4.434   4.083  26.699  0.00  0.00    -0.388 OA
ATOM     28  H   UNL     1      -5.397   4.136  26.573  0.00  0.00    +0.210 HD
ENDBRANCH  10   3
BRANCH   9   6
ATOM      6  N   UNL     1      -5.622   1.896  24.780  0.00  0.00    -0.305 NA
ATOM     26  H   UNL     1      -5.658   1.333  23.930  0.00  0.00    +0.123 HD
BRANCH   6  14
ATOM     14  C   UNL     1      -4.957   1.129  25.827  0.00  0.00    +0.116 C 
BRANCH  14  18
ATOM      1  F   UNL     1      -2.943  -3.762  23.885  0.00  0.00    -0.205 F 
ATOM     18  C   UNL     1      -4.419  -0.177  25.308  0.00  0.00    -0.033 A 
ATOM     21  C   UNL     1      -3.712  -1.028  26.159  0.00  0.00    +0.008 A 
ATOM     22  C   UNL     1      -4.625  -0.538  23.977  0.00  0.00    +0.008 A 
ATOM     23  C   UNL     1      -3.214  -2.238  25.678  0.00  0.00    +0.038 A 
ATOM     24  C   UNL     1      -4.127  -1.748  23.496  0.00  0.00    +0.038 A 
ATOM     25  C   UNL     1      -3.421  -2.600  24.347  0.00  0.00    +0.123 A 
ENDBRANCH  14  18
ENDBRANCH   6  14
ENDBRANCH   9   6
BRANCH  11  13
ATOM     13  C   UNL     1      -1.570   4.537  25.307  0.00  0.00    +0.140 C 
BRANCH  13   7
ATOM      4  O   UNL     1       1.145  -0.901  23.243  0.00  0.00    -0.377 OA
ATOM      5  O   UNL     1      -1.817   1.848  26.099  0.00  0.00    -0.253 OA
ATOM      7  N   UNL     1      -0.761   3.439  24.827  0.00  0.00    -0.297 N 
ATOM      8  N   UNL     1      -0.079   1.178  24.716  0.00  0.00    -0.281 N 
ATOM     15  C   UNL     1      -0.947   2.134  25.269  0.00  0.00    +0.302 C 
ATOM     16  C   UNL     1      -0.199  -0.221  25.132  0.00  0.00    +0.137 C 
ATOM     17  C   UNL     1       1.072   1.453  23.845  0.00  0.00    +0.137 C 
ATOM     19  C   UNL     1      -0.076  -1.157  23.940  0.00  0.00    +0.179 C 
ATOM     20  C   UNL     1       1.159   0.428  22.719  0.00  0.00    +0.179 C 
ATOM     27  H   UNL     1      -0.040   3.678  24.163  0.00  0.00    +0.150 HD
ENDBRANCH  13   7
ENDBRANCH  11  13
TORSDOF 6
ENDMDL
MODEL 7
REMARK VINA RESULT:      -3.3      1.923      4.100
REMARK  Name = 75536752
REMARK  6 active torsions:
REMARK  status: ('A' for Active; 'I' for Inactive)
REMARK    1  A    between atoms: O_3  and  C_10
REMARK    2  A    between atoms: N_6  and  C_9
REMARK    3  A    between atoms: N_6  and  C_14
REMARK    4  A    between atoms: N_7  and  C_13
REMARK    5  A    between atoms: C_11  and  C_13
REMARK    6  A    between atoms: C_14  and  C_18
REMARK                            x       y       z     vdW  Elec       q    Type
REMARK                         _______ _______ _______ _____ _____    ______ ____
ROOT
ATOM      2  O   UNL     1      -1.806  -1.290  26.546  0.00  0.00    -0.371 OA
ATOM      9  C   UNL     1      -3.346  -2.399  25.117  0.00  0.00    +0.111 C 
ATOM     10  C   UNL     1      -2.069  -2.118  24.346  0.00  0.00    +0.164 C 
ATOM     11  C   UNL     1      -1.075  -1.927  25.484  0.00  0.00    +0.165 C 
ATOM     12  C   UNL     1      -3.212  -1.431  26.281  0.00  0.00    +0.181 C 
ENDROOT
BRANCH  10   3
ATOM      3  O   UNL     1      -1.699  -3.187  23.496  0.00  0.00    -0.388 OA
ATOM     28  H   UNL     1      -2.487  -3.730  23.327  0.00  0.00    +0.210 HD
ENDBRANCH  10   3
BRANCH   9   6
ATOM      6  N   UNL     1      -4.555  -2.185  24.340  0.00  0.00    -0.305 NA
ATOM     26  H   UNL     1      -5.311  -1.911  24.969  0.00  0.00    +0.123 HD
BRANCH   6  14
ATOM     14  C   UNL     1      -4.363  -1.132  23.349  0.00  0.00    +0.116 C 
BRANCH  14  18
ATOM      1  F   UNL     1      -4.985   4.000  25.590  0.00  0.00    -0.205 F 
ATOM     18  C   UNL     1      -4.529   0.238  23.947  0.00  0.00    -0.033 A 
ATOM     21  C   UNL     1      -3.591   1.236  23.678  0.00  0.00    +0.008 A 
ATOM     22  C   UNL     1      -5.620   0.512  24.772  0.00  0.00    +0.008 A 
ATOM     23  C   UNL     1      -3.746   2.506  24.233  0.00  0.00    +0.038 A 
ATOM     24  C   UNL     1      -5.774   1.782  25.327  0.00  0.00    +0.038 A 
ATOM     25  C   UNL     1      -4.837   2.780  25.057  0.00  0.00    +0.123 A 
ENDBRANCH  14  18
ENDBRANCH   6  14
ENDBRANCH   9   6
BRANCH  11  13
ATOM     13  C   UNL     1       0.120  -1.074  25.100  0.00  0.00    +0.140 C 
BRANCH  13   7
ATOM      4  O   UNL     1      -1.227   5.201  25.215  0.00  0.00    -0.377 OA
ATOM      5  O   UNL     1       0.645   1.035  23.311  0.00  0.00    -0.253 OA
ATOM      7  N   UNL     1      -0.126   0.328  25.354  0.00  0.00    -0.297 N 
ATOM      8  N   UNL     1      -0.127   2.629  24.809  0.00  0.00    -0.281 N 
ATOM     15  C   UNL     1       0.162   1.312  24.414  0.00  0.00    +0.302 C 
ATOM     16  C   UNL     1       0.152   3.729  23.884  0.00  0.00    +0.137 C 
ATOM     17  C   UNL     1      -0.557   3.058  26.147  0.00  0.00    +0.137 C 
ATOM     19  C   UNL     1      -0.981   4.742  23.884  0.00  0.00    +0.179 C 
ATOM     20  C   UNL     1      -1.645   4.122  26.053  0.00  0.00    +0.179 C 
ATOM     27  H   UNL     1      -0.504   0.554  26.262  0.00  0.00    +0.150 HD
ENDBRANCH  13   7
ENDBRANCH  11  13
TORSDOF 6
ENDMDL
MODEL 8
REMARK VINA RESULT:      -1.9      2.797      3.489
REMARK  Name = 75536752
REMARK  6 active torsions:
REMARK  status: ('A' for Active; 'I' for Inactive)
REMARK    1  A    between atoms: O_3  and  C_10
REMARK    2  A    between atoms: N_6  and  C_9
REMARK    3  A    between atoms: N_6  and  C_14
REMARK    4  A    between atoms: N_7  and  C_13
REMARK    5  A    between atoms: C_11  and  C_13
REMARK    6  A    between atoms: C_14  and  C_18
REMARK                            x       y       z     vdW  Elec       q    Type
REMARK                         _______ _______ _______ _____ _____    ______ ____
ROOT
ATOM      2  O   UNL     1      -2.827  -2.713  23.720  0.00  0.00    -0.371 OA
ATOM      9  C   UNL     1      -0.921  -2.198  25.042  0.00  0.00    +0.111 C 
ATOM     10  C   UNL     1      -1.945  -1.088  25.195  0.00  0.00    +0.164 C 
ATOM     11  C   UNL     1      -3.218  -1.800  24.759  0.00  0.00    +0.165 C 
ATOM     12  C   UNL     1      -1.398  -2.871  23.766  0.00  0.00    +0.181 C 
ENDROOT
BRANCH  10   3
ATOM      3  O   UNL     1      -2.036  -0.609  26.523  0.00  0.00    -0.388 OA
ATOM     28  H   UNL     1      -2.834  -0.058  26.595  0.00  0.00    +0.210 HD
ENDBRANCH  10   3
BRANCH   9   6
ATOM      6  N   UNL     1       0.448  -1.720  24.952  0.00  0.00    -0.305 NA
ATOM     26  H   UNL     1       1.077  -2.522  24.896  0.00  0.00    +0.123 HD
BRANCH   6  14
ATOM     14  C   UNL     1       0.638  -0.889  23.768  0.00  0.00    +0.116 C 
BRANCH  14  18
ATOM      1  F   UNL     1       6.072   0.325  22.905  0.00  0.00    -0.205 F 
ATOM     18  C   UNL     1       2.089  -0.564  23.538  0.00  0.00    -0.033 A 
ATOM     21  C   UNL     1       2.448   0.656  22.964  0.00  0.00    +0.008 A 
ATOM     22  C   UNL     1       3.075  -1.483  23.896  0.00  0.00    +0.008 A 
ATOM     23  C   UNL     1       3.794   0.956  22.750  0.00  0.00    +0.038 A 
ATOM     24  C   UNL     1       4.420  -1.183  23.683  0.00  0.00    +0.038 A 
ATOM     25  C   UNL     1       4.780   0.038  23.110  0.00  0.00    +0.123 A 
ENDBRANCH  14  18
ENDBRANCH   6  14
ENDBRANCH   9   6
BRANCH  11  13
ATOM     13  C   UNL     1      -4.287  -0.856  24.238  0.00  0.00    +0.140 C 
BRANCH  13   7
ATOM      4  O   UNL     1      -2.483   5.214  25.288  0.00  0.00    -0.377 OA
ATOM      5  O   UNL     1      -5.369   1.226  25.791  0.00  0.00    -0.253 OA
ATOM      7  N   UNL     1      -3.830   0.516  24.245  0.00  0.00    -0.297 N 
ATOM      8  N   UNL     1      -3.871   2.776  24.936  0.00  0.00    -0.281 N 
ATOM     15  C   UNL     1      -4.420   1.488  25.044  0.00  0.00    +0.302 C 
ATOM     16  C   UNL     1      -4.437   3.864  25.737  0.00  0.00    +0.137 C 
ATOM     17  C   UNL     1      -2.850   3.205  23.969  0.00  0.00    +0.137 C 
ATOM     19  C   UNL     1      -3.339   4.735  26.327  0.00  0.00    +0.179 C 
ATOM     20  C   UNL     1      -1.830   4.128  24.629  0.00  0.00    +0.179 C 
ATOM     27  H   UNL     1      -3.067   0.732  23.621  0.00  0.00    +0.150 HD
ENDBRANCH  13   7
ENDBRANCH  11  13
TORSDOF 6
ENDMDL
MODEL 9
REMARK VINA RESULT:      -1.4      3.296      6.188
REMARK  Name = 75536752
REMARK  6 active torsions:
REMARK  status: ('A' for Active; 'I' for Inactive)
REMARK    1  A    between atoms: O_3  and  C_10
REMARK    2  A    between atoms: N_6  and  C_9
REMARK    3  A    between atoms: N_6  and  C_14
REMARK    4  A    between atoms: N_7  and  C_13
REMARK    5  A    between atoms: C_11  and  C_13
REMARK    6  A    between atoms: C_14  and  C_18
REMARK                            x       y       z     vdW  Elec       q    Type
REMARK                         _______ _______ _______ _____ _____    ______ ____
ROOT
ATOM      2  O   UNL     1      -0.658  -0.420  25.394  0.00  0.00    -0.371 OA
ATOM      9  C   UNL     1      -3.014  -0.698  25.509  0.00  0.00    +0.111 C 
ATOM     10  C   UNL     1      -2.618  -0.417  24.071  0.00  0.00    +0.164 C 
ATOM     11  C   UNL     1      -1.143  -0.794  24.094  0.00  0.00    +0.165 C 
ATOM     12  C   UNL     1      -1.787  -0.208  26.259  0.00  0.00    +0.181 C 
ENDROOT
BRANCH  10   3
ATOM      3  O   UNL     1      -3.347  -1.197  23.142  0.00  0.00    -0.388 OA
ATOM     28  H   UNL     1      -2.714  -1.691  22.594  0.00  0.00    +0.210 HD
ENDBRANCH  10   3
BRANCH   9   6
ATOM      6  N   UNL     1      -4.235  -0.025  25.920  0.00  0.00    -0.305 NA
ATOM     26  H   UNL     1      -4.080   0.422  26.824  0.00  0.00    +0.123 HD
BRANCH   6  14
ATOM     14  C   UNL     1      -4.624   0.994  24.951  0.00  0.00    +0.116 C 
BRANCH  14  18
ATOM      1  F   UNL     1      -1.459   5.634  25.396  0.00  0.00    -0.205 F 
ATOM     18  C   UNL     1      -3.779   2.233  25.070  0.00  0.00    -0.033 A 
ATOM     21  C   UNL     1      -3.981   3.116  26.131  0.00  0.00    +0.008 A 
ATOM     22  C   UNL     1      -2.794   2.499  24.120  0.00  0.00    +0.008 A 
ATOM     23  C   UNL     1      -3.198   4.265  26.241  0.00  0.00    +0.038 A 
ATOM     24  C   UNL     1      -2.010   3.648  24.229  0.00  0.00    +0.038 A 
ATOM     25  C   UNL     1      -2.212   4.531  25.291  0.00  0.00    +0.123 A 
ENDBRANCH  14  18
ENDBRANCH   6  14
ENDBRANCH   9   6
BRANCH  11  13
ATOM     13  C   UNL     1      -0.328  -0.095  23.021  0.00  0.00    +0.140 C 
BRANCH  13   7
ATOM      4  O   UNL     1       5.984  -0.819  23.938  0.00  0.00    -0.377 OA
ATOM      5  O   UNL     1       1.834   1.707  22.998  0.00  0.00    -0.253 OA
ATOM      7  N   UNL     1       1.071  -0.454  23.101  0.00  0.00    -0.297 N 
ATOM      8  N   UNL     1       3.391  -0.005  23.161  0.00  0.00    -0.281 N 
ATOM     15  C   UNL     1       2.082   0.499  23.083  0.00  0.00    +0.302 C 
ATOM     16  C   UNL     1       4.518   0.929  23.141  0.00  0.00    +0.137 C 
ATOM     17  C   UNL     1       3.778  -1.422  23.112  0.00  0.00    +0.137 C 
ATOM     19  C   UNL     1       5.574   0.532  24.160  0.00  0.00    +0.179 C 
ATOM     20  C   UNL     1       4.887  -1.717  24.117  0.00  0.00    +0.179 C 
ATOM     27  H   UNL     1       1.272  -1.442  23.152  0.00  0.00    +0.150 HD
ENDBRANCH  13   7
ENDBRANCH  11  13
TORSDOF 6
ENDMDL
MODEL 10
REMARK VINA RESULT:      -0.3      1.821      2.829
REMARK  Name = 75536752
REMARK  6 active torsions:
REMARK  status: ('A' for Active; 'I' for Inactive)
REMARK    1  A    between atoms: O_3  and  C_10
REMARK    2  A    between atoms: N_6  and  C_9
REMARK    3  A    between atoms: N_6  and  C_14
REMARK    4  A    between atoms: N_7  and  C_13
REMARK    5  A    between atoms: C_11  and  C_13
REMARK    6  A    between atoms: C_14  and  C_18
REMARK                            x       y       z     vdW  Elec       q    Type
REMARK                         _______ _______ _______ _____ _____    ______ ____
ROOT
ATOM      2  O   UNL     1      -0.253   0.007  22.969  0.00  0.00    -0.371 OA
ATOM      9  C   UNL     1       0.585   0.747  25.065  0.00  0.00    +0.111 C 
ATOM     10  C   UNL     1      -0.752   0.062  25.280  0.00  0.00    +0.164 C 
ATOM     11  C   UNL     1      -0.861  -0.773  24.011  0.00  0.00    +0.165 C 
ATOM     12  C   UNL     1       0.531   1.048  23.576  0.00  0.00    +0.181 C 
ENDROOT
BRANCH  10   3
ATOM      3  O   UNL     1      -0.772  -0.742  26.444  0.00  0.00    -0.388 OA
ATOM     28  H   UNL     1      -1.662  -0.695  26.832  0.00  0.00    +0.210 HD
ENDBRANCH  10   3
BRANCH   9   6
ATOM      6  N   UNL     1       0.767   1.938  25.876  0.00  0.00    -0.305 NA
ATOM     26  H   UNL     1       1.130   2.690  25.288  0.00  0.00    +0.123 HD
BRANCH   6  14
ATOM     14  C   UNL     1      -0.494   2.369  26.467  0.00  0.00    +0.116 C 
BRANCH  14  18
ATOM      1  F   UNL     1      -2.477   7.038  24.013  0.00  0.00    -0.205 F 
ATOM     18  C   UNL     1      -1.024   3.616  25.812  0.00  0.00    -0.033 A 
ATOM     21  C   UNL     1      -0.258   4.278  24.851  0.00  0.00    +0.008 A 
ATOM     22  C   UNL     1      -2.279   4.112  26.165  0.00  0.00    +0.008 A 
ATOM     23  C   UNL     1      -0.750   5.433  24.244  0.00  0.00    +0.038 A 
ATOM     24  C   UNL     1      -2.770   5.267  25.558  0.00  0.00    +0.038 A 
ATOM     25  C   UNL     1      -2.005   5.929  24.596  0.00  0.00    +0.123 A 
ENDBRANCH  14  18
ENDBRANCH   6  14
ENDBRANCH   9   6
BRANCH  11  13
ATOM     13  C   UNL     1      -2.293  -1.107  23.634  0.00  0.00    +0.140 C 
BRANCH  13   7
ATOM      4  O   UNL     1      -6.116   3.646  25.631  0.00  0.00    -0.377 OA
ATOM      5  O   UNL     1      -4.287  -0.951  25.614  0.00  0.00    -0.253 OA
ATOM      7  N   UNL     1      -3.175   0.017  23.856  0.00  0.00    -0.297 N 
ATOM      8  N   UNL     1      -4.922   1.177  24.946  0.00  0.00    -0.281 N 
ATOM     15  C   UNL     1      -4.137   0.015  24.859  0.00  0.00    +0.302 C 
ATOM     16  C   UNL     1      -5.966   1.258  25.970  0.00  0.00    +0.137 C 
ATOM     17  C   UNL     1      -4.913   2.303  24.001  0.00  0.00    +0.137 C 
ATOM     19  C   UNL     1      -5.981   2.630  26.626  0.00  0.00    +0.179 C 
ATOM     20  C   UNL     1      -4.999   3.634  24.740  0.00  0.00    +0.179 C 
ATOM     27  H   UNL     1      -3.063   0.799  23.227  0.00  0.00    +0.150 HD
ENDBRANCH  13   7
ENDBRANCH  11  13
TORSDOF 6
ENDMDL
