MODEL 1
REMARK VINA RESULT:      -1.5      0.000      0.000
REMARK  Name = 45783797
REMARK  9 active torsions:
REMARK  status: ('A' for Active; 'I' for Inactive)
REMARK    1  A    between atoms: O_2  and  C_25
REMARK    2  A    between atoms: N_4  and  C_13
REMARK    3  A    between atoms: N_8  and  C_27
REMARK    4  A    between atoms: N_8  and  C_28
REMARK    5  A    between atoms: N_8  and  C_29
REMARK    6  A    between atoms: C_9  and  C_14
REMARK    7  A    between atoms: C_13  and  C_15
REMARK    8  A    between atoms: C_18  and  C_21
REMARK    9  A    between atoms: C_22  and  C_25
REMARK                            x       y       z     vdW  Elec       q    Type
REMARK                         _______ _______ _______ _____ _____    ______ ____
ROOT
ATOM      4  N   UNL     1      14.483  -9.439  30.843  0.00  0.00    -0.287 NA
ATOM      9  C   UNL     1      14.763  -7.994  30.745  0.00  0.00    +0.146 C 
ATOM     10  C   UNL     1      15.461  -7.639  32.071  0.00  0.00    +0.030 C 
ATOM     11  C   UNL     1      15.473  -8.933  32.873  0.00  0.00    +0.017 C 
ATOM     12  C   UNL     1      14.339  -9.736  32.268  0.00  0.00    +0.085 C 
ENDROOT
BRANCH   9  14
ATOM      1  O   UNL     1      16.732  -8.371  29.348  0.00  0.00    -0.336 OA
ATOM      5  N   UNL     1      15.395  -6.729  28.618  0.00  0.00    -0.190 NA
ATOM      6  N   UNL     1      17.329  -7.872  28.183  0.00  0.00    -0.056 NA
ATOM     14  C   UNL     1      15.600  -7.644  29.532  0.00  0.00    +0.245 A 
ATOM     18  C   UNL     1      16.482  -6.907  27.812  0.00  0.00    +0.204 A 
BRANCH  18  21
ATOM      7  N   UNL     1      16.736  -3.913  25.621  0.00  0.00    -0.240 NA
ATOM     21  C   UNL     1      16.690  -6.104  26.642  0.00  0.00    +0.041 A 
ATOM     23  C   UNL     1      17.038  -6.684  25.427  0.00  0.00    +0.016 A 
ATOM     24  C   UNL     1      16.553  -4.726  26.686  0.00  0.00    +0.124 A 
ATOM     26  C   UNL     1      17.234  -5.881  24.309  0.00  0.00    +0.044 A 
ATOM     27  C   UNL     1      17.071  -4.513  24.458  0.00  0.00    +0.121 A 
BRANCH  27   8
ATOM      8  N   UNL     1      17.275  -3.707  23.311  0.00  0.00    -0.321 N 
ATOM     28  C   UNL     1      17.405  -4.318  22.006  0.00  0.00    +0.130 C 
ATOM     29  C   UNL     1      17.348  -2.268  23.436  0.00  0.00    +0.130 C 
ENDBRANCH  27   8
ENDBRANCH  18  21
ENDBRANCH   9  14
BRANCH   4  13
ATOM     13  C   UNL     1      13.314  -9.851  30.076  0.00  0.00    +0.120 C 
BRANCH  13  15
ATOM     15  C   UNL     1      12.032  -9.415  30.733  0.00  0.00    -0.033 A 
ATOM     16  C   UNL     1      11.073 -10.364  31.088  0.00  0.00    +0.006 A 
ATOM     17  C   UNL     1      11.800  -8.063  30.985  0.00  0.00    +0.006 A 
ATOM     19  C   UNL     1       9.883  -9.961  31.697  0.00  0.00    +0.015 A 
ATOM     20  C   UNL     1      10.612  -7.659  31.592  0.00  0.00    +0.015 A 
ATOM     22  C   UNL     1       9.654  -8.608  31.949  0.00  0.00    +0.059 A 
BRANCH  22  25
ATOM      3  O   UNL     1       8.109  -7.021  32.852  0.00  0.00    -0.245 OA
ATOM     25  C   UNL     1       8.415  -8.187  32.583  0.00  0.00    +0.337 C 
BRANCH  25   2
ATOM      2  O   UNL     1       7.591  -9.234  32.864  0.00  0.00    -0.477 OA
ATOM     30  H   UNL     1       7.145  -9.573  32.058  0.00  0.00    +0.295 HD
ENDBRANCH  25   2
ENDBRANCH  22  25
ENDBRANCH  13  15
ENDBRANCH   4  13
TORSDOF 7
ENDMDL
MODEL 2
REMARK VINA RESULT:      -0.4     16.731     19.261
REMARK  Name = 45783797
REMARK  9 active torsions:
REMARK  status: ('A' for Active; 'I' for Inactive)
REMARK    1  A    between atoms: O_2  and  C_25
REMARK    2  A    between atoms: N_4  and  C_13
REMARK    3  A    between atoms: N_8  and  C_27
REMARK    4  A    between atoms: N_8  and  C_28
REMARK    5  A    between atoms: N_8  and  C_29
REMARK    6  A    between atoms: C_9  and  C_14
REMARK    7  A    between atoms: C_13  and  C_15
REMARK    8  A    between atoms: C_18  and  C_21
REMARK    9  A    between atoms: C_22  and  C_25
REMARK                            x       y       z     vdW  Elec       q    Type
REMARK                         _______ _______ _______ _____ _____    ______ ____
ROOT
ATOM      4  N   UNL     1      -5.554   2.481  25.499  0.00  0.00    -0.287 NA
ATOM      9  C   UNL     1      -4.669   3.123  24.507  0.00  0.00    +0.146 C 
ATOM     10  C   UNL     1      -4.918   4.633  24.680  0.00  0.00    +0.030 C 
ATOM     11  C   UNL     1      -6.000   4.738  25.746  0.00  0.00    +0.017 C 
ATOM     12  C   UNL     1      -6.686   3.388  25.692  0.00  0.00    +0.085 C 
ENDROOT
BRANCH   9  14
ATOM      1  O   UNL     1      -2.654   3.068  25.888  0.00  0.00    -0.336 OA
ATOM      5  N   UNL     1      -2.400   2.146  23.863  0.00  0.00    -0.190 NA
ATOM      6  N   UNL     1      -1.325   2.627  25.824  0.00  0.00    -0.056 NA
ATOM     14  C   UNL     1      -3.215   2.746  24.693  0.00  0.00    +0.245 A 
ATOM     18  C   UNL     1      -1.253   2.096  24.601  0.00  0.00    +0.204 A 
BRANCH  18  21
ATOM      7  N   UNL     1       2.330   1.669  23.702  0.00  0.00    -0.240 NA
ATOM     21  C   UNL     1      -0.051   1.506  24.085  0.00  0.00    +0.041 A 
ATOM     23  C   UNL     1      -0.068   0.250  23.489  0.00  0.00    +0.016 A 
ATOM     24  C   UNL     1       1.163   2.168  24.167  0.00  0.00    +0.124 A 
ATOM     26  C   UNL     1       1.113  -0.297  22.998  0.00  0.00    +0.044 A 
ATOM     27  C   UNL     1       2.274   0.447  23.127  0.00  0.00    +0.121 A 
BRANCH  27   8
ATOM      8  N   UNL     1       3.470  -0.123  22.624  0.00  0.00    -0.321 N 
ATOM     28  C   UNL     1       3.930   0.210  21.294  0.00  0.00    +0.130 C 
ATOM     29  C   UNL     1       4.240  -1.036  23.440  0.00  0.00    +0.130 C 
ENDBRANCH  27   8
ENDBRANCH  18  21
ENDBRANCH   9  14
BRANCH   4  13
ATOM     13  C   UNL     1      -5.982   1.145  25.107  0.00  0.00    +0.120 C 
BRANCH  13  15
ATOM     15  C   UNL     1      -4.822   0.191  25.006  0.00  0.00    -0.033 A 
ATOM     16  C   UNL     1      -4.559  -0.461  23.800  0.00  0.00    +0.006 A 
ATOM     17  C   UNL     1      -4.010  -0.042  26.115  0.00  0.00    +0.006 A 
ATOM     19  C   UNL     1      -3.483  -1.345  23.705  0.00  0.00    +0.015 A 
ATOM     20  C   UNL     1      -2.935  -0.925  26.022  0.00  0.00    +0.015 A 
ATOM     22  C   UNL     1      -2.671  -1.576  24.816  0.00  0.00    +0.059 A 
BRANCH  22  25
ATOM      3  O   UNL     1      -0.550  -2.487  25.442  0.00  0.00    -0.245 OA
ATOM     25  C   UNL     1      -1.550  -2.497  24.718  0.00  0.00    +0.337 C 
BRANCH  25   2
ATOM      2  O   UNL     1      -1.709  -3.407  23.718  0.00  0.00    -0.477 OA
ATOM     30  H   UNL     1      -2.350  -3.098  23.042  0.00  0.00    +0.295 HD
ENDBRANCH  25   2
ENDBRANCH  22  25
ENDBRANCH  13  15
ENDBRANCH   4  13
TORSDOF 7
ENDMDL
MODEL 3
REMARK VINA RESULT:       0.2     16.423     18.805
REMARK  Name = 45783797
REMARK  9 active torsions:
REMARK  status: ('A' for Active; 'I' for Inactive)
REMARK    1  A    between atoms: O_2  and  C_25
REMARK    2  A    between atoms: N_4  and  C_13
REMARK    3  A    between atoms: N_8  and  C_27
REMARK    4  A    between atoms: N_8  and  C_28
REMARK    5  A    between atoms: N_8  and  C_29
REMARK    6  A    between atoms: C_9  and  C_14
REMARK    7  A    between atoms: C_13  and  C_15
REMARK    8  A    between atoms: C_18  and  C_21
REMARK    9  A    between atoms: C_22  and  C_25
REMARK                            x       y       z     vdW  Elec       q    Type
REMARK                         _______ _______ _______ _____ _____    ______ ____
ROOT
ATOM      4  N   UNL     1      -3.891   3.116  25.699  0.00  0.00    -0.287 NA
ATOM      9  C   UNL     1      -3.414   3.584  24.382  0.00  0.00    +0.146 C 
ATOM     10  C   UNL     1      -2.883   5.006  24.640  0.00  0.00    +0.030 C 
ATOM     11  C   UNL     1      -3.159   5.272  26.114  0.00  0.00    +0.017 C 
ATOM     12  C   UNL     1      -4.284   4.312  26.444  0.00  0.00    +0.085 C 
ENDROOT
BRANCH   9  14
ATOM      1  O   UNL     1      -2.724   1.993  22.660  0.00  0.00    -0.336 OA
ATOM      5  N   UNL     1      -1.148   2.423  24.192  0.00  0.00    -0.190 NA
ATOM      6  N   UNL     1      -1.610   1.224  22.299  0.00  0.00    -0.056 NA
ATOM     14  C   UNL     1      -2.367   2.668  23.783  0.00  0.00    +0.245 A 
ATOM     18  C   UNL     1      -0.723   1.532  23.250  0.00  0.00    +0.204 A 
BRANCH  18  21
ATOM      7  N   UNL     1       2.983   1.307  23.454  0.00  0.00    -0.240 NA
ATOM     21  C   UNL     1       0.595   0.967  23.287  0.00  0.00    +0.041 A 
ATOM     23  C   UNL     1       0.790  -0.407  23.200  0.00  0.00    +0.016 A 
ATOM     24  C   UNL     1       1.715   1.774  23.412  0.00  0.00    +0.124 A 
ATOM     26  C   UNL     1       2.080  -0.925  23.239  0.00  0.00    +0.044 A 
ATOM     27  C   UNL     1       3.132  -0.034  23.365  0.00  0.00    +0.121 A 
BRANCH  27   8
ATOM      8  N   UNL     1       4.441  -0.576  23.404  0.00  0.00    -0.321 N 
ATOM     28  C   UNL     1       4.641  -1.964  23.760  0.00  0.00    +0.130 C 
ATOM     29  C   UNL     1       5.582   0.251  23.083  0.00  0.00    +0.130 C 
ENDBRANCH  27   8
ENDBRANCH  18  21
ENDBRANCH   9  14
BRANCH   4  13
ATOM     13  C   UNL     1      -4.975   2.147  25.607  0.00  0.00    +0.120 C 
BRANCH  13  15
ATOM     15  C   UNL     1      -4.470   0.775  25.247  0.00  0.00    -0.033 A 
ATOM     16  C   UNL     1      -5.114   0.034  24.255  0.00  0.00    +0.006 A 
ATOM     17  C   UNL     1      -3.360   0.244  25.903  0.00  0.00    +0.006 A 
ATOM     19  C   UNL     1      -4.647  -1.238  23.920  0.00  0.00    +0.015 A 
ATOM     20  C   UNL     1      -2.894  -1.027  25.570  0.00  0.00    +0.015 A 
ATOM     22  C   UNL     1      -3.537  -1.768  24.578  0.00  0.00    +0.059 A 
BRANCH  22  25
ATOM      3  O   UNL     1      -3.757  -4.078  24.000  0.00  0.00    -0.245 OA
ATOM     25  C   UNL     1      -3.050  -3.092  24.229  0.00  0.00    +0.337 C 
BRANCH  25   2
ATOM      2  O   UNL     1      -1.691  -3.150  24.175  0.00  0.00    -0.477 OA
ATOM     30  H   UNL     1      -1.278  -2.822  25.004  0.00  0.00    +0.295 HD
ENDBRANCH  25   2
ENDBRANCH  22  25
ENDBRANCH  13  15
ENDBRANCH   4  13
TORSDOF 7
ENDMDL
