MODEL 1
REMARK VINA RESULT:      -5.1      0.000      0.000
REMARK  Name = 75537110
REMARK  3 active torsions:
REMARK  status: ('A' for Active; 'I' for Inactive)
REMARK    1  A    between atoms: N_3  and  C_13
REMARK    2  A    between atoms: N_4  and  C_14
REMARK    3  A    between atoms: C_13  and  C_15
REMARK                            x       y       z     vdW  Elec       q    Type
REMARK                         _______ _______ _______ _____ _____    ______ ____
ROOT
ATOM      1  O   UNL     1      -2.842   3.433  25.519  0.00  0.00    -0.252 OA
ATOM      2  N   UNL     1      -1.370   1.696  24.942  0.00  0.00    -0.278 N 
ATOM      3  N   UNL     1       0.801   0.391  23.719  0.00  0.00    -0.292 NA
ATOM      4  N   UNL     1      -3.575   1.266  24.945  0.00  0.00    -0.287 N 
ATOM      7  C   UNL     1      -1.464   0.275  24.675  0.00  0.00    +0.109 C 
ATOM      8  C   UNL     1      -0.573  -0.104  23.494  0.00  0.00    +0.109 C 
ATOM      9  C   UNL     1      -2.958   0.046  24.453  0.00  0.00    +0.132 C 
ATOM     10  C   UNL     1      -0.065   2.314  25.036  0.00  0.00    +0.125 C 
ATOM     11  C   UNL     1       0.813   1.861  23.866  0.00  0.00    +0.104 C 
ATOM     12  C   UNL     1      -2.623   2.278  25.182  0.00  0.00    +0.305 C 
ATOM     14  C   UNL     1      -5.011   1.423  25.017  0.00  0.00    +0.133 C 
ENDROOT
BRANCH   3  13
ATOM     13  C   UNL     1       1.676  -0.019  22.622  0.00  0.00    +0.158 C 
BRANCH  13  15
ATOM      5  N   UNL     1       3.707  -1.129  23.580  0.00  0.00    -0.347 N 
ATOM      6  N   UNL     1       3.975   0.976  22.927  0.00  0.00    -0.239 NA
ATOM     15  C   UNL     1       3.125  -0.021  23.032  0.00  0.00    +0.121 A 
ATOM     16  C   UNL     1       5.012  -0.819  23.842  0.00  0.00    +0.104 A 
ATOM     17  C   UNL     1       5.154   0.485  23.430  0.00  0.00    +0.130 A 
ATOM     18  H   UNL     1       3.256  -2.018  23.760  0.00  0.00    +0.167 HD
ENDBRANCH  13  15
ENDBRANCH   3  13
TORSDOF 2
ENDMDL
MODEL 2
REMARK VINA RESULT:      -4.6      1.645      2.985
REMARK  Name = 75537110
REMARK  3 active torsions:
REMARK  status: ('A' for Active; 'I' for Inactive)
REMARK    1  A    between atoms: N_3  and  C_13
REMARK    2  A    between atoms: N_4  and  C_14
REMARK    3  A    between atoms: C_13  and  C_15
REMARK                            x       y       z     vdW  Elec       q    Type
REMARK                         _______ _______ _______ _____ _____    ______ ____
ROOT
ATOM      1  O   UNL     1      -5.736   1.234  25.717  0.00  0.00    -0.252 OA
ATOM      2  N   UNL     1      -3.665   1.700  24.710  0.00  0.00    -0.278 N 
ATOM      3  N   UNL     1      -0.897   1.588  24.225  0.00  0.00    -0.292 NA
ATOM      4  N   UNL     1      -5.046   3.416  25.148  0.00  0.00    -0.287 N 
ATOM      7  C   UNL     1      -3.005   2.854  24.134  0.00  0.00    +0.109 C 
ATOM      8  C   UNL     1      -1.533   2.883  24.541  0.00  0.00    +0.109 C 
ATOM      9  C   UNL     1      -3.835   4.034  24.637  0.00  0.00    +0.132 C 
ATOM     10  C   UNL     1      -3.049   0.396  24.586  0.00  0.00    +0.125 C 
ATOM     11  C   UNL     1      -1.563   0.484  24.946  0.00  0.00    +0.104 C 
ATOM     12  C   UNL     1      -4.921   2.016  25.247  0.00  0.00    +0.305 C 
ATOM     14  C   UNL     1      -6.162   4.201  25.628  0.00  0.00    +0.133 C 
ENDROOT
BRANCH   3  13
ATOM     13  C   UNL     1       0.527   1.625  24.555  0.00  0.00    +0.158 C 
BRANCH  13  15
ATOM      5  N   UNL     1       2.680   1.221  23.340  0.00  0.00    -0.347 N 
ATOM      6  N   UNL     1       0.963  -0.038  22.709  0.00  0.00    -0.239 NA
ATOM     15  C   UNL     1       1.361   0.913  23.523  0.00  0.00    +0.121 A 
ATOM     16  C   UNL     1       3.154   0.413  22.345  0.00  0.00    +0.104 A 
ATOM     17  C   UNL     1       2.077  -0.355  21.971  0.00  0.00    +0.130 A 
ATOM     18  H   UNL     1       3.211   1.917  23.847  0.00  0.00    +0.167 HD
ENDBRANCH  13  15
ENDBRANCH   3  13
TORSDOF 2
ENDMDL
MODEL 3
REMARK VINA RESULT:      -4.0     16.578     17.412
REMARK  Name = 75537110
REMARK  3 active torsions:
REMARK  status: ('A' for Active; 'I' for Inactive)
REMARK    1  A    between atoms: N_3  and  C_13
REMARK    2  A    between atoms: N_4  and  C_14
REMARK    3  A    between atoms: C_13  and  C_15
REMARK                            x       y       z     vdW  Elec       q    Type
REMARK                         _______ _______ _______ _____ _____    ______ ____
ROOT
ATOM      1  O   UNL     1      -7.749  -7.921   8.436  0.00  0.00    -0.252 OA
ATOM      2  N   UNL     1      -6.567  -8.660  10.327  0.00  0.00    -0.278 N 
ATOM      3  N   UNL     1      -4.486  -9.784  11.850  0.00  0.00    -0.292 NA
ATOM      4  N   UNL     1      -8.755  -9.147  10.181  0.00  0.00    -0.287 N 
ATOM      7  C   UNL     1      -6.884  -9.293  11.591  0.00  0.00    +0.109 C 
ATOM      8  C   UNL     1      -5.844 -10.361  11.927  0.00  0.00    +0.109 C 
ATOM      9  C   UNL     1      -8.303  -9.820  11.386  0.00  0.00    +0.132 C 
ATOM     10  C   UNL     1      -5.220  -8.189  10.089  0.00  0.00    +0.125 C 
ATOM     11  C   UNL     1      -4.210  -9.267  10.494  0.00  0.00    +0.104 C 
ATOM     12  C   UNL     1      -7.697  -8.499   9.513  0.00  0.00    +0.305 C 
ATOM     14  C   UNL     1     -10.108  -9.286   9.688  0.00  0.00    +0.133 C 
ENDROOT
BRANCH   3  13
ATOM     13  C   UNL     1      -3.486 -10.781  12.228  0.00  0.00    +0.158 C 
BRANCH  13  15
ATOM      5  N   UNL     1      -1.835 -10.530  14.094  0.00  0.00    -0.347 N 
ATOM      6  N   UNL     1      -3.958 -10.755  14.706  0.00  0.00    -0.239 NA
ATOM     15  C   UNL     1      -3.129 -10.692  13.688  0.00  0.00    +0.121 A 
ATOM     16  C   UNL     1      -1.837 -10.486  15.460  0.00  0.00    +0.104 A 
ATOM     17  C   UNL     1      -3.159 -10.626  15.815  0.00  0.00    +0.130 A 
ATOM     18  H   UNL     1      -1.022 -10.454  13.496  0.00  0.00    +0.167 HD
ENDBRANCH  13  15
ENDBRANCH   3  13
TORSDOF 2
ENDMDL
MODEL 4
REMARK VINA RESULT:      -3.8      1.933      3.159
REMARK  Name = 75537110
REMARK  3 active torsions:
REMARK  status: ('A' for Active; 'I' for Inactive)
REMARK    1  A    between atoms: N_3  and  C_13
REMARK    2  A    between atoms: N_4  and  C_14
REMARK    3  A    between atoms: C_13  and  C_15
REMARK                            x       y       z     vdW  Elec       q    Type
REMARK                         _______ _______ _______ _____ _____    ______ ____
ROOT
ATOM      1  O   UNL     1      -5.861   4.208  25.751  0.00  0.00    -0.252 OA
ATOM      2  N   UNL     1      -3.750   3.184  25.636  0.00  0.00    -0.278 N 
ATOM      3  N   UNL     1      -0.996   2.894  25.142  0.00  0.00    -0.292 NA
ATOM      4  N   UNL     1      -5.535   2.023  24.925  0.00  0.00    -0.287 N 
ATOM      7  C   UNL     1      -3.227   1.870  25.322  0.00  0.00    +0.109 C 
ATOM      8  C   UNL     1      -1.958   1.991  24.479  0.00  0.00    +0.109 C 
ATOM      9  C   UNL     1      -4.396   1.172  24.629  0.00  0.00    +0.132 C 
ATOM     10  C   UNL     1      -2.855   4.197  26.156  0.00  0.00    +0.125 C 
ATOM     11  C   UNL     1      -1.574   4.242  25.318  0.00  0.00    +0.104 C 
ATOM     12  C   UNL     1      -5.141   3.258  25.476  0.00  0.00    +0.305 C 
ATOM     14  C   UNL     1      -6.881   1.661  24.538  0.00  0.00    +0.133 C 
ENDROOT
BRANCH   3  13
ATOM     13  C   UNL     1       0.246   2.969  24.373  0.00  0.00    +0.158 C 
BRANCH  13  15
ATOM      5  N   UNL     1       1.943   1.364  23.468  0.00  0.00    -0.347 N 
ATOM      6  N   UNL     1      -0.129   0.584  23.641  0.00  0.00    -0.239 NA
ATOM     15  C   UNL     1       0.651   1.624  23.830  0.00  0.00    +0.121 A 
ATOM     16  C   UNL     1       1.990   0.075  23.019  0.00  0.00    +0.104 A 
ATOM     17  C   UNL     1       0.700  -0.387  23.136  0.00  0.00    +0.130 A 
ATOM     18  H   UNL     1       2.723   2.007  23.523  0.00  0.00    +0.167 HD
ENDBRANCH  13  15
ENDBRANCH   3  13
TORSDOF 2
ENDMDL
MODEL 5
REMARK VINA RESULT:      -3.8      3.919      4.955
REMARK  Name = 75537110
REMARK  3 active torsions:
REMARK  status: ('A' for Active; 'I' for Inactive)
REMARK    1  A    between atoms: N_3  and  C_13
REMARK    2  A    between atoms: N_4  and  C_14
REMARK    3  A    between atoms: C_13  and  C_15
REMARK                            x       y       z     vdW  Elec       q    Type
REMARK                         _______ _______ _______ _____ _____    ______ ____
ROOT
ATOM      1  O   UNL     1      -3.580   4.702  26.353  0.00  0.00    -0.252 OA
ATOM      2  N   UNL     1      -3.746   2.840  24.929  0.00  0.00    -0.278 N 
ATOM      3  N   UNL     1      -4.230   0.192  24.116  0.00  0.00    -0.292 NA
ATOM      4  N   UNL     1      -1.941   4.163  24.745  0.00  0.00    -0.287 N 
ATOM      7  C   UNL     1      -3.022   2.311  23.791  0.00  0.00    +0.109 C 
ATOM      8  C   UNL     1      -2.898   0.792  23.899  0.00  0.00    +0.109 C 
ATOM      9  C   UNL     1      -1.696   3.069  23.822  0.00  0.00    +0.132 C 
ATOM     10  C   UNL     1      -4.997   2.226  25.321  0.00  0.00    +0.125 C 
ATOM     11  C   UNL     1      -4.843   0.703  25.359  0.00  0.00    +0.104 C 
ATOM     12  C   UNL     1      -3.146   3.994  25.454  0.00  0.00    +0.305 C 
ATOM     14  C   UNL     1      -0.959   5.199  24.982  0.00  0.00    +0.133 C 
ENDROOT
BRANCH   3  13
ATOM     13  C   UNL     1      -4.130  -1.267  24.161  0.00  0.00    +0.158 C 
BRANCH  13  15
ATOM      5  N   UNL     1      -2.035  -1.089  25.522  0.00  0.00    -0.347 N 
ATOM      6  N   UNL     1      -2.076  -2.725  24.022  0.00  0.00    -0.239 NA
ATOM     15  C   UNL     1      -2.747  -1.723  24.543  0.00  0.00    +0.121 A 
ATOM     16  C   UNL     1      -0.833  -1.729  25.634  0.00  0.00    +0.104 A 
ATOM     17  C   UNL     1      -0.881  -2.736  24.698  0.00  0.00    +0.130 A 
ATOM     18  H   UNL     1      -2.340  -0.292  26.067  0.00  0.00    +0.167 HD
ENDBRANCH  13  15
ENDBRANCH   3  13
TORSDOF 2
ENDMDL
MODEL 6
REMARK VINA RESULT:      -3.4      2.815      5.073
REMARK  Name = 75537110
REMARK  3 active torsions:
REMARK  status: ('A' for Active; 'I' for Inactive)
REMARK    1  A    between atoms: N_3  and  C_13
REMARK    2  A    between atoms: N_4  and  C_14
REMARK    3  A    between atoms: C_13  and  C_15
REMARK                            x       y       z     vdW  Elec       q    Type
REMARK                         _______ _______ _______ _____ _____    ______ ____
ROOT
ATOM      1  O   UNL     1       0.131   4.248  23.274  0.00  0.00    -0.252 OA
ATOM      2  N   UNL     1      -0.045   2.266  24.523  0.00  0.00    -0.278 N 
ATOM      3  N   UNL     1      -0.331  -0.479  25.063  0.00  0.00    -0.292 NA
ATOM      4  N   UNL     1      -1.205   4.062  25.209  0.00  0.00    -0.287 N 
ATOM      7  C   UNL     1      -0.642   1.856  25.777  0.00  0.00    +0.109 C 
ATOM      8  C   UNL     1      -1.297   0.483  25.630  0.00  0.00    +0.109 C 
ATOM      9  C   UNL     1      -1.603   2.995  26.111  0.00  0.00    +0.132 C 
ATOM     10  C   UNL     1       0.806   1.339  23.806  0.00  0.00    +0.125 C 
ATOM     11  C   UNL     1       0.136  -0.036  23.734  0.00  0.00    +0.104 C 
ATOM     12  C   UNL     1      -0.313   3.608  24.218  0.00  0.00    +0.305 C 
ATOM     14  C   UNL     1      -1.801   5.379  25.271  0.00  0.00    +0.133 C 
ENDROOT
BRANCH   3  13
ATOM     13  C   UNL     1      -0.930  -1.811  24.975  0.00  0.00    +0.158 C 
BRANCH  13  15
ATOM      5  N   UNL     1      -3.101  -2.886  24.341  0.00  0.00    -0.347 N 
ATOM      6  N   UNL     1      -3.085  -0.666  24.334  0.00  0.00    -0.239 NA
ATOM     15  C   UNL     1      -2.373  -1.749  24.550  0.00  0.00    +0.121 A 
ATOM     16  C   UNL     1      -4.359  -2.504  23.968  0.00  0.00    +0.104 A 
ATOM     17  C   UNL     1      -4.325  -1.129  23.971  0.00  0.00    +0.130 A 
ATOM     18  H   UNL     1      -2.772  -3.838  24.444  0.00  0.00    +0.167 HD
ENDBRANCH  13  15
ENDBRANCH   3  13
TORSDOF 2
ENDMDL
MODEL 7
REMARK VINA RESULT:      -3.2      3.371      5.881
REMARK  Name = 75537110
REMARK  3 active torsions:
REMARK  status: ('A' for Active; 'I' for Inactive)
REMARK    1  A    between atoms: N_3  and  C_13
REMARK    2  A    between atoms: N_4  and  C_14
REMARK    3  A    between atoms: C_13  and  C_15
REMARK                            x       y       z     vdW  Elec       q    Type
REMARK                         _______ _______ _______ _____ _____    ______ ____
ROOT
ATOM      1  O   UNL     1      -0.656  -2.659  25.184  0.00  0.00    -0.252 OA
ATOM      2  N   UNL     1      -1.185  -0.571  24.246  0.00  0.00    -0.278 N 
ATOM      3  N   UNL     1      -1.216   2.221  23.903  0.00  0.00    -0.292 NA
ATOM      4  N   UNL     1      -2.835  -2.073  24.497  0.00  0.00    -0.287 N 
ATOM      7  C   UNL     1      -2.337   0.047  23.623  0.00  0.00    +0.109 C 
ATOM      8  C   UNL     1      -2.487   1.493  24.097  0.00  0.00    +0.109 C 
ATOM      9  C   UNL     1      -3.493  -0.876  24.002  0.00  0.00    +0.132 C 
ATOM     10  C   UNL     1       0.083   0.128  24.243  0.00  0.00    +0.125 C 
ATOM     11  C   UNL     1      -0.123   1.585  24.667  0.00  0.00    +0.104 C 
ATOM     12  C   UNL     1      -1.456  -1.869  24.700  0.00  0.00    +0.305 C 
ATOM     14  C   UNL     1      -3.578  -3.258  24.868  0.00  0.00    +0.133 C 
ENDROOT
BRANCH   3  13
ATOM     13  C   UNL     1      -1.366   3.621  24.297  0.00  0.00    +0.158 C 
BRANCH  13  15
ATOM      5  N   UNL     1      -3.852   3.915  24.379  0.00  0.00    -0.347 N 
ATOM      6  N   UNL     1      -2.800   4.040  26.330  0.00  0.00    -0.239 NA
ATOM     15  C   UNL     1      -2.656   3.860  25.036  0.00  0.00    +0.121 A 
ATOM     16  C   UNL     1      -4.823   4.143  25.313  0.00  0.00    +0.104 A 
ATOM     17  C   UNL     1      -4.150   4.216  26.510  0.00  0.00    +0.130 A 
ATOM     18  H   UNL     1      -3.996   3.806  23.382  0.00  0.00    +0.167 HD
ENDBRANCH  13  15
ENDBRANCH   3  13
TORSDOF 2
ENDMDL
MODEL 8
REMARK VINA RESULT:      -3.1      1.918      2.939
REMARK  Name = 75537110
REMARK  3 active torsions:
REMARK  status: ('A' for Active; 'I' for Inactive)
REMARK    1  A    between atoms: N_3  and  C_13
REMARK    2  A    between atoms: N_4  and  C_14
REMARK    3  A    between atoms: C_13  and  C_15
REMARK                            x       y       z     vdW  Elec       q    Type
REMARK                         _______ _______ _______ _____ _____    ______ ____
ROOT
ATOM      1  O   UNL     1      -5.072  -0.443  24.266  0.00  0.00    -0.252 OA
ATOM      2  N   UNL     1      -2.895   0.185  24.889  0.00  0.00    -0.278 N 
ATOM      3  N   UNL     1      -0.479   1.624  24.896  0.00  0.00    -0.292 NA
ATOM      4  N   UNL     1      -3.341  -2.002  24.639  0.00  0.00    -0.287 N 
ATOM      7  C   UNL     1      -1.680  -0.484  25.306  0.00  0.00    +0.109 C 
ATOM      8  C   UNL     1      -0.462   0.167  24.652  0.00  0.00    +0.109 C 
ATOM      9  C   UNL     1      -1.917  -1.942  24.916  0.00  0.00    +0.132 C 
ATOM     10  C   UNL     1      -2.965   1.630  24.947  0.00  0.00    +0.125 C 
ATOM     11  C   UNL     1      -1.700   2.238  24.335  0.00  0.00    +0.104 C 
ATOM     12  C   UNL     1      -3.917  -0.718  24.564  0.00  0.00    +0.305 C 
ATOM     14  C   UNL     1      -4.010  -3.247  24.332  0.00  0.00    +0.133 C 
ENDROOT
BRANCH   3  13
ATOM     13  C   UNL     1       0.714   2.249  24.326  0.00  0.00    +0.158 C 
BRANCH  13  15
ATOM      5  N   UNL     1       2.851   1.385  23.347  0.00  0.00    -0.347 N 
ATOM      6  N   UNL     1       1.008   0.297  22.756  0.00  0.00    -0.239 NA
ATOM     15  C   UNL     1       1.493   1.291  23.466  0.00  0.00    +0.121 A 
ATOM     16  C   UNL     1       3.259   0.387  22.508  0.00  0.00    +0.104 A 
ATOM     17  C   UNL     1       2.104  -0.272  22.156  0.00  0.00    +0.130 A 
ATOM     18  H   UNL     1       3.448   2.067  23.798  0.00  0.00    +0.167 HD
ENDBRANCH  13  15
ENDBRANCH   3  13
TORSDOF 2
ENDMDL
MODEL 9
REMARK VINA RESULT:      -3.0     17.283     18.074
REMARK  Name = 75537110
REMARK  3 active torsions:
REMARK  status: ('A' for Active; 'I' for Inactive)
REMARK    1  A    between atoms: N_3  and  C_13
REMARK    2  A    between atoms: N_4  and  C_14
REMARK    3  A    between atoms: C_13  and  C_15
REMARK                            x       y       z     vdW  Elec       q    Type
REMARK                         _______ _______ _______ _____ _____    ______ ____
ROOT
ATOM      1  O   UNL     1     -10.065  -8.819   9.667  0.00  0.00    -0.252 OA
ATOM      2  N   UNL     1      -7.827  -9.050  10.346  0.00  0.00    -0.278 N 
ATOM      3  N   UNL     1      -5.071  -9.578  10.167  0.00  0.00    -0.292 NA
ATOM      4  N   UNL     1      -9.434  -9.881  11.676  0.00  0.00    -0.287 N 
ATOM      7  C   UNL     1      -7.122  -9.508  11.525  0.00  0.00    +0.109 C 
ATOM      8  C   UNL     1      -5.901 -10.335  11.127  0.00  0.00    +0.109 C 
ATOM      9  C   UNL     1      -8.187 -10.271  12.310  0.00  0.00    +0.132 C 
ATOM     10  C   UNL     1      -7.083  -8.424   9.273  0.00  0.00    +0.125 C 
ATOM     11  C   UNL     1      -5.838  -9.254   8.948  0.00  0.00    +0.104 C 
ATOM     12  C   UNL     1      -9.217  -9.198  10.463  0.00  0.00    +0.305 C 
ATOM     14  C   UNL     1     -10.719 -10.303  12.190  0.00  0.00    +0.133 C 
ENDROOT
BRANCH   3  13
ATOM     13  C   UNL     1      -3.868 -10.336   9.826  0.00  0.00    +0.158 C 
BRANCH  13  15
ATOM      5  N   UNL     1      -1.819  -9.110  10.580  0.00  0.00    -0.347 N 
ATOM      6  N   UNL     1      -2.528 -10.725  11.928  0.00  0.00    -0.239 NA
ATOM     15  C   UNL     1      -2.750 -10.085  10.802  0.00  0.00    +0.121 A 
ATOM     16  C   UNL     1      -0.947  -9.129  11.632  0.00  0.00    +0.104 A 
ATOM     17  C   UNL     1      -1.405 -10.134  12.451  0.00  0.00    +0.130 A 
ATOM     18  H   UNL     1      -1.780  -8.485   9.784  0.00  0.00    +0.167 HD
ENDBRANCH  13  15
ENDBRANCH   3  13
TORSDOF 2
ENDMDL
MODEL 10
REMARK VINA RESULT:      -2.9     14.889     17.087
REMARK  Name = 75537110
REMARK  3 active torsions:
REMARK  status: ('A' for Active; 'I' for Inactive)
REMARK    1  A    between atoms: N_3  and  C_13
REMARK    2  A    between atoms: N_4  and  C_14
REMARK    3  A    between atoms: C_13  and  C_15
REMARK                            x       y       z     vdW  Elec       q    Type
REMARK                         _______ _______ _______ _____ _____    ______ ____
ROOT
ATOM      1  O   UNL     1      15.167  -4.156  31.239  0.00  0.00    -0.252 OA
ATOM      2  N   UNL     1      13.416  -5.718  31.108  0.00  0.00    -0.278 N 
ATOM      3  N   UNL     1      11.407  -7.487  31.969  0.00  0.00    -0.292 NA
ATOM      4  N   UNL     1      15.199  -6.003  29.773  0.00  0.00    -0.287 N 
ATOM      7  C   UNL     1      13.065  -6.844  30.268  0.00  0.00    +0.109 C 
ATOM      8  C   UNL     1      12.504  -7.985  31.115  0.00  0.00    +0.109 C 
ATOM      9  C   UNL     1      14.364  -7.167  29.533  0.00  0.00    +0.132 C 
ATOM     10  C   UNL     1      12.464  -5.240  32.088  0.00  0.00    +0.125 C 
ATOM     11  C   UNL     1      11.885  -6.421  32.873  0.00  0.00    +0.104 C 
ATOM     12  C   UNL     1      14.657  -5.162  30.764  0.00  0.00    +0.305 C 
ATOM     14  C   UNL     1      16.498  -5.852  29.153  0.00  0.00    +0.133 C 
ENDROOT
BRANCH   3  13
ATOM     13  C   UNL     1      10.823  -8.584  32.741  0.00  0.00    +0.158 C 
BRANCH  13  15
ATOM      5  N   UNL     1       8.458  -8.143  32.044  0.00  0.00    -0.347 N 
ATOM      6  N   UNL     1       9.174 -10.227  31.768  0.00  0.00    -0.239 NA
ATOM     15  C   UNL     1       9.497  -9.021  32.179  0.00  0.00    +0.121 A 
ATOM     16  C   UNL     1       7.405  -8.833  31.513  0.00  0.00    +0.104 A 
ATOM     17  C   UNL     1       7.871 -10.117  31.351  0.00  0.00    +0.130 A 
ATOM     18  H   UNL     1       8.466  -7.161  32.291  0.00  0.00    +0.167 HD
ENDBRANCH  13  15
ENDBRANCH   3  13
TORSDOF 2
ENDMDL
