MODEL 1
REMARK VINA RESULT:      -1.2      0.000      0.000
REMARK  Name = 11941631
REMARK  5 active torsions:
REMARK  status: ('A' for Active; 'I' for Inactive)
REMARK    1  A    between atoms: O_2  and  C_10
REMARK    2  A    between atoms: O_2  and  C_18
REMARK    3  A    between atoms: O_5  and  C_22
REMARK    4  A    between atoms: O_5  and  C_27
REMARK    5  A    between atoms: C_19  and  C_21
REMARK                            x       y       z     vdW  Elec       q    Type
REMARK                         _______ _______ _______ _____ _____    ______ ____
ROOT
ATOM      3  O   UNL     1      -6.621 -10.762  18.641  0.00  0.00    -0.273 OA
ATOM      4  O   UNL     1      -7.386 -10.760  13.420  0.00  0.00    -0.270 OA
ATOM      6  N   UNL     1      -7.608 -10.007  15.581  0.00  0.00    -0.283 N 
ATOM      7  N   UNL     1      -5.109 -10.778  16.935  0.00  0.00    -0.283 N 
ATOM      8  C   UNL     1      -7.094  -9.336  16.757  0.00  0.00    +0.165 C 
ATOM      9  C   UNL     1      -8.341  -8.845  17.490  0.00  0.00    +0.065 C 
ATOM     10  C   UNL     1      -9.415  -9.853  17.086  0.00  0.00    +0.137 C 
ATOM     11  C   UNL     1      -9.053 -10.174  15.645  0.00  0.00    +0.140 C 
ATOM     12  C   UNL     1      -6.293 -10.375  17.518  0.00  0.00    +0.238 C 
ATOM     13  C   UNL     1      -6.880 -10.333  14.457  0.00  0.00    +0.249 C 
ATOM     14  C   UNL     1      -5.403 -10.184  14.515  0.00  0.00    +0.059 A 
ATOM     15  C   UNL     1      -4.619 -10.484  15.644  0.00  0.00    +0.046 A 
ATOM     16  C   UNL     1      -4.770  -9.886  13.295  0.00  0.00    +0.023 A 
ATOM     17  C   UNL     1      -3.222 -10.540  15.503  0.00  0.00    +0.024 A 
ATOM     19  C   UNL     1      -3.380  -9.901  13.187  0.00  0.00    -0.014 A 
ATOM     20  C   UNL     1      -2.606 -10.241  14.288  0.00  0.00    +0.010 A 
ATOM     28  H   UNL     1      -4.474 -11.284  17.547  0.00  0.00    +0.155 HD
ENDROOT
BRANCH  19  21
ATOM      1 CL   UNL     1       0.928  -8.629  10.662  0.00  0.00    -0.084 Cl
ATOM     21  C   UNL     1      -2.747  -9.585  11.924  0.00  0.00    +0.025 A 
ATOM     22  C   UNL     1      -3.483  -9.568  10.737  0.00  0.00    +0.128 A 
ATOM     23  C   UNL     1      -1.382  -9.294  11.900  0.00  0.00    +0.032 A 
ATOM     24  C   UNL     1      -2.856  -9.261   9.530  0.00  0.00    +0.047 A 
ATOM     25  C   UNL     1      -0.755  -8.986  10.692  0.00  0.00    +0.042 A 
ATOM     26  C   UNL     1      -1.492  -8.970   9.507  0.00  0.00    +0.023 A 
BRANCH  22   5
ATOM      5  O   UNL     1      -4.818  -9.849  10.731  0.00  0.00    -0.495 OA
ATOM     27  C   UNL     1      -5.476  -9.836   9.466  0.00  0.00    +0.277 C 
ENDBRANCH  22   5
ENDBRANCH  19  21
BRANCH  10   2
ATOM      2  O   UNL     1     -10.709  -9.292  17.173  0.00  0.00    -0.378 OA
ATOM     18  C   UNL     1     -10.720  -7.921  16.784  0.00  0.00    +0.194 C 
ENDBRANCH  10   2
TORSDOF 3
ENDMDL
