MODEL 1
REMARK VINA RESULT:      -0.4      0.000      0.000
REMARK  Name = 38028119
REMARK  9 active torsions:
REMARK  status: ('A' for Active; 'I' for Inactive)
REMARK    1  A    between atoms: N_4  and  C_14
REMARK    2  A    between atoms: N_6  and  C_25
REMARK    3  A    between atoms: C_7  and  C_11
REMARK    4  A    between atoms: C_8  and  C_14
REMARK    5  A    between atoms: C_10  and  C_15
REMARK    6  A    between atoms: C_11  and  C_16
REMARK    7  A    between atoms: C_11  and  C_17
REMARK    8  A    between atoms: C_12  and  C_18
REMARK    9  A    between atoms: C_15  and  C_19
REMARK                            x       y       z     vdW  Elec       q    Type
REMARK                         _______ _______ _______ _____ _____    ______ ____
ROOT
ATOM      7  C   UNL     1      -2.691   2.007  23.752  0.00  0.00    +0.000 C 
ATOM      8  C   UNL     1      -2.625   3.454  24.303  0.00  0.00    +0.032 C 
ATOM      9  C   UNL     1      -4.150   1.586  23.523  0.00  0.00    +0.012 C 
ATOM     10  C   UNL     1      -4.986   1.655  24.816  0.00  0.00    +0.023 C 
ATOM     12  C   UNL     1      -4.766   2.957  25.560  0.00  0.00    -0.073 C 
ATOM     13  C   UNL     1      -3.712   3.754  25.307  0.00  0.00    -0.022 C 
ATOM     18  C   UNL     1      -5.810   3.345  26.569  0.00  0.00    +0.039 C 
ENDROOT
BRANCH   7  11
ATOM     11  C   UNL     1      -1.897   1.858  22.451  0.00  0.00    -0.013 C 
ATOM     16  C   UNL     1      -1.406   0.422  22.290  0.00  0.00    +0.007 C 
ATOM     17  C   UNL     1      -2.750   2.274  21.256  0.00  0.00    +0.007 C 
ENDBRANCH   7  11
BRANCH   8  14
ATOM     14  C   UNL     1      -1.256   3.747  24.929  0.00  0.00    +0.113 C 
BRANCH  14   4
ATOM      3  O   UNL     1       0.644   1.693  25.543  0.00  0.00    -0.253 OA
ATOM      4  N   UNL     1      -0.203   3.231  24.042  0.00  0.00    -0.299 N 
ATOM      6  N   UNL     1       1.555   1.947  23.394  0.00  0.00    -0.269 N 
ATOM     22  C   UNL     1       0.669   2.230  24.437  0.00  0.00    +0.304 C 
ATOM     31  H   UNL     1      -0.163   3.569  23.086  0.00  0.00    +0.150 HD
ATOM     32  H   UNL     1       1.443   2.487  22.540  0.00  0.00    +0.156 HD
BRANCH   6  25
ATOM     25  C   UNL     1       2.602   0.996  23.377  0.00  0.00    +0.035 A 
ATOM     26  C   UNL     1       3.923   1.416  23.224  0.00  0.00    +0.023 A 
ATOM     27  C   UNL     1       2.312  -0.362  23.512  0.00  0.00    +0.023 A 
ATOM     28  C   UNL     1       4.955   0.478  23.207  0.00  0.00    +0.002 A 
ATOM     29  C   UNL     1       3.344  -1.300  23.495  0.00  0.00    +0.002 A 
ATOM     30  C   UNL     1       4.666  -0.880  23.343  0.00  0.00    +0.000 A 
ENDBRANCH   6  25
ENDBRANCH  14   4
ENDBRANCH   8  14
BRANCH  10  15
ATOM     15  C   UNL     1      -4.704   0.451  25.721  0.00  0.00    +0.103 C 
BRANCH  15  19
ATOM      1  O   UNL     1      -5.040  -1.112  23.971  0.00  0.00    -0.276 OA
ATOM      2  O   UNL     1      -0.384  -2.127  25.294  0.00  0.00    -0.377 OA
ATOM      5  N   UNL     1      -3.089  -1.342  25.208  0.00  0.00    -0.297 N 
ATOM     19  C   UNL     1      -4.302  -0.736  24.884  0.00  0.00    +0.216 C 
ATOM     20  C   UNL     1      -2.250  -1.004  26.363  0.00  0.00    +0.136 C 
ATOM     21  C   UNL     1      -2.621  -2.498  24.444  0.00  0.00    +0.136 C 
ATOM     23  C   UNL     1      -0.787  -0.919  25.946  0.00  0.00    +0.179 C 
ATOM     24  C   UNL     1      -1.145  -2.347  24.104  0.00  0.00    +0.179 C 
ENDBRANCH  15  19
ENDBRANCH  10  15
TORSDOF 6
ENDMDL
MODEL 2
REMARK VINA RESULT:       0.6      2.077      4.233
REMARK  Name = 38028119
REMARK  9 active torsions:
REMARK  status: ('A' for Active; 'I' for Inactive)
REMARK    1  A    between atoms: N_4  and  C_14
REMARK    2  A    between atoms: N_6  and  C_25
REMARK    3  A    between atoms: C_7  and  C_11
REMARK    4  A    between atoms: C_8  and  C_14
REMARK    5  A    between atoms: C_10  and  C_15
REMARK    6  A    between atoms: C_11  and  C_16
REMARK    7  A    between atoms: C_11  and  C_17
REMARK    8  A    between atoms: C_12  and  C_18
REMARK    9  A    between atoms: C_15  and  C_19
REMARK                            x       y       z     vdW  Elec       q    Type
REMARK                         _______ _______ _______ _____ _____    ______ ____
ROOT
ATOM      7  C   UNL     1      -2.400   1.243  25.012  0.00  0.00    +0.000 C 
ATOM      8  C   UNL     1      -1.554   0.219  24.212  0.00  0.00    +0.032 C 
ATOM      9  C   UNL     1      -3.286   0.521  26.038  0.00  0.00    +0.012 C 
ATOM     10  C   UNL     1      -4.242  -0.489  25.375  0.00  0.00    +0.023 C 
ATOM     12  C   UNL     1      -3.525  -1.364  24.366  0.00  0.00    -0.073 C 
ATOM     13  C   UNL     1      -2.319  -1.038  23.869  0.00  0.00    -0.022 C 
ATOM     18  C   UNL     1      -4.206  -2.646  23.978  0.00  0.00    +0.039 C 
ENDROOT
BRANCH   7  11
ATOM     11  C   UNL     1      -1.518   2.275  25.722  0.00  0.00    -0.013 C 
ATOM     16  C   UNL     1      -0.365   1.584  26.442  0.00  0.00    +0.007 C 
ATOM     17  C   UNL     1      -0.993   3.303  24.724  0.00  0.00    +0.007 C 
ENDBRANCH   7  11
BRANCH   8  14
ATOM     14  C   UNL     1      -0.996   0.845  22.929  0.00  0.00    +0.113 C 
BRANCH  14   4
ATOM      3  O   UNL     1       1.517   1.239  24.246  0.00  0.00    -0.253 OA
ATOM      4  N   UNL     1       0.282   0.197  22.596  0.00  0.00    -0.299 N 
ATOM      6  N   UNL     1       2.492  -0.296  22.762  0.00  0.00    -0.269 N 
ATOM     22  C   UNL     1       1.446   0.458  23.299  0.00  0.00    +0.304 C 
ATOM     31  H   UNL     1       0.291  -0.516  21.875  0.00  0.00    +0.150 HD
ATOM     32  H   UNL     1       2.265  -0.895  21.972  0.00  0.00    +0.156 HD
BRANCH   6  25
ATOM     25  C   UNL     1       3.843  -0.329  23.179  0.00  0.00    +0.035 A 
ATOM     26  C   UNL     1       4.369  -1.490  23.745  0.00  0.00    +0.023 A 
ATOM     27  C   UNL     1       4.648   0.799  23.026  0.00  0.00    +0.023 A 
ATOM     28  C   UNL     1       5.701  -1.523  24.157  0.00  0.00    +0.002 A 
ATOM     29  C   UNL     1       5.981   0.766  23.437  0.00  0.00    +0.002 A 
ATOM     30  C   UNL     1       6.507  -0.395  24.003  0.00  0.00    +0.000 A 
ENDBRANCH   6  25
ENDBRANCH  14   4
ENDBRANCH   8  14
BRANCH  10  15
ATOM     15  C   UNL     1      -5.438   0.222  24.733  0.00  0.00    +0.103 C 
BRANCH  15  19
ATOM      1  O   UNL     1      -6.283   1.450  26.577  0.00  0.00    -0.276 OA
ATOM      2  O   UNL     1      -3.962   5.000  24.031  0.00  0.00    -0.377 OA
ATOM      5  N   UNL     1      -5.347   2.685  24.847  0.00  0.00    -0.297 N 
ATOM     19  C   UNL     1      -5.732   1.501  25.475  0.00  0.00    +0.216 C 
ATOM     20  C   UNL     1      -4.808   2.792  23.487  0.00  0.00    +0.136 C 
ATOM     21  C   UNL     1      -5.592   3.972  25.498  0.00  0.00    +0.136 C 
ATOM     23  C   UNL     1      -3.611   3.733  23.466  0.00  0.00    +0.179 C 
ATOM     24  C   UNL     1      -4.360   4.860  25.397  0.00  0.00    +0.179 C 
ENDBRANCH  15  19
ENDBRANCH  10  15
TORSDOF 6
ENDMDL
MODEL 3
REMARK VINA RESULT:       0.9      1.906      3.772
REMARK  Name = 38028119
REMARK  9 active torsions:
REMARK  status: ('A' for Active; 'I' for Inactive)
REMARK    1  A    between atoms: N_4  and  C_14
REMARK    2  A    between atoms: N_6  and  C_25
REMARK    3  A    between atoms: C_7  and  C_11
REMARK    4  A    between atoms: C_8  and  C_14
REMARK    5  A    between atoms: C_10  and  C_15
REMARK    6  A    between atoms: C_11  and  C_16
REMARK    7  A    between atoms: C_11  and  C_17
REMARK    8  A    between atoms: C_12  and  C_18
REMARK    9  A    between atoms: C_15  and  C_19
REMARK                            x       y       z     vdW  Elec       q    Type
REMARK                         _______ _______ _______ _____ _____    ______ ____
ROOT
ATOM      7  C   UNL     1      -2.591   0.109  24.971  0.00  0.00    +0.000 C 
ATOM      8  C   UNL     1      -2.963   0.376  23.489  0.00  0.00    +0.032 C 
ATOM      9  C   UNL     1      -3.828  -0.345  25.760  0.00  0.00    +0.012 C 
ATOM     10  C   UNL     1      -4.961   0.698  25.721  0.00  0.00    +0.023 C 
ATOM     12  C   UNL     1      -5.206   1.211  24.316  0.00  0.00    -0.073 C 
ATOM     13  C   UNL     1      -4.308   1.044  23.329  0.00  0.00    -0.022 C 
ATOM     18  C   UNL     1      -6.529   1.877  24.060  0.00  0.00    +0.039 C 
ENDROOT
BRANCH   7  11
ATOM     11  C   UNL     1      -1.480  -0.937  25.098  0.00  0.00    -0.013 C 
ATOM     16  C   UNL     1      -0.942  -0.968  26.525  0.00  0.00    +0.007 C 
ATOM     17  C   UNL     1      -1.994  -2.312  24.684  0.00  0.00    +0.007 C 
ENDBRANCH   7  11
BRANCH   8  14
ATOM     14  C   UNL     1      -1.887   1.215  22.791  0.00  0.00    +0.113 C 
BRANCH  14   4
ATOM      3  O   UNL     1       0.747   1.781  23.762  0.00  0.00    -0.253 OA
ATOM      4  N   UNL     1      -0.685   0.391  22.600  0.00  0.00    -0.299 N 
ATOM      6  N   UNL     1       1.498  -0.212  22.775  0.00  0.00    -0.269 N 
ATOM     22  C   UNL     1       0.548   0.756  23.113  0.00  0.00    +0.304 C 
ATOM     31  H   UNL     1      -0.780  -0.508  22.138  0.00  0.00    +0.150 HD
ATOM     32  H   UNL     1       1.168  -1.004  22.228  0.00  0.00    +0.156 HD
BRANCH   6  25
ATOM     25  C   UNL     1       2.874  -0.230  23.099  0.00  0.00    +0.035 A 
ATOM     26  C   UNL     1       3.660   0.897  22.863  0.00  0.00    +0.023 A 
ATOM     27  C   UNL     1       3.445  -1.376  23.653  0.00  0.00    +0.023 A 
ATOM     28  C   UNL     1       5.018   0.879  23.183  0.00  0.00    +0.002 A 
ATOM     29  C   UNL     1       4.803  -1.394  23.973  0.00  0.00    +0.002 A 
ATOM     30  C   UNL     1       5.590  -0.266  23.737  0.00  0.00    +0.000 A 
ENDBRANCH   6  25
ENDBRANCH  14   4
ENDBRANCH   8  14
BRANCH  10  15
ATOM     15  C   UNL     1      -4.680   1.855  26.685  0.00  0.00    +0.103 C 
BRANCH  15  19
ATOM      1  O   UNL     1      -5.569   3.825  25.711  0.00  0.00    -0.276 OA
ATOM      2  O   UNL     1      -0.710   4.619  25.238  0.00  0.00    -0.377 OA
ATOM      5  N   UNL     1      -3.282   3.494  25.482  0.00  0.00    -0.297 N 
ATOM     19  C   UNL     1      -4.560   3.146  25.916  0.00  0.00    +0.216 C 
ATOM     20  C   UNL     1      -2.086   2.653  25.597  0.00  0.00    +0.136 C 
ATOM     21  C   UNL     1      -3.075   4.733  24.732  0.00  0.00    +0.136 C 
ATOM     23  C   UNL     1      -0.903   3.481  26.082  0.00  0.00    +0.179 C 
ATOM     24  C   UNL     1      -1.856   5.474  25.259  0.00  0.00    +0.179 C 
ENDBRANCH  15  19
ENDBRANCH  10  15
TORSDOF 6
ENDMDL
MODEL 4
REMARK VINA RESULT:       1.3      2.503      3.436
REMARK  Name = 38028119
REMARK  9 active torsions:
REMARK  status: ('A' for Active; 'I' for Inactive)
REMARK    1  A    between atoms: N_4  and  C_14
REMARK    2  A    between atoms: N_6  and  C_25
REMARK    3  A    between atoms: C_7  and  C_11
REMARK    4  A    between atoms: C_8  and  C_14
REMARK    5  A    between atoms: C_10  and  C_15
REMARK    6  A    between atoms: C_11  and  C_16
REMARK    7  A    between atoms: C_11  and  C_17
REMARK    8  A    between atoms: C_12  and  C_18
REMARK    9  A    between atoms: C_15  and  C_19
REMARK                            x       y       z     vdW  Elec       q    Type
REMARK                         _______ _______ _______ _____ _____    ______ ____
ROOT
ATOM      7  C   UNL     1      -3.222   1.655  23.713  0.00  0.00    +0.000 C 
ATOM      8  C   UNL     1      -3.833   3.020  24.118  0.00  0.00    +0.032 C 
ATOM      9  C   UNL     1      -4.321   0.588  23.596  0.00  0.00    +0.012 C 
ATOM     10  C   UNL     1      -5.098   0.405  24.914  0.00  0.00    +0.023 C 
ATOM     12  C   UNL     1      -5.506   1.733  25.517  0.00  0.00    -0.073 C 
ATOM     13  C   UNL     1      -4.939   2.893  25.139  0.00  0.00    -0.022 C 
ATOM     18  C   UNL     1      -6.614   1.703  26.532  0.00  0.00    +0.039 C 
ENDROOT
BRANCH   7  11
ATOM     11  C   UNL     1      -2.446   1.748  22.396  0.00  0.00    -0.013 C 
ATOM     16  C   UNL     1      -3.111   2.750  21.458  0.00  0.00    +0.007 C 
ATOM     17  C   UNL     1      -0.994   2.135  22.660  0.00  0.00    +0.007 C 
ENDBRANCH   7  11
BRANCH   8  14
ATOM     14  C   UNL     1      -2.756   3.974  24.647  0.00  0.00    +0.113 C 
BRANCH  14   4
ATOM      3  O   UNL     1      -0.018   3.887  25.483  0.00  0.00    -0.253 OA
ATOM      4  N   UNL     1      -2.244   3.458  25.925  0.00  0.00    -0.299 N 
ATOM      6  N   UNL     1      -0.707   2.915  27.506  0.00  0.00    -0.269 N 
ATOM     22  C   UNL     1      -0.894   3.462  26.234  0.00  0.00    +0.304 C 
ATOM     31  H   UNL     1      -2.910   3.158  26.630  0.00  0.00    +0.150 HD
ATOM     32  H   UNL     1      -1.542   2.606  27.998  0.00  0.00    +0.156 HD
BRANCH   6  25
ATOM     25  C   UNL     1       0.510   2.732  28.203  0.00  0.00    +0.035 A 
ATOM     26  C   UNL     1       0.496   2.324  29.536  0.00  0.00    +0.023 A 
ATOM     27  C   UNL     1       1.725   2.960  27.556  0.00  0.00    +0.023 A 
ATOM     28  C   UNL     1       1.696   2.143  30.223  0.00  0.00    +0.002 A 
ATOM     29  C   UNL     1       2.925   2.780  28.243  0.00  0.00    +0.002 A 
ATOM     30  C   UNL     1       2.911   2.371  29.577  0.00  0.00    +0.000 A 
ENDBRANCH   6  25
ENDBRANCH  14   4
ENDBRANCH   8  14
BRANCH  10  15
ATOM     15  C   UNL     1      -4.295  -0.430  25.916  0.00  0.00    +0.103 C 
BRANCH  15  19
ATOM      1  O   UNL     1      -4.160  -2.444  24.672  0.00  0.00    -0.276 OA
ATOM      2  O   UNL     1       0.505  -0.823  24.398  0.00  0.00    -0.377 OA
ATOM      5  N   UNL     1      -2.151  -1.385  25.155  0.00  0.00    -0.297 N 
ATOM     19  C   UNL     1      -3.538  -1.514  25.191  0.00  0.00    +0.216 C 
ATOM     20  C   UNL     1      -1.371  -0.367  25.867  0.00  0.00    +0.136 C 
ATOM     21  C   UNL     1      -1.339  -2.391  24.469  0.00  0.00    +0.136 C 
ATOM     23  C   UNL     1      -0.305   0.218  24.950  0.00  0.00    +0.179 C 
ATOM     24  C   UNL     1      -0.280  -1.720  23.607  0.00  0.00    +0.179 C 
ENDBRANCH  15  19
ENDBRANCH  10  15
TORSDOF 6
ENDMDL
MODEL 5
REMARK VINA RESULT:       1.6      2.173      4.522
REMARK  Name = 38028119
REMARK  9 active torsions:
REMARK  status: ('A' for Active; 'I' for Inactive)
REMARK    1  A    between atoms: N_4  and  C_14
REMARK    2  A    between atoms: N_6  and  C_25
REMARK    3  A    between atoms: C_7  and  C_11
REMARK    4  A    between atoms: C_8  and  C_14
REMARK    5  A    between atoms: C_10  and  C_15
REMARK    6  A    between atoms: C_11  and  C_16
REMARK    7  A    between atoms: C_11  and  C_17
REMARK    8  A    between atoms: C_12  and  C_18
REMARK    9  A    between atoms: C_15  and  C_19
REMARK                            x       y       z     vdW  Elec       q    Type
REMARK                         _______ _______ _______ _____ _____    ______ ____
ROOT
ATOM      7  C   UNL     1      -1.295   0.657  24.857  0.00  0.00    +0.000 C 
ATOM      8  C   UNL     1      -0.544  -0.622  24.405  0.00  0.00    +0.032 C 
ATOM      9  C   UNL     1      -2.366   0.308  25.902  0.00  0.00    +0.012 C 
ATOM     10  C   UNL     1      -3.399  -0.701  25.364  0.00  0.00    +0.023 C 
ATOM     12  C   UNL     1      -2.733  -1.867  24.662  0.00  0.00    -0.073 C 
ATOM     13  C   UNL     1      -1.453  -1.818  24.254  0.00  0.00    -0.022 C 
ATOM     18  C   UNL     1      -3.560  -3.109  24.482  0.00  0.00    +0.039 C 
ENDROOT
BRANCH   7  11
ATOM     11  C   UNL     1      -0.337   1.708  25.426  0.00  0.00    -0.013 C 
ATOM     16  C   UNL     1       0.110   2.669  24.329  0.00  0.00    +0.007 C 
ATOM     17  C   UNL     1      -0.999   2.466  26.573  0.00  0.00    +0.007 C 
ENDBRANCH   7  11
BRANCH   8  14
ATOM     14  C   UNL     1       0.212  -0.384  23.093  0.00  0.00    +0.113 C 
BRANCH  14   4
ATOM      3  O   UNL     1       2.639   1.137  23.143  0.00  0.00    -0.253 OA
ATOM      4  N   UNL     1       1.578  -0.913  23.224  0.00  0.00    -0.299 N 
ATOM      6  N   UNL     1       3.844  -0.864  23.373  0.00  0.00    -0.269 N 
ATOM     22  C   UNL     1       2.690  -0.087  23.238  0.00  0.00    +0.304 C 
ATOM     31  H   UNL     1       1.701  -1.907  23.382  0.00  0.00    +0.150 HD
ATOM     32  H   UNL     1       3.712  -1.871  23.436  0.00  0.00    +0.156 HD
BRANCH   6  25
ATOM     25  C   UNL     1       5.186  -0.424  23.430  0.00  0.00    +0.035 A 
ATOM     26  C   UNL     1       5.512   0.731  24.142  0.00  0.00    +0.023 A 
ATOM     27  C   UNL     1       6.185  -1.144  22.774  0.00  0.00    +0.023 A 
ATOM     28  C   UNL     1       6.836   1.165  24.198  0.00  0.00    +0.002 A 
ATOM     29  C   UNL     1       7.509  -0.710  22.830  0.00  0.00    +0.002 A 
ATOM     30  C   UNL     1       7.835   0.445  23.543  0.00  0.00    +0.000 A 
ENDBRANCH   6  25
ENDBRANCH  14   4
ENDBRANCH   8  14
BRANCH  10  15
ATOM     15  C   UNL     1      -4.415  -0.015  24.446  0.00  0.00    +0.103 C 
BRANCH  15  19
ATOM      1  O   UNL     1      -5.857   0.876  26.103  0.00  0.00    -0.276 OA
ATOM      2  O   UNL     1      -3.628   4.973  24.458  0.00  0.00    -0.377 OA
ATOM      5  N   UNL     1      -4.762   2.410  24.747  0.00  0.00    -0.297 N 
ATOM     19  C   UNL     1      -5.081   1.123  25.177  0.00  0.00    +0.216 C 
ATOM     20  C   UNL     1      -3.947   2.737  23.572  0.00  0.00    +0.136 C 
ATOM     21  C   UNL     1      -5.361   3.571  25.404  0.00  0.00    +0.136 C 
ATOM     23  C   UNL     1      -2.951   3.838  23.912  0.00  0.00    +0.179 C 
ATOM     24  C   UNL     1      -4.304   4.633  25.671  0.00  0.00    +0.179 C 
ENDBRANCH  15  19
ENDBRANCH  10  15
TORSDOF 6
ENDMDL
MODEL 6
REMARK VINA RESULT:       1.9      1.715      3.899
REMARK  Name = 38028119
REMARK  9 active torsions:
REMARK  status: ('A' for Active; 'I' for Inactive)
REMARK    1  A    between atoms: N_4  and  C_14
REMARK    2  A    between atoms: N_6  and  C_25
REMARK    3  A    between atoms: C_7  and  C_11
REMARK    4  A    between atoms: C_8  and  C_14
REMARK    5  A    between atoms: C_10  and  C_15
REMARK    6  A    between atoms: C_11  and  C_16
REMARK    7  A    between atoms: C_11  and  C_17
REMARK    8  A    between atoms: C_12  and  C_18
REMARK    9  A    between atoms: C_15  and  C_19
REMARK                            x       y       z     vdW  Elec       q    Type
REMARK                         _______ _______ _______ _____ _____    ______ ____
ROOT
ATOM      7  C   UNL     1      -4.145   1.139  24.663  0.00  0.00    +0.000 C 
ATOM      8  C   UNL     1      -3.338   0.308  23.632  0.00  0.00    +0.032 C 
ATOM      9  C   UNL     1      -5.051   2.151  23.946  0.00  0.00    +0.012 C 
ATOM     10  C   UNL     1      -4.249   3.121  23.057  0.00  0.00    +0.023 C 
ATOM     12  C   UNL     1      -3.237   2.392  22.197  0.00  0.00    -0.073 C 
ATOM     13  C   UNL     1      -2.853   1.131  22.462  0.00  0.00    -0.022 C 
ATOM     18  C   UNL     1      -2.710   3.130  20.999  0.00  0.00    +0.039 C 
ENDROOT
BRANCH   7  11
ATOM     11  C   UNL     1      -4.988   0.245  25.578  0.00  0.00    -0.013 C 
ATOM     16  C   UNL     1      -4.086  -0.592  26.480  0.00  0.00    +0.007 C 
ATOM     17  C   UNL     1      -5.950   1.089  26.408  0.00  0.00    +0.007 C 
ENDBRANCH   7  11
BRANCH   8  14
ATOM     14  C   UNL     1      -2.147  -0.391  24.296  0.00  0.00    +0.113 C 
BRANCH  14   4
ATOM      3  O   UNL     1       0.527  -1.127  25.009  0.00  0.00    -0.253 OA
ATOM      4  N   UNL     1      -0.914  -0.011  23.591  0.00  0.00    -0.299 N 
ATOM      6  N   UNL     1       1.314   0.089  23.162  0.00  0.00    -0.269 N 
ATOM     22  C   UNL     1       0.337  -0.422  24.021  0.00  0.00    +0.304 C 
ATOM     31  H   UNL     1      -0.990   0.508  22.723  0.00  0.00    +0.150 HD
ATOM     32  H   UNL     1       0.988   0.661  22.387  0.00  0.00    +0.156 HD
BRANCH   6  25
ATOM     25  C   UNL     1       2.715  -0.089  23.237  0.00  0.00    +0.035 A 
ATOM     26  C   UNL     1       3.570   0.959  22.894  0.00  0.00    +0.023 A 
ATOM     27  C   UNL     1       3.242  -1.312  23.652  0.00  0.00    +0.023 A 
ATOM     28  C   UNL     1       4.952   0.784  22.968  0.00  0.00    +0.002 A 
ATOM     29  C   UNL     1       4.624  -1.487  23.726  0.00  0.00    +0.002 A 
ATOM     30  C   UNL     1       5.479  -0.438  23.384  0.00  0.00    +0.000 A 
ENDBRANCH   6  25
ENDBRANCH  14   4
ENDBRANCH   8  14
BRANCH  10  15
ATOM     15  C   UNL     1      -3.574   4.211  23.896  0.00  0.00    +0.103 C 
BRANCH  15  19
ATOM      1  O   UNL     1      -4.042   3.340  26.051  0.00  0.00    -0.276 OA
ATOM      2  O   UNL     1       0.823   2.515  25.710  0.00  0.00    -0.377 OA
ATOM      5  N   UNL     1      -1.802   3.511  25.464  0.00  0.00    -0.297 N 
ATOM     19  C   UNL     1      -3.170   3.649  25.236  0.00  0.00    +0.216 C 
ATOM     20  C   UNL     1      -0.737   3.984  24.572  0.00  0.00    +0.136 C 
ATOM     21  C   UNL     1      -1.322   2.970  26.736  0.00  0.00    +0.136 C 
ATOM     23  C   UNL     1       0.340   2.917  24.425  0.00  0.00    +0.179 C 
ATOM     24  C   UNL     1      -0.225   1.943  26.496  0.00  0.00    +0.179 C 
ENDBRANCH  15  19
ENDBRANCH  10  15
TORSDOF 6
ENDMDL
MODEL 7
REMARK VINA RESULT:       2.3      1.808      4.022
REMARK  Name = 38028119
REMARK  9 active torsions:
REMARK  status: ('A' for Active; 'I' for Inactive)
REMARK    1  A    between atoms: N_4  and  C_14
REMARK    2  A    between atoms: N_6  and  C_25
REMARK    3  A    between atoms: C_7  and  C_11
REMARK    4  A    between atoms: C_8  and  C_14
REMARK    5  A    between atoms: C_10  and  C_15
REMARK    6  A    between atoms: C_11  and  C_16
REMARK    7  A    between atoms: C_11  and  C_17
REMARK    8  A    between atoms: C_12  and  C_18
REMARK    9  A    between atoms: C_15  and  C_19
REMARK                            x       y       z     vdW  Elec       q    Type
REMARK                         _______ _______ _______ _____ _____    ______ ____
ROOT
ATOM      7  C   UNL     1      -2.786  -0.424  24.112  0.00  0.00    +0.000 C 
ATOM      8  C   UNL     1      -3.037   0.364  22.801  0.00  0.00    +0.032 C 
ATOM      9  C   UNL     1      -3.913  -0.159  25.121  0.00  0.00    +0.012 C 
ATOM     10  C   UNL     1      -4.045   1.336  25.468  0.00  0.00    +0.023 C 
ATOM     12  C   UNL     1      -4.030   2.206  24.227  0.00  0.00    -0.073 C 
ATOM     13  C   UNL     1      -3.589   1.749  23.041  0.00  0.00    -0.022 C 
ATOM     18  C   UNL     1      -4.579   3.598  24.370  0.00  0.00    +0.039 C 
ENDROOT
BRANCH   7  11
ATOM     11  C   UNL     1      -2.661  -1.929  23.855  0.00  0.00    -0.013 C 
ATOM     16  C   UNL     1      -1.489  -2.507  24.643  0.00  0.00    +0.007 C 
ATOM     17  C   UNL     1      -3.961  -2.640  24.220  0.00  0.00    +0.007 C 
ENDBRANCH   7  11
BRANCH   8  14
ATOM     14  C   UNL     1      -1.759   0.462  21.960  0.00  0.00    +0.113 C 
BRANCH  14   4
ATOM      3  O   UNL     1       0.930  -0.267  21.297  0.00  0.00    -0.253 OA
ATOM      4  N   UNL     1      -0.595   0.488  22.858  0.00  0.00    -0.299 N 
ATOM      6  N   UNL     1       1.571   0.241  23.497  0.00  0.00    -0.269 N 
ATOM     22  C   UNL     1       0.670   0.114  22.436  0.00  0.00    +0.304 C 
ATOM     31  H   UNL     1      -0.711   0.862  23.794  0.00  0.00    +0.150 HD
ATOM     32  H   UNL     1       1.191   0.569  24.382  0.00  0.00    +0.156 HD
BRANCH   6  25
ATOM     25  C   UNL     1       2.957  -0.035  23.498  0.00  0.00    +0.035 A 
ATOM     26  C   UNL     1       3.415  -1.306  23.846  0.00  0.00    +0.023 A 
ATOM     27  C   UNL     1       3.867   0.964  23.152  0.00  0.00    +0.023 A 
ATOM     28  C   UNL     1       4.783  -1.579  23.847  0.00  0.00    +0.002 A 
ATOM     29  C   UNL     1       5.235   0.691  23.153  0.00  0.00    +0.002 A 
ATOM     30  C   UNL     1       5.693  -0.580  23.500  0.00  0.00    +0.000 A 
ENDBRANCH   6  25
ENDBRANCH  14   4
ENDBRANCH   8  14
BRANCH  10  15
ATOM     15  C   UNL     1      -2.959   1.772  26.457  0.00  0.00    +0.103 C 
BRANCH  15  19
ATOM      1  O   UNL     1      -1.048   0.821  25.424  0.00  0.00    -0.276 OA
ATOM      2  O   UNL     1      -0.452   5.610  24.338  0.00  0.00    -0.377 OA
ATOM      5  N   UNL     1      -1.136   3.140  25.510  0.00  0.00    -0.297 N 
ATOM     19  C   UNL     1      -1.629   1.859  25.752  0.00  0.00    +0.216 C 
ATOM     20  C   UNL     1      -1.734   4.388  25.997  0.00  0.00    +0.136 C 
ATOM     21  C   UNL     1       0.146   3.315  24.828  0.00  0.00    +0.136 C 
ATOM     23  C   UNL     1      -1.761   5.429  24.885  0.00  0.00    +0.179 C 
ATOM     24  C   UNL     1       0.037   4.396  23.763  0.00  0.00    +0.179 C 
ENDBRANCH  15  19
ENDBRANCH  10  15
TORSDOF 6
ENDMDL
MODEL 8
REMARK VINA RESULT:       2.3      1.879      5.538
REMARK  Name = 38028119
REMARK  9 active torsions:
REMARK  status: ('A' for Active; 'I' for Inactive)
REMARK    1  A    between atoms: N_4  and  C_14
REMARK    2  A    between atoms: N_6  and  C_25
REMARK    3  A    between atoms: C_7  and  C_11
REMARK    4  A    between atoms: C_8  and  C_14
REMARK    5  A    between atoms: C_10  and  C_15
REMARK    6  A    between atoms: C_11  and  C_16
REMARK    7  A    between atoms: C_11  and  C_17
REMARK    8  A    between atoms: C_12  and  C_18
REMARK    9  A    between atoms: C_15  and  C_19
REMARK                            x       y       z     vdW  Elec       q    Type
REMARK                         _______ _______ _______ _____ _____    ______ ____
ROOT
ATOM      7  C   UNL     1      -4.016   3.535  25.752  0.00  0.00    +0.000 C 
ATOM      8  C   UNL     1      -3.931   4.393  24.464  0.00  0.00    +0.032 C 
ATOM      9  C   UNL     1      -2.932   3.962  26.753  0.00  0.00    +0.012 C 
ATOM     10  C   UNL     1      -1.513   3.826  26.168  0.00  0.00    +0.023 C 
ATOM     12  C   UNL     1      -1.418   4.416  24.776  0.00  0.00    -0.073 C 
ATOM     13  C   UNL     1      -2.511   4.676  24.036  0.00  0.00    -0.022 C 
ATOM     18  C   UNL     1      -0.041   4.746  24.273  0.00  0.00    +0.039 C 
ENDROOT
BRANCH   7  11
ATOM     11  C   UNL     1      -5.396   3.632  26.409  0.00  0.00    -0.013 C 
ATOM     16  C   UNL     1      -6.240   4.697  25.716  0.00  0.00    +0.007 C 
ATOM     17  C   UNL     1      -6.099   2.278  26.374  0.00  0.00    +0.007 C 
ENDBRANCH   7  11
BRANCH   8  14
ATOM     14  C   UNL     1      -4.692   3.734  23.309  0.00  0.00    +0.113 C 
BRANCH  14   4
ATOM      3  O   UNL     1      -2.880   1.525  23.497  0.00  0.00    -0.253 OA
ATOM      4  N   UNL     1      -5.028   2.352  23.682  0.00  0.00    -0.299 N 
ATOM      6  N   UNL     1      -4.678   0.151  24.123  0.00  0.00    -0.269 N 
ATOM     22  C   UNL     1      -4.072   1.352  23.744  0.00  0.00    +0.304 C 
ATOM     31  H   UNL     1      -5.977   2.144  23.973  0.00  0.00    +0.150 HD
ATOM     32  H   UNL     1      -5.681   0.179  24.288  0.00  0.00    +0.156 HD
BRANCH   6  25
ATOM     25  C   UNL     1      -4.068  -1.111  24.304  0.00  0.00    +0.035 A 
ATOM     26  C   UNL     1      -3.035  -1.260  25.230  0.00  0.00    +0.023 A 
ATOM     27  C   UNL     1      -4.498  -2.208  23.557  0.00  0.00    +0.023 A 
ATOM     28  C   UNL     1      -2.433  -2.505  25.409  0.00  0.00    +0.002 A 
ATOM     29  C   UNL     1      -3.896  -3.453  23.736  0.00  0.00    +0.002 A 
ATOM     30  C   UNL     1      -2.863  -3.602  24.662  0.00  0.00    +0.000 A 
ENDBRANCH   6  25
ENDBRANCH  14   4
ENDBRANCH   8  14
BRANCH  10  15
ATOM     15  C   UNL     1      -1.049   2.365  26.177  0.00  0.00    +0.103 C 
BRANCH  15  19
ATOM      1  O   UNL     1       1.282   2.781  26.295  0.00  0.00    -0.276 OA
ATOM      2  O   UNL     1       1.050  -0.350  22.473  0.00  0.00    -0.377 OA
ATOM      5  N   UNL     1       0.531   1.595  24.446  0.00  0.00    -0.297 N 
ATOM     19  C   UNL     1       0.361   2.272  25.652  0.00  0.00    +0.216 C 
ATOM     20  C   UNL     1      -0.550   1.089  23.593  0.00  0.00    +0.136 C 
ATOM     21  C   UNL     1       1.867   1.454  23.867  0.00  0.00    +0.136 C 
ATOM     23  C   UNL     1      -0.229  -0.320  23.113  0.00  0.00    +0.179 C 
ATOM     24  C   UNL     1       2.087   0.029  23.381  0.00  0.00    +0.179 C 
ENDBRANCH  15  19
ENDBRANCH  10  15
TORSDOF 6
ENDMDL
MODEL 9
REMARK VINA RESULT:       3.3      1.891      3.932
REMARK  Name = 38028119
REMARK  9 active torsions:
REMARK  status: ('A' for Active; 'I' for Inactive)
REMARK    1  A    between atoms: N_4  and  C_14
REMARK    2  A    between atoms: N_6  and  C_25
REMARK    3  A    between atoms: C_7  and  C_11
REMARK    4  A    between atoms: C_8  and  C_14
REMARK    5  A    between atoms: C_10  and  C_15
REMARK    6  A    between atoms: C_11  and  C_16
REMARK    7  A    between atoms: C_11  and  C_17
REMARK    8  A    between atoms: C_12  and  C_18
REMARK    9  A    between atoms: C_15  and  C_19
REMARK                            x       y       z     vdW  Elec       q    Type
REMARK                         _______ _______ _______ _____ _____    ______ ____
ROOT
ATOM      7  C   UNL     1      -4.030   0.554  24.874  0.00  0.00    +0.000 C 
ATOM      8  C   UNL     1      -2.794   0.738  23.957  0.00  0.00    +0.032 C 
ATOM      9  C   UNL     1      -5.322   0.849  24.098  0.00  0.00    +0.012 C 
ATOM     10  C   UNL     1      -5.346   2.280  23.528  0.00  0.00    +0.023 C 
ATOM     12  C   UNL     1      -4.045   2.632  22.835  0.00  0.00    -0.073 C 
ATOM     13  C   UNL     1      -2.919   1.923  23.029  0.00  0.00    -0.022 C 
ATOM     18  C   UNL     1      -4.081   3.790  21.878  0.00  0.00    +0.039 C 
ENDROOT
BRANCH   7  11
ATOM     11  C   UNL     1      -4.091  -0.857  25.468  0.00  0.00    -0.013 C 
ATOM     16  C   UNL     1      -4.069  -1.902  24.357  0.00  0.00    +0.007 C 
ATOM     17  C   UNL     1      -2.935  -1.076  26.440  0.00  0.00    +0.007 C 
ENDBRANCH   7  11
BRANCH   8  14
ATOM     14  C   UNL     1      -1.508   0.868  24.781  0.00  0.00    +0.113 C 
BRANCH  14   4
ATOM      3  O   UNL     1       1.285   1.492  24.898  0.00  0.00    -0.253 OA
ATOM      4  N   UNL     1      -0.420   0.162  24.087  0.00  0.00    -0.299 N 
ATOM      6  N   UNL     1       1.708  -0.301  23.444  0.00  0.00    -0.269 N 
ATOM     22  C   UNL     1       0.905   0.546  24.211  0.00  0.00    +0.304 C 
ATOM     31  H   UNL     1      -0.642  -0.675  23.560  0.00  0.00    +0.150 HD
ATOM     32  H   UNL     1       1.233  -1.038  22.929  0.00  0.00    +0.156 HD
BRANCH   6  25
ATOM     25  C   UNL     1       3.113  -0.262  23.289  0.00  0.00    +0.035 A 
ATOM     26  C   UNL     1       3.902  -1.283  23.817  0.00  0.00    +0.023 A 
ATOM     27  C   UNL     1       3.710   0.800  22.607  0.00  0.00    +0.023 A 
ATOM     28  C   UNL     1       5.288  -1.244  23.664  0.00  0.00    +0.002 A 
ATOM     29  C   UNL     1       5.096   0.839  22.454  0.00  0.00    +0.002 A 
ATOM     30  C   UNL     1       5.885  -0.183  22.982  0.00  0.00    +0.000 A 
ENDBRANCH   6  25
ENDBRANCH  14   4
ENDBRANCH   8  14
BRANCH  10  15
ATOM     15  C   UNL     1      -5.681   3.303  24.619  0.00  0.00    +0.103 C 
BRANCH  15  19
ATOM      1  O   UNL     1      -5.141   2.304  26.700  0.00  0.00    -0.276 OA
ATOM      2  O   UNL     1      -0.904   4.611  25.605  0.00  0.00    -0.377 OA
ATOM      5  N   UNL     1      -3.596   3.808  25.838  0.00  0.00    -0.297 N 
ATOM     19  C   UNL     1      -4.789   3.088  25.815  0.00  0.00    +0.216 C 
ATOM     20  C   UNL     1      -3.205   4.840  24.871  0.00  0.00    +0.136 C 
ATOM     21  C   UNL     1      -2.670   3.656  26.960  0.00  0.00    +0.136 C 
ATOM     23  C   UNL     1      -1.753   4.651  24.455  0.00  0.00    +0.179 C 
ATOM     24  C   UNL     1      -1.242   3.511  26.454  0.00  0.00    +0.179 C 
ENDBRANCH  15  19
ENDBRANCH  10  15
TORSDOF 6
ENDMDL
MODEL 10
REMARK VINA RESULT:       3.4      1.837      4.123
REMARK  Name = 38028119
REMARK  9 active torsions:
REMARK  status: ('A' for Active; 'I' for Inactive)
REMARK    1  A    between atoms: N_4  and  C_14
REMARK    2  A    between atoms: N_6  and  C_25
REMARK    3  A    between atoms: C_7  and  C_11
REMARK    4  A    between atoms: C_8  and  C_14
REMARK    5  A    between atoms: C_10  and  C_15
REMARK    6  A    between atoms: C_11  and  C_16
REMARK    7  A    between atoms: C_11  and  C_17
REMARK    8  A    between atoms: C_12  and  C_18
REMARK    9  A    between atoms: C_15  and  C_19
REMARK                            x       y       z     vdW  Elec       q    Type
REMARK                         _______ _______ _______ _____ _____    ______ ____
ROOT
ATOM      7  C   UNL     1      -3.885  -0.731  24.583  0.00  0.00    +0.000 C 
ATOM      8  C   UNL     1      -2.830  -0.837  23.452  0.00  0.00    +0.032 C 
ATOM      9  C   UNL     1      -4.986   0.268  24.197  0.00  0.00    +0.012 C 
ATOM     10  C   UNL     1      -4.423   1.676  23.920  0.00  0.00    +0.023 C 
ATOM     12  C   UNL     1      -3.206   1.629  23.019  0.00  0.00    -0.073 C 
ATOM     13  C   UNL     1      -2.516   0.494  22.811  0.00  0.00    -0.022 C 
ATOM     18  C   UNL     1      -2.830   2.908  22.324  0.00  0.00    +0.039 C 
ENDROOT
BRANCH   7  11
ATOM     11  C   UNL     1      -4.509  -2.092  24.906  0.00  0.00    -0.013 C 
ATOM     16  C   UNL     1      -4.940  -2.797  23.624  0.00  0.00    +0.007 C 
ATOM     17  C   UNL     1      -3.527  -2.955  25.692  0.00  0.00    +0.007 C 
ENDBRANCH   7  11
BRANCH   8  14
ATOM     14  C   UNL     1      -1.534  -1.477  23.962  0.00  0.00    +0.113 C 
BRANCH  14   4
ATOM      3  O   UNL     1       1.211  -1.727  24.739  0.00  0.00    -0.253 OA
ATOM      4  N   UNL     1      -0.386  -0.776  23.368  0.00  0.00    -0.299 N 
ATOM      6  N   UNL     1       1.785  -0.176  23.073  0.00  0.00    -0.269 N 
ATOM     22  C   UNL     1       0.909  -0.969  23.820  0.00  0.00    +0.304 C 
ATOM     31  H   UNL     1      -0.542  -0.190  22.555  0.00  0.00    +0.150 HD
ATOM     32  H   UNL     1       1.370   0.400  22.344  0.00  0.00    +0.156 HD
BRANCH   6  25
ATOM     25  C   UNL     1       3.189  -0.071  23.204  0.00  0.00    +0.035 A 
ATOM     26  C   UNL     1       3.927  -1.151  23.686  0.00  0.00    +0.023 A 
ATOM     27  C   UNL     1       3.835   1.115  22.853  0.00  0.00    +0.023 A 
ATOM     28  C   UNL     1       5.312  -1.047  23.816  0.00  0.00    +0.002 A 
ATOM     29  C   UNL     1       5.219   1.219  22.982  0.00  0.00    +0.002 A 
ATOM     30  C   UNL     1       5.958   0.138  23.464  0.00  0.00    +0.000 A 
ENDBRANCH   6  25
ENDBRANCH  14   4
ENDBRANCH   8  14
BRANCH  10  15
ATOM     15  C   UNL     1      -4.111   2.413  25.227  0.00  0.00    +0.103 C 
BRANCH  15  19
ATOM      1  O   UNL     1      -3.442   4.606  24.624  0.00  0.00    -0.276 OA
ATOM      2  O   UNL     1       0.826   2.705  26.247  0.00  0.00    -0.377 OA
ATOM      5  N   UNL     1      -1.747   3.117  25.173  0.00  0.00    -0.297 N 
ATOM     19  C   UNL     1      -3.078   3.482  24.978  0.00  0.00    +0.216 C 
ATOM     20  C   UNL     1      -1.270   1.762  25.468  0.00  0.00    +0.136 C 
ATOM     21  C   UNL     1      -0.680   4.095  24.957  0.00  0.00    +0.136 C 
ATOM     23  C   UNL     1      -0.229   1.799  26.580  0.00  0.00    +0.179 C 
ATOM     24  C   UNL     1       0.330   4.037  26.094  0.00  0.00    +0.179 C 
ENDBRANCH  15  19
ENDBRANCH  10  15
TORSDOF 6
ENDMDL
