MODEL 1
REMARK VINA RESULT:      -2.5      0.000      0.000
REMARK  Name = 51136698
REMARK  8 active torsions:
REMARK  status: ('A' for Active; 'I' for Inactive)
REMARK    1  A    between atoms: O_2  and  C_15
REMARK    2  A    between atoms: C_6  and  C_11
REMARK    3  A    between atoms: C_7  and  C_12
REMARK    4  A    between atoms: C_11  and  C_13
REMARK    5  A    between atoms: C_12  and  C_15
REMARK    6  A    between atoms: C_14  and  C_17
REMARK    7  A    between atoms: C_17  and  C_21
REMARK    8  A    between atoms: C_21  and  C_25
REMARK                            x       y       z     vdW  Elec       q    Type
REMARK                         _______ _______ _______ _____ _____    ______ ____
ROOT
ATOM      1  O   UNL     1       0.433   4.286  23.429  0.00  0.00    -0.276 OA
ATOM      4  N   UNL     1      -1.212   3.860  25.012  0.00  0.00    -0.301 N 
ATOM      6  C   UNL     1      -3.260   2.674  25.769  0.00  0.00    +0.016 C 
ATOM      7  C   UNL     1      -4.069   3.964  25.482  0.00  0.00    +0.006 C 
ATOM      8  C   UNL     1      -3.397   4.823  24.397  0.00  0.00    +0.023 C 
ATOM      9  C   UNL     1      -1.795   3.033  26.077  0.00  0.00    +0.112 C 
ATOM     10  C   UNL     1      -1.935   5.102  24.739  0.00  0.00    +0.108 C 
ATOM     14  C   UNL     1      -0.050   3.561  24.302  0.00  0.00    +0.216 C 
ENDROOT
BRANCH   6  11
ATOM     11  C   UNL     1      -3.328   1.632  24.646  0.00  0.00    +0.061 C 
BRANCH  11  13
ATOM      5  N   UNL     1      -1.547   0.514  25.807  0.00  0.00    -0.287 NA
ATOM     13  C   UNL     1      -2.596   0.378  25.064  0.00  0.00    +0.044 C 
ATOM     16  C   UNL     1      -3.106  -0.936  24.599  0.00  0.00    -0.001 A 
ATOM     18  C   UNL     1      -2.218  -2.017  24.667  0.00  0.00    -0.037 A 
ATOM     19  C   UNL     1      -0.872  -0.706  26.263  0.00  0.00    +0.146 C 
ATOM     20  C   UNL     1      -0.829  -1.778  25.181  0.00  0.00    +0.059 C 
ATOM     22  C   UNL     1      -4.399  -1.111  24.100  0.00  0.00    +0.010 A 
ATOM     23  C   UNL     1      -2.624  -3.274  24.208  0.00  0.00    +0.004 A 
ATOM     24  C   UNL     1      -4.800  -2.373  23.659  0.00  0.00    +0.001 A 
ATOM     26  C   UNL     1      -3.915  -3.451  23.709  0.00  0.00    +0.000 A 
ENDBRANCH  11  13
ENDBRANCH   6  11
BRANCH   7  12
ATOM     12  C   UNL     1      -5.529   3.690  25.122  0.00  0.00    +0.124 C 
BRANCH  12  15
ATOM      3  O   UNL     1      -6.039   2.364  27.103  0.00  0.00    -0.251 OA
ATOM     15  C   UNL     1      -6.081   2.523  25.892  0.00  0.00    +0.305 C 
BRANCH  15   2
ATOM      2  O   UNL     1      -6.654   1.638  25.035  0.00  0.00    -0.481 OA
ATOM     32  H   UNL     1      -7.240   2.084  24.386  0.00  0.00    +0.295 HD
ENDBRANCH  15   2
ENDBRANCH  12  15
ENDBRANCH   7  12
BRANCH  14  17
ATOM     17  C   UNL     1       0.634   2.260  24.642  0.00  0.00    +0.100 C 
BRANCH  17  21
ATOM     21  C   UNL     1       0.801   1.402  23.396  0.00  0.00    +0.044 C 
BRANCH  21  25
ATOM     25  C   UNL     1       2.163   0.760  23.293  0.00  0.00    -0.047 A 
ATOM     27  C   UNL     1       2.308  -0.610  23.514  0.00  0.00    +0.003 A 
ATOM     28  C   UNL     1       3.278   1.537  22.977  0.00  0.00    +0.003 A 
ATOM     29  C   UNL     1       3.566  -1.203  23.419  0.00  0.00    +0.000 A 
ATOM     30  C   UNL     1       4.537   0.944  22.883  0.00  0.00    +0.000 A 
ATOM     31  C   UNL     1       4.681  -0.426  23.103  0.00  0.00    +0.000 A 
ENDBRANCH  21  25
ENDBRANCH  17  21
ENDBRANCH  14  17
TORSDOF 8
ENDMDL
MODEL 2
REMARK VINA RESULT:      -2.0      1.094      1.993
REMARK  Name = 51136698
REMARK  8 active torsions:
REMARK  status: ('A' for Active; 'I' for Inactive)
REMARK    1  A    between atoms: O_2  and  C_15
REMARK    2  A    between atoms: C_6  and  C_11
REMARK    3  A    between atoms: C_7  and  C_12
REMARK    4  A    between atoms: C_11  and  C_13
REMARK    5  A    between atoms: C_12  and  C_15
REMARK    6  A    between atoms: C_14  and  C_17
REMARK    7  A    between atoms: C_17  and  C_21
REMARK    8  A    between atoms: C_21  and  C_25
REMARK                            x       y       z     vdW  Elec       q    Type
REMARK                         _______ _______ _______ _____ _____    ______ ____
ROOT
ATOM      1  O   UNL     1       0.901   3.936  23.521  0.00  0.00    -0.276 OA
ATOM      4  N   UNL     1      -0.808   3.193  24.908  0.00  0.00    -0.301 N 
ATOM      6  C   UNL     1      -2.978   2.039  25.274  0.00  0.00    +0.016 C 
ATOM      7  C   UNL     1      -3.649   3.428  25.427  0.00  0.00    +0.006 C 
ATOM      8  C   UNL     1      -2.874   4.517  24.666  0.00  0.00    +0.023 C 
ATOM      9  C   UNL     1      -1.490   2.132  25.660  0.00  0.00    +0.112 C 
ATOM     10  C   UNL     1      -1.398   4.524  25.058  0.00  0.00    +0.108 C 
ATOM     14  C   UNL     1       0.331   3.023  24.122  0.00  0.00    +0.216 C 
ENDROOT
BRANCH   6  11
ATOM     11  C   UNL     1      -3.129   1.425  23.877  0.00  0.00    +0.061 C 
BRANCH  11  13
ATOM      5  N   UNL     1      -4.501  -0.542  23.751  0.00  0.00    -0.287 NA
ATOM     13  C   UNL     1      -3.323  -0.069  23.992  0.00  0.00    +0.044 C 
ATOM     16  C   UNL     1      -2.165  -0.912  24.380  0.00  0.00    -0.001 A 
ATOM     18  C   UNL     1      -2.452  -2.201  24.849  0.00  0.00    -0.037 A 
ATOM     19  C   UNL     1      -4.675  -1.998  23.802  0.00  0.00    +0.146 C 
ATOM     20  C   UNL     1      -3.886  -2.631  24.942  0.00  0.00    +0.059 C 
ATOM     22  C   UNL     1      -0.845  -0.463  24.305  0.00  0.00    +0.010 A 
ATOM     23  C   UNL     1      -1.409  -3.031  25.268  0.00  0.00    +0.004 A 
ATOM     24  C   UNL     1       0.191  -1.306  24.711  0.00  0.00    +0.001 A 
ATOM     26  C   UNL     1      -0.089  -2.585  25.194  0.00  0.00    +0.000 A 
ENDBRANCH  11  13
ENDBRANCH   6  11
BRANCH   7  12
ATOM     12  C   UNL     1      -5.122   3.432  25.020  0.00  0.00    +0.124 C 
BRANCH  12  15
ATOM      3  O   UNL     1      -6.014   2.348  27.012  0.00  0.00    -0.251 OA
ATOM     15  C   UNL     1      -5.916   2.419  25.797  0.00  0.00    +0.305 C 
BRANCH  15   2
ATOM      2  O   UNL     1      -6.530   1.564  24.939  0.00  0.00    -0.481 OA
ATOM     32  H   UNL     1      -6.165   0.655  25.003  0.00  0.00    +0.295 HD
ENDBRANCH  15   2
ENDBRANCH  12  15
ENDBRANCH   7  12
BRANCH  14  17
ATOM     17  C   UNL     1       0.876   1.620  24.017  0.00  0.00    +0.100 C 
BRANCH  17  21
ATOM     21  C   UNL     1       1.847   1.510  22.851  0.00  0.00    +0.044 C 
BRANCH  21  25
ATOM     25  C   UNL     1       3.062   0.671  23.164  0.00  0.00    -0.047 A 
ATOM     27  C   UNL     1       2.921  -0.691  23.431  0.00  0.00    +0.003 A 
ATOM     28  C   UNL     1       4.327   1.259  23.188  0.00  0.00    +0.003 A 
ATOM     29  C   UNL     1       4.044  -1.465  23.721  0.00  0.00    +0.000 A 
ATOM     30  C   UNL     1       5.450   0.485  23.478  0.00  0.00    +0.000 A 
ATOM     31  C   UNL     1       5.309  -0.878  23.744  0.00  0.00    +0.000 A 
ENDBRANCH  21  25
ENDBRANCH  17  21
ENDBRANCH  14  17
TORSDOF 8
ENDMDL
MODEL 3
REMARK VINA RESULT:      -0.7      1.786      4.814
REMARK  Name = 51136698
REMARK  8 active torsions:
REMARK  status: ('A' for Active; 'I' for Inactive)
REMARK    1  A    between atoms: O_2  and  C_15
REMARK    2  A    between atoms: C_6  and  C_11
REMARK    3  A    between atoms: C_7  and  C_12
REMARK    4  A    between atoms: C_11  and  C_13
REMARK    5  A    between atoms: C_12  and  C_15
REMARK    6  A    between atoms: C_14  and  C_17
REMARK    7  A    between atoms: C_17  and  C_21
REMARK    8  A    between atoms: C_21  and  C_25
REMARK                            x       y       z     vdW  Elec       q    Type
REMARK                         _______ _______ _______ _____ _____    ______ ____
ROOT
ATOM      1  O   UNL     1      -0.140  -2.229  24.530  0.00  0.00    -0.276 OA
ATOM      4  N   UNL     1      -1.891  -0.791  24.018  0.00  0.00    -0.301 N 
ATOM      6  C   UNL     1      -3.436   1.065  24.602  0.00  0.00    +0.016 C 
ATOM      7  C   UNL     1      -4.552   0.015  24.834  0.00  0.00    +0.006 C 
ATOM      8  C   UNL     1      -3.968  -1.355  25.222  0.00  0.00    +0.023 C 
ATOM      9  C   UNL     1      -2.404   0.519  23.598  0.00  0.00    +0.112 C 
ATOM     10  C   UNL     1      -2.918  -1.815  24.213  0.00  0.00    +0.108 C 
ATOM     14  C   UNL     1      -0.547  -1.112  24.203  0.00  0.00    +0.216 C 
ENDROOT
BRANCH   6  11
ATOM     11  C   UNL     1      -2.736   1.525  25.887  0.00  0.00    +0.061 C 
BRANCH  11  13
ATOM      5  N   UNL     1      -3.461   3.711  26.568  0.00  0.00    -0.287 NA
ATOM     13  C   UNL     1      -2.600   3.029  25.887  0.00  0.00    +0.044 C 
ATOM     16  C   UNL     1      -1.499   3.647  25.106  0.00  0.00    -0.001 A 
ATOM     18  C   UNL     1      -1.624   5.010  24.809  0.00  0.00    -0.037 A 
ATOM     19  C   UNL     1      -3.292   5.168  26.617  0.00  0.00    +0.146 C 
ATOM     20  C   UNL     1      -2.848   5.740  25.278  0.00  0.00    +0.059 C 
ATOM     22  C   UNL     1      -0.389   2.925  24.664  0.00  0.00    +0.010 A 
ATOM     23  C   UNL     1      -0.641   5.643  24.043  0.00  0.00    +0.004 A 
ATOM     24  C   UNL     1       0.596   3.569  23.913  0.00  0.00    +0.001 A 
ATOM     26  C   UNL     1       0.469   4.923  23.600  0.00  0.00    +0.000 A 
ENDBRANCH  11  13
ENDBRANCH   6  11
BRANCH   7  12
ATOM     12  C   UNL     1      -5.596   0.463  25.856  0.00  0.00    +0.124 C 
BRANCH  12  15
ATOM      3  O   UNL     1      -6.860   1.944  24.390  0.00  0.00    -0.251 OA
ATOM     15  C   UNL     1      -6.268   1.742  25.439  0.00  0.00    +0.305 C 
BRANCH  15   2
ATOM      2  O   UNL     1      -6.126   2.673  26.416  0.00  0.00    -0.481 OA
ATOM     32  H   UNL     1      -5.363   3.268  26.247  0.00  0.00    +0.295 HD
ENDBRANCH  15   2
ENDBRANCH  12  15
ENDBRANCH   7  12
BRANCH  14  17
ATOM     17  C   UNL     1       0.449   0.000  23.983  0.00  0.00    +0.100 C 
BRANCH  17  21
ATOM     21  C   UNL     1       1.314  -0.290  22.765  0.00  0.00    +0.044 C 
BRANCH  21  25
ATOM     25  C   UNL     1       2.793  -0.231  23.058  0.00  0.00    -0.047 A 
ATOM     27  C   UNL     1       3.434  -1.325  23.641  0.00  0.00    +0.003 A 
ATOM     28  C   UNL     1       3.521   0.917  22.744  0.00  0.00    +0.003 A 
ATOM     29  C   UNL     1       4.801  -1.269  23.911  0.00  0.00    +0.000 A 
ATOM     30  C   UNL     1       4.888   0.972  23.014  0.00  0.00    +0.000 A 
ATOM     31  C   UNL     1       5.528  -0.122  23.598  0.00  0.00    +0.000 A 
ENDBRANCH  21  25
ENDBRANCH  17  21
ENDBRANCH  14  17
TORSDOF 8
ENDMDL
MODEL 4
REMARK VINA RESULT:      -0.6      2.247      7.427
REMARK  Name = 51136698
REMARK  8 active torsions:
REMARK  status: ('A' for Active; 'I' for Inactive)
REMARK    1  A    between atoms: O_2  and  C_15
REMARK    2  A    between atoms: C_6  and  C_11
REMARK    3  A    between atoms: C_7  and  C_12
REMARK    4  A    between atoms: C_11  and  C_13
REMARK    5  A    between atoms: C_12  and  C_15
REMARK    6  A    between atoms: C_14  and  C_17
REMARK    7  A    between atoms: C_17  and  C_21
REMARK    8  A    between atoms: C_21  and  C_25
REMARK                            x       y       z     vdW  Elec       q    Type
REMARK                         _______ _______ _______ _____ _____    ______ ____
ROOT
ATOM      1  O   UNL     1      -3.571  -3.069  24.437  0.00  0.00    -0.276 OA
ATOM      4  N   UNL     1      -1.686  -1.792  24.896  0.00  0.00    -0.301 N 
ATOM      6  C   UNL     1      -0.235   0.184  24.491  0.00  0.00    +0.016 C 
ATOM      7  C   UNL     1       0.750  -0.741  23.732  0.00  0.00    +0.006 C 
ATOM      8  C   UNL     1       0.031  -1.964  23.135  0.00  0.00    +0.023 C 
ATOM      9  C   UNL     1      -1.033  -0.635  25.522  0.00  0.00    +0.112 C 
ATOM     10  C   UNL     1      -0.779  -2.703  24.198  0.00  0.00    +0.108 C 
ATOM     14  C   UNL     1      -3.050  -2.076  24.950  0.00  0.00    +0.216 C 
ENDROOT
BRANCH   6  11
ATOM     11  C   UNL     1      -1.189   0.963  23.577  0.00  0.00    +0.061 C 
BRANCH  11  13
ATOM      5  N   UNL     1      -0.046   2.873  24.478  0.00  0.00    -0.287 NA
ATOM     13  C   UNL     1      -1.113   2.438  23.895  0.00  0.00    +0.044 C 
ATOM     16  C   UNL     1      -2.261   3.307  23.532  0.00  0.00    -0.001 A 
ATOM     18  C   UNL     1      -2.335   4.553  24.167  0.00  0.00    -0.037 A 
ATOM     19  C   UNL     1       0.053   4.315  24.731  0.00  0.00    +0.146 C 
ATOM     20  C   UNL     1      -1.277   4.915  25.168  0.00  0.00    +0.059 C 
ATOM     22  C   UNL     1      -3.241   2.920  22.615  0.00  0.00    +0.010 A 
ATOM     23  C   UNL     1      -3.412   5.402  23.899  0.00  0.00    +0.004 A 
ATOM     24  C   UNL     1      -4.305   3.782  22.342  0.00  0.00    +0.001 A 
ATOM     26  C   UNL     1      -4.392   5.018  22.984  0.00  0.00    +0.000 A 
ENDBRANCH  11  13
ENDBRANCH   6  11
BRANCH   7  12
ATOM     12  C   UNL     1       1.551  -0.010  22.655  0.00  0.00    +0.124 C 
BRANCH  12  15
ATOM      3  O   UNL     1       3.638   1.190  23.031  0.00  0.00    -0.251 OA
ATOM     15  C   UNL     1       2.992   0.153  23.050  0.00  0.00    +0.305 C 
BRANCH  15   2
ATOM      2  O   UNL     1       3.498  -1.044  23.444  0.00  0.00    -0.481 OA
ATOM     32  H   UNL     1       4.077  -0.955  24.231  0.00  0.00    +0.295 HD
ENDBRANCH  15   2
ENDBRANCH  12  15
ENDBRANCH   7  12
BRANCH  14  17
ATOM     17  C   UNL     1      -3.918  -1.086  25.686  0.00  0.00    +0.100 C 
BRANCH  17  21
ATOM     21  C   UNL     1      -4.693  -0.220  24.704  0.00  0.00    +0.044 C 
BRANCH  21  25
ATOM     25  C   UNL     1      -4.938   1.180  25.209  0.00  0.00    -0.047 A 
ATOM     27  C   UNL     1      -6.167   1.801  24.978  0.00  0.00    +0.003 A 
ATOM     28  C   UNL     1      -3.937   1.855  25.907  0.00  0.00    +0.003 A 
ATOM     29  C   UNL     1      -6.392   3.096  25.445  0.00  0.00    +0.000 A 
ATOM     30  C   UNL     1      -4.162   3.150  26.373  0.00  0.00    +0.000 A 
ATOM     31  C   UNL     1      -5.391   3.770  26.142  0.00  0.00    +0.000 A 
ENDBRANCH  21  25
ENDBRANCH  17  21
ENDBRANCH  14  17
TORSDOF 8
ENDMDL
MODEL 5
REMARK VINA RESULT:      -0.5      1.719      4.739
REMARK  Name = 51136698
REMARK  8 active torsions:
REMARK  status: ('A' for Active; 'I' for Inactive)
REMARK    1  A    between atoms: O_2  and  C_15
REMARK    2  A    between atoms: C_6  and  C_11
REMARK    3  A    between atoms: C_7  and  C_12
REMARK    4  A    between atoms: C_11  and  C_13
REMARK    5  A    between atoms: C_12  and  C_15
REMARK    6  A    between atoms: C_14  and  C_17
REMARK    7  A    between atoms: C_17  and  C_21
REMARK    8  A    between atoms: C_21  and  C_25
REMARK                            x       y       z     vdW  Elec       q    Type
REMARK                         _______ _______ _______ _____ _____    ______ ____
ROOT
ATOM      1  O   UNL     1       0.150  -2.041  24.754  0.00  0.00    -0.276 OA
ATOM      4  N   UNL     1      -1.739  -0.821  24.171  0.00  0.00    -0.301 N 
ATOM      6  C   UNL     1      -3.400   0.974  24.608  0.00  0.00    +0.016 C 
ATOM      7  C   UNL     1      -4.412  -0.118  25.039  0.00  0.00    +0.006 C 
ATOM      8  C   UNL     1      -3.697  -1.376  25.561  0.00  0.00    +0.023 C 
ATOM      9  C   UNL     1      -2.380   0.380  23.620  0.00  0.00    +0.112 C 
ATOM     10  C   UNL     1      -2.665  -1.885  24.557  0.00  0.00    +0.108 C 
ATOM     14  C   UNL     1      -0.365  -1.011  24.312  0.00  0.00    +0.216 C 
ENDROOT
BRANCH   6  11
ATOM     11  C   UNL     1      -2.678   1.651  25.778  0.00  0.00    +0.061 C 
BRANCH  11  13
ATOM      5  N   UNL     1      -0.577   2.769  25.456  0.00  0.00    -0.287 NA
ATOM     13  C   UNL     1      -1.855   2.812  25.271  0.00  0.00    +0.044 C 
ATOM     16  C   UNL     1      -2.548   3.939  24.599  0.00  0.00    -0.001 A 
ATOM     18  C   UNL     1      -1.840   5.143  24.494  0.00  0.00    -0.037 A 
ATOM     19  C   UNL     1       0.228   3.867  24.909  0.00  0.00    +0.146 C 
ATOM     20  C   UNL     1      -0.458   5.218  25.071  0.00  0.00    +0.059 C 
ATOM     22  C   UNL     1      -3.849   3.837  24.100  0.00  0.00    +0.010 A 
ATOM     23  C   UNL     1      -2.451   6.255  23.907  0.00  0.00    +0.004 A 
ATOM     24  C   UNL     1      -4.445   4.948  23.501  0.00  0.00    +0.001 A 
ATOM     26  C   UNL     1      -3.749   6.154  23.408  0.00  0.00    +0.000 A 
ENDBRANCH  11  13
ENDBRANCH   6  11
BRANCH   7  12
ATOM     12  C   UNL     1      -5.437   0.380  26.057  0.00  0.00    +0.124 C 
BRANCH  12  15
ATOM      3  O   UNL     1      -6.703   1.770  24.507  0.00  0.00    -0.251 OA
ATOM     15  C   UNL     1      -6.137   1.622  25.579  0.00  0.00    +0.305 C 
BRANCH  15   2
ATOM      2  O   UNL     1      -6.054   2.588  26.529  0.00  0.00    -0.481 OA
ATOM     32  H   UNL     1      -6.681   3.324  26.358  0.00  0.00    +0.295 HD
ENDBRANCH  15   2
ENDBRANCH  12  15
ENDBRANCH   7  12
BRANCH  14  17
ATOM     17  C   UNL     1       0.522   0.135  23.893  0.00  0.00    +0.100 C 
BRANCH  17  21
ATOM     21  C   UNL     1       1.411  -0.277  22.728  0.00  0.00    +0.044 C 
BRANCH  21  25
ATOM     25  C   UNL     1       2.883  -0.237  23.058  0.00  0.00    -0.047 A 
ATOM     27  C   UNL     1       3.625   0.918  22.804  0.00  0.00    +0.003 A 
ATOM     28  C   UNL     1       3.503  -1.354  23.619  0.00  0.00    +0.003 A 
ATOM     29  C   UNL     1       4.985   0.954  23.109  0.00  0.00    +0.000 A 
ATOM     30  C   UNL     1       4.863  -1.317  23.924  0.00  0.00    +0.000 A 
ATOM     31  C   UNL     1       5.604  -0.163  23.669  0.00  0.00    +0.000 A 
ENDBRANCH  21  25
ENDBRANCH  17  21
ENDBRANCH  14  17
TORSDOF 8
ENDMDL
MODEL 6
REMARK VINA RESULT:      -0.5      2.306      5.811
REMARK  Name = 51136698
REMARK  8 active torsions:
REMARK  status: ('A' for Active; 'I' for Inactive)
REMARK    1  A    between atoms: O_2  and  C_15
REMARK    2  A    between atoms: C_6  and  C_11
REMARK    3  A    between atoms: C_7  and  C_12
REMARK    4  A    between atoms: C_11  and  C_13
REMARK    5  A    between atoms: C_12  and  C_15
REMARK    6  A    between atoms: C_14  and  C_17
REMARK    7  A    between atoms: C_17  and  C_21
REMARK    8  A    between atoms: C_21  and  C_25
REMARK                            x       y       z     vdW  Elec       q    Type
REMARK                         _______ _______ _______ _____ _____    ______ ____
ROOT
ATOM      1  O   UNL     1      -0.709   5.907  25.373  0.00  0.00    -0.276 OA
ATOM      4  N   UNL     1      -1.073   4.074  23.994  0.00  0.00    -0.301 N 
ATOM      6  C   UNL     1      -1.486   1.649  23.648  0.00  0.00    +0.016 C 
ATOM      7  C   UNL     1      -0.003   1.493  23.227  0.00  0.00    +0.006 C 
ATOM      8  C   UNL     1       0.883   2.578  23.864  0.00  0.00    +0.023 C 
ATOM      9  C   UNL     1      -1.962   3.086  23.368  0.00  0.00    +0.112 C 
ATOM     10  C   UNL     1       0.330   3.975  23.591  0.00  0.00    +0.108 C 
ATOM     14  C   UNL     1      -1.472   5.072  24.882  0.00  0.00    +0.216 C 
ENDROOT
BRANCH   6  11
ATOM     11  C   UNL     1      -1.762   1.271  25.108  0.00  0.00    +0.061 C 
BRANCH  11  13
ATOM      5  N   UNL     1      -0.584  -0.667  25.898  0.00  0.00    -0.287 NA
ATOM     13  C   UNL     1      -1.631  -0.223  25.285  0.00  0.00    +0.044 C 
ATOM     16  C   UNL     1      -2.697  -1.104  24.745  0.00  0.00    -0.001 A 
ATOM     18  C   UNL     1      -2.374  -2.456  24.576  0.00  0.00    -0.037 A 
ATOM     19  C   UNL     1      -0.486  -2.113  26.124  0.00  0.00    +0.146 C 
ATOM     20  C   UNL     1      -0.991  -2.916  24.932  0.00  0.00    +0.059 C 
ATOM     22  C   UNL     1      -3.965  -0.630  24.399  0.00  0.00    +0.010 A 
ATOM     23  C   UNL     1      -3.321  -3.330  24.034  0.00  0.00    +0.004 A 
ATOM     24  C   UNL     1      -4.909  -1.513  23.873  0.00  0.00    +0.001 A 
ATOM     26  C   UNL     1      -4.587  -2.858  23.688  0.00  0.00    +0.000 A 
ENDBRANCH  11  13
ENDBRANCH   6  11
BRANCH   7  12
ATOM     12  C   UNL     1       0.561   0.102  23.513  0.00  0.00    +0.124 C 
BRANCH  12  15
ATOM      3  O   UNL     1       1.450  -0.563  21.343  0.00  0.00    -0.251 OA
ATOM     15  C   UNL     1       1.622  -0.283  22.520  0.00  0.00    +0.305 C 
BRANCH  15   2
ATOM      2  O   UNL     1       2.838  -0.277  23.124  0.00  0.00    -0.481 OA
ATOM     32  H   UNL     1       2.762  -0.193  24.099  0.00  0.00    +0.295 HD
ENDBRANCH  15   2
ENDBRANCH  12  15
ENDBRANCH   7  12
BRANCH  14  17
ATOM     17  C   UNL     1      -2.935   5.105  25.248  0.00  0.00    +0.100 C 
BRANCH  17  21
ATOM     21  C   UNL     1      -3.256   4.020  26.266  0.00  0.00    +0.044 C 
BRANCH  21  25
ATOM     25  C   UNL     1      -4.438   3.168  25.876  0.00  0.00    -0.047 A 
ATOM     27  C   UNL     1      -5.252   2.609  26.862  0.00  0.00    +0.003 A 
ATOM     28  C   UNL     1      -4.719   2.939  24.528  0.00  0.00    +0.003 A 
ATOM     29  C   UNL     1      -6.345   1.821  26.500  0.00  0.00    +0.000 A 
ATOM     30  C   UNL     1      -5.811   2.151  24.167  0.00  0.00    +0.000 A 
ATOM     31  C   UNL     1      -6.624   1.592  25.153  0.00  0.00    +0.000 A 
ENDBRANCH  21  25
ENDBRANCH  17  21
ENDBRANCH  14  17
TORSDOF 8
ENDMDL
