MODEL 1
REMARK VINA RESULT:      -3.4      0.000      0.000
REMARK  Name = 56774929
REMARK  10 active torsions:
REMARK  status: ('A' for Active; 'I' for Inactive)
REMARK    1  A    between atoms: O_2  and  C_15
REMARK    2  A    between atoms: O_4  and  C_24
REMARK    3  A    between atoms: O_4  and  C_27
REMARK    4  A    between atoms: N_6  and  C_18
REMARK    5  A    between atoms: N_7  and  C_21
REMARK    6  A    between atoms: C_8  and  C_14
REMARK    7  A    between atoms: C_13  and  C_15
REMARK    8  A    between atoms: C_15  and  C_17
REMARK    9  A    between atoms: C_18  and  C_24
REMARK   10  A    between atoms: C_27  and  C_28
REMARK                            x       y       z     vdW  Elec       q    Type
REMARK                         _______ _______ _______ _____ _____    ______ ____
ROOT
ATOM     15  C   UNL     1      -2.874   2.954  24.215  0.00  0.00    +0.167 C 
ENDROOT
BRANCH  15  13
ATOM      1  O   UNL     1      -4.977   4.359  25.704  0.00  0.00    -0.369 OA
ATOM      5  O   UNL     1      -6.965   1.549  24.611  0.00  0.00    -0.273 OA
ATOM      6  N   UNL     1      -4.709   1.617  25.180  0.00  0.00    -0.289 N 
ATOM     13  C   UNL     1      -3.546   2.455  25.498  0.00  0.00    +0.135 C 
ATOM     16  C   UNL     1      -3.969   3.620  26.384  0.00  0.00    +0.185 C 
ATOM     19  C   UNL     1      -5.984   2.160  25.040  0.00  0.00    +0.242 C 
ATOM     20  C   UNL     1      -6.148   3.589  25.547  0.00  0.00    +0.255 C 
BRANCH   6  18
ATOM     18  C   UNL     1      -4.461   0.224  24.833  0.00  0.00    +0.136 C 
BRANCH  18  24
ATOM     24  C   UNL     1      -3.456  -0.414  25.774  0.00  0.00    +0.178 C 
BRANCH  24   4
ATOM      4  O   UNL     1      -3.675  -1.818  25.819  0.00  0.00    -0.378 OA
BRANCH   4  27
ATOM     27  C   UNL     1      -3.416  -2.427  24.563  0.00  0.00    +0.156 C 
ATOM     28  C   UNL     1      -1.921  -2.581  24.388  0.00  0.00    +0.034 C 
ENDBRANCH   4  27
ENDBRANCH  24   4
ENDBRANCH  18  24
ENDBRANCH   6  18
ENDBRANCH  15  13
BRANCH  15  17
ATOM     17  C   UNL     1      -1.525   2.315  24.005  0.00  0.00    -0.017 A 
ATOM     21  C   UNL     1       0.970   1.128  23.618  0.00  0.00    +0.033 A 
ATOM     22  C   UNL     1      -1.432   1.080  23.362  0.00  0.00    +0.008 A 
ATOM     23  C   UNL     1      -0.370   2.956  24.453  0.00  0.00    +0.008 A 
ATOM     25  C   UNL     1      -0.184   0.487  23.169  0.00  0.00    +0.023 A 
ATOM     26  C   UNL     1       0.877   2.363  24.259  0.00  0.00    +0.023 A 
BRANCH  21   7
ATOM      3  O   UNL     1       2.137  -0.223  21.193  0.00  0.00    -0.275 OA
ATOM      7  N   UNL     1       2.218   0.536  23.424  0.00  0.00    -0.285 N 
ATOM     14  C   UNL     1       2.712  -0.084  22.268  0.00  0.00    +0.220 C 
ATOM     29  H   UNL     1       2.840   0.571  24.230  0.00  0.00    +0.155 HD
BRANCH  14   8
ATOM      8  C   UNL     1       4.105  -0.598  22.466  0.00  0.00    +0.075 C 
ATOM      9  C   UNL     1       5.100   0.561  22.561  0.00  0.00    +0.013 C 
ATOM     10  C   UNL     1       4.207  -1.360  23.793  0.00  0.00    +0.013 C 
ATOM     11  C   UNL     1       5.338   0.742  24.054  0.00  0.00    +0.001 C 
ATOM     12  C   UNL     1       5.326  -0.683  24.577  0.00  0.00    +0.001 C 
ENDBRANCH  14   8
ENDBRANCH  21   7
ENDBRANCH  15  17
BRANCH  15   2
ATOM      2  O   UNL     1      -3.714   2.669  23.102  0.00  0.00    -0.385 OA
ATOM     30  H   UNL     1      -3.204   2.768  22.280  0.00  0.00    +0.210 HD
ENDBRANCH  15   2
TORSDOF 9
ENDMDL
MODEL 2
REMARK VINA RESULT:      -3.2      1.505      1.912
REMARK  Name = 56774929
REMARK  10 active torsions:
REMARK  status: ('A' for Active; 'I' for Inactive)
REMARK    1  A    between atoms: O_2  and  C_15
REMARK    2  A    between atoms: O_4  and  C_24
REMARK    3  A    between atoms: O_4  and  C_27
REMARK    4  A    between atoms: N_6  and  C_18
REMARK    5  A    between atoms: N_7  and  C_21
REMARK    6  A    between atoms: C_8  and  C_14
REMARK    7  A    between atoms: C_13  and  C_15
REMARK    8  A    between atoms: C_15  and  C_17
REMARK    9  A    between atoms: C_18  and  C_24
REMARK   10  A    between atoms: C_27  and  C_28
REMARK                            x       y       z     vdW  Elec       q    Type
REMARK                         _______ _______ _______ _____ _____    ______ ____
ROOT
ATOM     15  C   UNL     1      -2.878   3.227  26.296  0.00  0.00    +0.167 C 
ENDROOT
BRANCH  15  13
ATOM      1  O   UNL     1      -3.971   4.412  23.844  0.00  0.00    -0.369 OA
ATOM      5  O   UNL     1      -3.114   1.183  22.471  0.00  0.00    -0.273 OA
ATOM      6  N   UNL     1      -3.859   1.717  24.610  0.00  0.00    -0.289 N 
ATOM     13  C   UNL     1      -4.156   2.779  25.579  0.00  0.00    +0.135 C 
ATOM     16  C   UNL     1      -4.831   3.951  24.878  0.00  0.00    +0.185 C 
ATOM     19  C   UNL     1      -3.536   2.006  23.286  0.00  0.00    +0.242 C 
ATOM     20  C   UNL     1      -3.823   3.434  22.837  0.00  0.00    +0.255 C 
BRANCH   6  18
ATOM     18  C   UNL     1      -3.732   0.357  25.118  0.00  0.00    +0.136 C 
BRANCH  18  24
ATOM     24  C   UNL     1      -4.675  -0.594  24.405  0.00  0.00    +0.178 C 
BRANCH  24   4
ATOM      4  O   UNL     1      -3.950  -1.732  23.957  0.00  0.00    -0.378 OA
BRANCH   4  27
ATOM     27  C   UNL     1      -3.140  -2.274  24.990  0.00  0.00    +0.156 C 
ATOM     28  C   UNL     1      -1.726  -2.436  24.475  0.00  0.00    +0.034 C 
ENDBRANCH   4  27
ENDBRANCH  24   4
ENDBRANCH  18  24
ENDBRANCH   6  18
ENDBRANCH  15  13
BRANCH  15  17
ATOM     17  C   UNL     1      -1.640   2.718  25.603  0.00  0.00    -0.017 A 
ATOM     21  C   UNL     1       0.653   1.775  24.324  0.00  0.00    +0.033 A 
ATOM     22  C   UNL     1      -1.249   1.388  25.763  0.00  0.00    +0.008 A 
ATOM     23  C   UNL     1      -0.885   3.576  24.803  0.00  0.00    +0.008 A 
ATOM     25  C   UNL     1      -0.103   0.918  25.123  0.00  0.00    +0.023 A 
ATOM     26  C   UNL     1       0.261   3.104  24.163  0.00  0.00    +0.023 A 
BRANCH  21   7
ATOM      3  O   UNL     1       1.054  -0.625  22.552  0.00  0.00    -0.275 OA
ATOM      7  N   UNL     1       1.799   1.304  23.684  0.00  0.00    -0.285 N 
ATOM     14  C   UNL     1       1.931   0.174  22.866  0.00  0.00    +0.220 C 
ATOM     29  H   UNL     1       2.635   1.865  23.833  0.00  0.00    +0.155 HD
BRANCH  14   8
ATOM      8  C   UNL     1       3.334   0.010  22.368  0.00  0.00    +0.075 C 
ATOM      9  C   UNL     1       4.164   1.260  22.671  0.00  0.00    +0.013 C 
ATOM     10  C   UNL     1       4.025  -1.149  23.097  0.00  0.00    +0.013 C 
ATOM     11  C   UNL     1       4.948   0.906  23.926  0.00  0.00    +0.001 C 
ATOM     12  C   UNL     1       5.287  -0.559  23.716  0.00  0.00    +0.001 C 
ENDBRANCH  14   8
ENDBRANCH  21   7
ENDBRANCH  15  17
BRANCH  15   2
ATOM      2  O   UNL     1      -2.843   4.649  26.349  0.00  0.00    -0.385 OA
ATOM     30  H   UNL     1      -3.745   4.989  26.475  0.00  0.00    +0.210 HD
ENDBRANCH  15   2
TORSDOF 9
ENDMDL
MODEL 3
REMARK VINA RESULT:      -2.8      1.558      3.213
REMARK  Name = 56774929
REMARK  10 active torsions:
REMARK  status: ('A' for Active; 'I' for Inactive)
REMARK    1  A    between atoms: O_2  and  C_15
REMARK    2  A    between atoms: O_4  and  C_24
REMARK    3  A    between atoms: O_4  and  C_27
REMARK    4  A    between atoms: N_6  and  C_18
REMARK    5  A    between atoms: N_7  and  C_21
REMARK    6  A    between atoms: C_8  and  C_14
REMARK    7  A    between atoms: C_13  and  C_15
REMARK    8  A    between atoms: C_15  and  C_17
REMARK    9  A    between atoms: C_18  and  C_24
REMARK   10  A    between atoms: C_27  and  C_28
REMARK                            x       y       z     vdW  Elec       q    Type
REMARK                         _______ _______ _______ _____ _____    ______ ____
ROOT
ATOM     15  C   UNL     1      -4.153   0.380  24.701  0.00  0.00    +0.167 C 
ENDROOT
BRANCH  15  13
ATOM      1  O   UNL     1      -6.356   1.908  25.893  0.00  0.00    -0.369 OA
ATOM      5  O   UNL     1      -3.674   4.142  26.819  0.00  0.00    -0.273 OA
ATOM      6  N   UNL     1      -3.894   2.824  24.913  0.00  0.00    -0.289 N 
ATOM     13  C   UNL     1      -4.640   1.756  24.236  0.00  0.00    +0.135 C 
ATOM     16  C   UNL     1      -6.134   1.923  24.488  0.00  0.00    +0.185 C 
ATOM     19  C   UNL     1      -4.332   3.371  26.117  0.00  0.00    +0.242 C 
ATOM     20  C   UNL     1      -5.765   3.031  26.510  0.00  0.00    +0.255 C 
BRANCH   6  18
ATOM     18  C   UNL     1      -2.582   3.170  24.382  0.00  0.00    +0.136 C 
BRANCH  18  24
ATOM     24  C   UNL     1      -2.080   4.485  24.950  0.00  0.00    +0.178 C 
BRANCH  24   4
ATOM      4  O   UNL     1      -0.710   4.355  25.305  0.00  0.00    -0.378 OA
BRANCH   4  27
ATOM     27  C   UNL     1      -0.260   3.015  25.167  0.00  0.00    +0.156 C 
ATOM     28  C   UNL     1       0.147   2.489  26.528  0.00  0.00    +0.034 C 
ENDBRANCH   4  27
ENDBRANCH  24   4
ENDBRANCH  18  24
ENDBRANCH   6  18
ENDBRANCH  15  13
BRANCH  15  17
ATOM     17  C   UNL     1      -2.715   0.137  24.318  0.00  0.00    -0.017 A 
ATOM     21  C   UNL     1      -0.056  -0.315  23.606  0.00  0.00    +0.033 A 
ATOM     22  C   UNL     1      -2.226   0.623  23.105  0.00  0.00    +0.008 A 
ATOM     23  C   UNL     1      -1.874  -0.574  25.175  0.00  0.00    +0.008 A 
ATOM     25  C   UNL     1      -0.896   0.396  22.750  0.00  0.00    +0.023 A 
ATOM     26  C   UNL     1      -0.545  -0.800  24.819  0.00  0.00    +0.023 A 
BRANCH  21   7
ATOM      3  O   UNL     1       2.264   1.593  23.403  0.00  0.00    -0.275 OA
ATOM      7  N   UNL     1       1.274  -0.541  23.251  0.00  0.00    -0.285 N 
ATOM     14  C   UNL     1       2.318   0.390  23.171  0.00  0.00    +0.220 C 
ATOM     29  H   UNL     1       1.501  -1.509  23.031  0.00  0.00    +0.155 HD
BRANCH  14   8
ATOM      8  C   UNL     1       3.604  -0.254  22.751  0.00  0.00    +0.075 C 
ATOM      9  C   UNL     1       4.739   0.773  22.728  0.00  0.00    +0.013 C 
ATOM     10  C   UNL     1       4.018  -1.327  23.764  0.00  0.00    +0.013 C 
ATOM     11  C   UNL     1       5.477   0.559  24.041  0.00  0.00    +0.001 C 
ATOM     12  C   UNL     1       5.422  -0.947  24.224  0.00  0.00    +0.001 C 
ENDBRANCH  14   8
ENDBRANCH  21   7
ENDBRANCH  15  17
BRANCH  15   2
ATOM      2  O   UNL     1      -4.291   0.285  26.114  0.00  0.00    -0.385 OA
ATOM     30  H   UNL     1      -4.252   1.175  26.503  0.00  0.00    +0.210 HD
ENDBRANCH  15   2
TORSDOF 9
ENDMDL
