MODEL 1
REMARK VINA RESULT:       3.2      0.000      0.000
REMARK  Name = 45784008
REMARK  4 active torsions:
REMARK  status: ('A' for Active; 'I' for Inactive)
REMARK    1  A    between atoms: O_6  and  C_27
REMARK    2  A    between atoms: O_6  and  C_28
REMARK    3  A    between atoms: N_9  and  C_18
REMARK    4  A    between atoms: C_10  and  C_14
REMARK                            x       y       z     vdW  Elec       q    Type
REMARK                         _______ _______ _______ _____ _____    ______ ____
ROOT
ATOM      5  O   UNL     1      -0.026  -0.855  25.841  0.00  0.00    -0.252 OA
ATOM      7  N   UNL     1      -1.948  -0.908  24.587  0.00  0.00    -0.285 N 
ATOM      9  N   UNL     1       0.118  -0.641  23.522  0.00  0.00    -0.269 N 
ATOM     10  C   UNL     1      -4.239  -0.780  25.214  0.00  0.00    +0.094 C 
ATOM     11  C   UNL     1      -4.136  -1.245  23.754  0.00  0.00    +0.033 C 
ATOM     12  C   UNL     1      -2.829  -1.070  25.739  0.00  0.00    +0.122 C 
ATOM     13  C   UNL     1      -2.716  -0.867  23.345  0.00  0.00    +0.110 C 
ATOM     15  C   UNL     1      -0.559  -0.806  24.731  0.00  0.00    +0.306 C 
ATOM     29  H   UNL     1      -0.435  -0.589  22.673  0.00  0.00    +0.156 HD
ENDROOT
BRANCH  10  14
ATOM      4  O   UNL     1      -3.818   1.612  24.941  0.00  0.00    -0.439 OA
ATOM      8  N   UNL     1      -5.893   1.103  25.700  0.00  0.00    -0.213 NA
ATOM     14  C   UNL     1      -4.719   0.658  25.309  0.00  0.00    +0.201 A 
ATOM     16  C   UNL     1      -4.499   2.781  25.121  0.00  0.00    +0.155 A 
ATOM     17  C   UNL     1      -5.768   2.467  25.585  0.00  0.00    +0.110 A 
ATOM     19  C   UNL     1      -4.038   4.072  24.890  0.00  0.00    +0.048 A 
ATOM     20  C   UNL     1      -6.670   3.507  25.849  0.00  0.00    +0.031 A 
ATOM     21  C   UNL     1      -4.951   5.098  25.159  0.00  0.00    +0.004 A 
ATOM     22  C   UNL     1      -6.241   4.824  25.628  0.00  0.00    +0.002 A 
ENDBRANCH  10  14
BRANCH   9  18
ATOM     18  C   UNL     1       1.513  -0.507  23.319  0.00  0.00    +0.035 A 
ATOM     23  C   UNL     1       2.380  -1.516  23.744  0.00  0.00    +0.027 A 
ATOM     24  C   UNL     1       2.022   0.632  22.697  0.00  0.00    +0.027 A 
ATOM     25  C   UNL     1       3.754  -1.384  23.545  0.00  0.00    +0.048 A 
ATOM     26  C   UNL     1       3.396   0.764  22.498  0.00  0.00    +0.048 A 
ATOM     27  C   UNL     1       4.262  -0.243  22.922  0.00  0.00    +0.130 A 
BRANCH  27   6
ATOM      6  O   UNL     1       5.603  -0.115  22.727  0.00  0.00    -0.406 OA
BRANCH   6  28
ATOM      1  F   UNL     1       6.110   1.303  24.408  0.00  0.00    -0.133 F 
ATOM      2  F   UNL     1       6.235  -0.843  24.801  0.00  0.00    -0.133 F 
ATOM      3  F   UNL     1       7.735   0.147  23.514  0.00  0.00    -0.133 F 
ATOM     28  C   UNL     1       6.431   0.108  23.863  0.00  0.00    +0.575 C 
ENDBRANCH   6  28
ENDBRANCH  27   6
ENDBRANCH   9  18
TORSDOF 4
ENDMDL
