MODEL 1
REMARK VINA RESULT:      -0.3      0.000      0.000
REMARK  Name = 75367641
REMARK  4 active torsions:
REMARK  status: ('A' for Active; 'I' for Inactive)
REMARK    1  A    between atoms: O_7  and  C_12
REMARK    2  A    between atoms: O_7  and  C_18
REMARK    3  A    between atoms: N_10  and  C_19
REMARK    4  A    between atoms: C_22  and  C_28
REMARK                            x       y       z     vdW  Elec       q    Type
REMARK                         _______ _______ _______ _____ _____    ______ ____
ROOT
ATOM      6  O   UNL     1      -0.928   5.356  24.847  0.00  0.00    -0.375 OA
ATOM      8  O   UNL     1      -3.985   2.002  25.015  0.00  0.00    -0.252 OA
ATOM      9  N   UNL     1      -1.873   2.707  25.643  0.00  0.00    -0.280 N 
ATOM     10  N   UNL     1      -2.160   0.648  24.527  0.00  0.00    -0.267 N 
ATOM     12  C   UNL     1       0.247   3.235  24.417  0.00  0.00    +0.218 C 
ATOM     13  C   UNL     1      -0.407   2.594  25.643  0.00  0.00    +0.156 C 
ATOM     14  C   UNL     1      -2.396   3.951  26.214  0.00  0.00    +0.137 C 
ATOM     15  C   UNL     1      -0.468   4.458  23.841  0.00  0.00    +0.206 C 
ATOM     16  C   UNL     1      -2.281   5.113  25.235  0.00  0.00    +0.179 C 
ATOM     17  C   UNL     1      -2.771   1.785  25.057  0.00  0.00    +0.307 C 
ATOM     30  H   UNL     1      -1.195   0.728  24.223  0.00  0.00    +0.156 HD
ENDROOT
BRANCH  10  19
ATOM      1  F   UNL     1      -0.733  -1.604  25.343  0.00  0.00    -0.203 F 
ATOM      5  F   UNL     1      -4.300  -4.451  24.092  0.00  0.00    -0.205 F 
ATOM     19  C   UNL     1      -2.704  -0.655  24.416  0.00  0.00    +0.070 A 
ATOM     23  C   UNL     1      -1.964  -1.761  24.835  0.00  0.00    +0.147 A 
ATOM     24  C   UNL     1      -3.985  -0.832  23.889  0.00  0.00    +0.029 A 
ATOM     26  C   UNL     1      -2.502  -3.043  24.726  0.00  0.00    +0.078 A 
ATOM     27  C   UNL     1      -4.522  -2.114  23.780  0.00  0.00    +0.040 A 
ATOM     29  C   UNL     1      -3.782  -3.220  24.198  0.00  0.00    +0.126 A 
ENDBRANCH  10  19
BRANCH  12   7
ATOM      7  O   UNL     1       0.372   2.252  23.390  0.00  0.00    -0.469 OA
BRANCH   7  18
ATOM     11  N   UNL     1       2.688   2.145  23.293  0.00  0.00    -0.221 NA
ATOM     18  C   UNL     1       1.510   1.490  23.407  0.00  0.00    +0.215 A 
ATOM     20  C   UNL     1       1.396   0.116  23.539  0.00  0.00    +0.068 A 
ATOM     21  C   UNL     1       2.565  -0.635  23.554  0.00  0.00    +0.019 A 
ATOM     22  C   UNL     1       3.796   0.001  23.439  0.00  0.00    +0.073 A 
ATOM     25  C   UNL     1       3.802   1.381  23.312  0.00  0.00    +0.127 A 
BRANCH  22  28
ATOM      2  F   UNL     1       5.853  -0.560  22.355  0.00  0.00    -0.166 F 
ATOM      3  F   UNL     1       5.868  -0.499  24.522  0.00  0.00    -0.166 F 
ATOM      4  F   UNL     1       4.858  -2.125  23.492  0.00  0.00    -0.166 F 
ATOM     28  C   UNL     1       5.064  -0.775  23.451  0.00  0.00    +0.419 C 
ENDBRANCH  22  28
ENDBRANCH   7  18
ENDBRANCH  12   7
TORSDOF 4
ENDMDL
MODEL 2
REMARK VINA RESULT:       0.6      4.151      6.346
REMARK  Name = 75367641
REMARK  4 active torsions:
REMARK  status: ('A' for Active; 'I' for Inactive)
REMARK    1  A    between atoms: O_7  and  C_12
REMARK    2  A    between atoms: O_7  and  C_18
REMARK    3  A    between atoms: N_10  and  C_19
REMARK    4  A    between atoms: C_22  and  C_28
REMARK                            x       y       z     vdW  Elec       q    Type
REMARK                         _______ _______ _______ _____ _____    ______ ____
ROOT
ATOM      6  O   UNL     1      -1.841  -3.454  24.635  0.00  0.00    -0.375 OA
ATOM      8  O   UNL     1      -5.362  -0.586  24.636  0.00  0.00    -0.252 OA
ATOM      9  N   UNL     1      -3.215  -0.990  23.873  0.00  0.00    -0.280 N 
ATOM     10  N   UNL     1      -3.727   1.030  24.980  0.00  0.00    -0.267 N 
ATOM     12  C   UNL     1      -0.965  -1.176  24.956  0.00  0.00    +0.218 C 
ATOM     13  C   UNL     1      -1.785  -0.664  23.770  0.00  0.00    +0.156 C 
ATOM     14  C   UNL     1      -3.587  -2.309  23.355  0.00  0.00    +0.137 C 
ATOM     15  C   UNL     1      -1.453  -2.476  25.595  0.00  0.00    +0.206 C 
ATOM     16  C   UNL     1      -3.239  -3.419  24.337  0.00  0.00    +0.179 C 
ATOM     17  C   UNL     1      -4.199  -0.195  24.507  0.00  0.00    +0.307 C 
ATOM     30  H   UNL     1      -2.743   1.098  25.218  0.00  0.00    +0.156 HD
ENDROOT
BRANCH  10  19
ATOM      1  F   UNL     1      -3.229   3.212  23.318  0.00  0.00    -0.203 F 
ATOM      5  F   UNL     1      -6.556   5.773  25.501  0.00  0.00    -0.205 F 
ATOM     19  C   UNL     1      -4.448   2.243  25.112  0.00  0.00    +0.070 A 
ATOM     23  C   UNL     1      -4.175   3.316  24.263  0.00  0.00    +0.147 A 
ATOM     24  C   UNL     1      -5.435   2.362  26.091  0.00  0.00    +0.029 A 
ATOM     26  C   UNL     1      -4.886   4.508  24.394  0.00  0.00    +0.078 A 
ATOM     27  C   UNL     1      -6.146   3.555  26.223  0.00  0.00    +0.040 A 
ATOM     29  C   UNL     1      -5.872   4.628  25.374  0.00  0.00    +0.126 A 
ENDBRANCH  10  19
BRANCH  12   7
ATOM      7  O   UNL     1      -0.917  -0.162  25.960  0.00  0.00    -0.469 OA
BRANCH   7  18
ATOM     11  N   UNL     1      -1.258   2.099  26.346  0.00  0.00    -0.221 NA
ATOM     18  C   UNL     1      -0.803   1.129  25.521  0.00  0.00    +0.215 A 
ATOM     20  C   UNL     1      -0.238   1.370  24.279  0.00  0.00    +0.068 A 
ATOM     21  C   UNL     1      -0.134   2.689  23.856  0.00  0.00    +0.019 A 
ATOM     22  C   UNL     1      -0.591   3.715  24.676  0.00  0.00    +0.073 A 
ATOM     25  C   UNL     1      -1.140   3.370  25.901  0.00  0.00    +0.127 A 
BRANCH  22  28
ATOM      2  F   UNL     1       0.200   5.927  25.127  0.00  0.00    -0.166 F 
ATOM      3  F   UNL     1       0.134   5.311  23.049  0.00  0.00    -0.166 F 
ATOM      4  F   UNL     1      -1.714   5.734  24.113  0.00  0.00    -0.166 F 
ATOM     28  C   UNL     1      -0.493   5.137  24.252  0.00  0.00    +0.419 C 
ENDBRANCH  22  28
ENDBRANCH   7  18
ENDBRANCH  12   7
TORSDOF 4
ENDMDL
MODEL 3
REMARK VINA RESULT:       0.7      1.886      5.873
REMARK  Name = 75367641
REMARK  4 active torsions:
REMARK  status: ('A' for Active; 'I' for Inactive)
REMARK    1  A    between atoms: O_7  and  C_12
REMARK    2  A    between atoms: O_7  and  C_18
REMARK    3  A    between atoms: N_10  and  C_19
REMARK    4  A    between atoms: C_22  and  C_28
REMARK                            x       y       z     vdW  Elec       q    Type
REMARK                         _______ _______ _______ _____ _____    ______ ____
ROOT
ATOM      6  O   UNL     1      -4.692   4.211  26.195  0.00  0.00    -0.375 OA
ATOM      8  O   UNL     1      -0.816   1.866  26.511  0.00  0.00    -0.252 OA
ATOM      9  N   UNL     1      -1.888   3.683  25.561  0.00  0.00    -0.280 N 
ATOM     10  N   UNL     1      -0.766   2.115  24.200  0.00  0.00    -0.267 N 
ATOM     12  C   UNL     1      -3.765   3.966  23.927  0.00  0.00    +0.218 C 
ATOM     13  C   UNL     1      -2.392   4.443  24.407  0.00  0.00    +0.156 C 
ATOM     14  C   UNL     1      -2.337   4.172  26.867  0.00  0.00    +0.137 C 
ATOM     15  C   UNL     1      -4.701   3.424  25.008  0.00  0.00    +0.206 C 
ATOM     16  C   UNL     1      -3.764   3.736  27.173  0.00  0.00    +0.179 C 
ATOM     17  C   UNL     1      -1.118   2.498  25.495  0.00  0.00    +0.307 C 
ATOM     30  H   UNL     1      -1.370   2.409  23.439  0.00  0.00    +0.156 HD
ENDROOT
BRANCH  10  19
ATOM      1  F   UNL     1      -0.684  -0.671  24.194  0.00  0.00    -0.203 F 
ATOM      5  F   UNL     1       3.770  -0.646  22.598  0.00  0.00    -0.205 F 
ATOM     19  C   UNL     1       0.392   1.408  23.792  0.00  0.00    +0.070 A 
ATOM     23  C   UNL     1       0.400   0.013  23.800  0.00  0.00    +0.147 A 
ATOM     24  C   UNL     1       1.526   2.109  23.379  0.00  0.00    +0.029 A 
ATOM     26  C   UNL     1       1.540  -0.681  23.397  0.00  0.00    +0.078 A 
ATOM     27  C   UNL     1       2.666   1.415  22.976  0.00  0.00    +0.040 A 
ATOM     29  C   UNL     1       2.674   0.020  22.985  0.00  0.00    +0.126 A 
ENDBRANCH  10  19
BRANCH  12   7
ATOM      7  O   UNL     1      -3.586   2.961  22.930  0.00  0.00    -0.469 OA
BRANCH   7  18
ATOM     11  N   UNL     1      -2.923   0.759  22.627  0.00  0.00    -0.221 NA
ATOM     18  C   UNL     1      -3.614   1.661  23.359  0.00  0.00    +0.215 A 
ATOM     20  C   UNL     1      -4.335   1.346  24.499  0.00  0.00    +0.068 A 
ATOM     21  C   UNL     1      -4.348   0.019  24.914  0.00  0.00    +0.019 A 
ATOM     22  C   UNL     1      -3.650  -0.938  24.187  0.00  0.00    +0.073 A 
ATOM     25  C   UNL     1      -2.959  -0.520  23.061  0.00  0.00    +0.127 A 
BRANCH  22  28
ATOM      2  F   UNL     1      -2.511  -3.041  24.246  0.00  0.00    -0.166 F 
ATOM      3  F   UNL     1      -3.746  -2.543  25.958  0.00  0.00    -0.166 F 
ATOM      4  F   UNL     1      -4.678  -3.079  24.068  0.00  0.00    -0.166 F 
ATOM     28  C   UNL     1      -3.644  -2.365  24.606  0.00  0.00    +0.419 C 
ENDBRANCH  22  28
ENDBRANCH   7  18
ENDBRANCH  12   7
TORSDOF 4
ENDMDL
MODEL 4
REMARK VINA RESULT:       1.3      2.073      2.706
REMARK  Name = 75367641
REMARK  4 active torsions:
REMARK  status: ('A' for Active; 'I' for Inactive)
REMARK    1  A    between atoms: O_7  and  C_12
REMARK    2  A    between atoms: O_7  and  C_18
REMARK    3  A    between atoms: N_10  and  C_19
REMARK    4  A    between atoms: C_22  and  C_28
REMARK                            x       y       z     vdW  Elec       q    Type
REMARK                         _______ _______ _______ _____ _____    ______ ____
ROOT
ATOM      6  O   UNL     1      -2.004   5.631  24.711  0.00  0.00    -0.375 OA
ATOM      8  O   UNL     1      -3.427   1.793  22.744  0.00  0.00    -0.252 OA
ATOM      9  N   UNL     1      -3.585   3.175  24.593  0.00  0.00    -0.280 N 
ATOM     10  N   UNL     1      -3.100   0.881  24.856  0.00  0.00    -0.267 N 
ATOM     12  C   UNL     1      -2.016   3.859  26.421  0.00  0.00    +0.218 C 
ATOM     13  C   UNL     1      -3.438   3.453  26.029  0.00  0.00    +0.156 C 
ATOM     14  C   UNL     1      -3.863   4.349  23.762  0.00  0.00    +0.137 C 
ATOM     15  C   UNL     1      -1.226   4.633  25.365  0.00  0.00    +0.206 C 
ATOM     16  C   UNL     1      -2.604   5.166  23.501  0.00  0.00    +0.179 C 
ATOM     17  C   UNL     1      -3.379   1.922  23.970  0.00  0.00    +0.307 C 
ATOM     30  H   UNL     1      -2.672   1.118  25.745  0.00  0.00    +0.156 HD
ENDROOT
BRANCH  10  19
ATOM      1  F   UNL     1      -2.377  -1.003  26.780  0.00  0.00    -0.203 F 
ATOM      5  F   UNL     1      -4.307  -4.498  24.240  0.00  0.00    -0.205 F 
ATOM     19  C   UNL     1      -3.407  -0.494  24.701  0.00  0.00    +0.070 A 
ATOM     23  C   UNL     1      -3.031  -1.411  25.682  0.00  0.00    +0.147 A 
ATOM     24  C   UNL     1      -4.089  -0.930  23.564  0.00  0.00    +0.029 A 
ATOM     26  C   UNL     1      -3.335  -2.763  25.527  0.00  0.00    +0.078 A 
ATOM     27  C   UNL     1      -4.392  -2.282  23.408  0.00  0.00    +0.040 A 
ATOM     29  C   UNL     1      -4.015  -3.199  24.390  0.00  0.00    +0.126 A 
ENDBRANCH  10  19
BRANCH  12   7
ATOM      7  O   UNL     1      -1.280   2.690  26.778  0.00  0.00    -0.469 OA
BRANCH   7  18
ATOM     11  N   UNL     1      -0.553   0.746  25.741  0.00  0.00    -0.221 NA
ATOM     18  C   UNL     1      -0.550   2.098  25.783  0.00  0.00    +0.215 A 
ATOM     20  C   UNL     1       0.141   2.900  24.889  0.00  0.00    +0.068 A 
ATOM     21  C   UNL     1       0.874   2.276  23.888  0.00  0.00    +0.019 A 
ATOM     22  C   UNL     1       0.896   0.888  23.811  0.00  0.00    +0.073 A 
ATOM     25  C   UNL     1       0.171   0.175  24.753  0.00  0.00    +0.127 A 
BRANCH  22  28
ATOM      2  F   UNL     1       0.921  -0.171  21.666  0.00  0.00    -0.166 F 
ATOM      3  F   UNL     1       2.696   0.936  22.237  0.00  0.00    -0.166 F 
ATOM      4  F   UNL     1       2.251  -0.965  23.192  0.00  0.00    -0.166 F 
ATOM     28  C   UNL     1       1.672   0.190  22.751  0.00  0.00    +0.419 C 
ENDBRANCH  22  28
ENDBRANCH   7  18
ENDBRANCH  12   7
TORSDOF 4
ENDMDL
MODEL 5
REMARK VINA RESULT:       2.6      2.562      5.262
REMARK  Name = 75367641
REMARK  4 active torsions:
REMARK  status: ('A' for Active; 'I' for Inactive)
REMARK    1  A    between atoms: O_7  and  C_12
REMARK    2  A    between atoms: O_7  and  C_18
REMARK    3  A    between atoms: N_10  and  C_19
REMARK    4  A    between atoms: C_22  and  C_28
REMARK                            x       y       z     vdW  Elec       q    Type
REMARK                         _______ _______ _______ _____ _____    ______ ____
ROOT
ATOM      6  O   UNL     1      -3.435  -3.488  24.509  0.00  0.00    -0.375 OA
ATOM      8  O   UNL     1      -4.578   0.869  25.086  0.00  0.00    -0.252 OA
ATOM      9  N   UNL     1      -3.386  -0.650  23.812  0.00  0.00    -0.280 N 
ATOM     10  N   UNL     1      -2.318   1.255  24.705  0.00  0.00    -0.267 N 
ATOM     12  C   UNL     1      -1.405  -2.126  24.223  0.00  0.00    +0.218 C 
ATOM     13  C   UNL     1      -2.136  -1.190  23.258  0.00  0.00    +0.156 C 
ATOM     14  C   UNL     1      -4.563  -1.502  23.624  0.00  0.00    +0.137 C 
ATOM     15  C   UNL     1      -2.292  -2.945  25.161  0.00  0.00    +0.206 C 
ATOM     16  C   UNL     1      -4.590  -2.654  24.620  0.00  0.00    +0.179 C 
ATOM     17  C   UNL     1      -3.506   0.535  24.574  0.00  0.00    +0.307 C 
ATOM     30  H   UNL     1      -1.444   0.742  24.639  0.00  0.00    +0.156 HD
ENDROOT
BRANCH  10  19
ATOM      1  F   UNL     1      -0.006   2.366  25.797  0.00  0.00    -0.203 F 
ATOM      5  F   UNL     1      -1.734   6.740  25.285  0.00  0.00    -0.205 F 
ATOM     19  C   UNL     1      -2.167   2.656  24.854  0.00  0.00    +0.070 A 
ATOM     23  C   UNL     1      -0.997   3.179  25.404  0.00  0.00    +0.147 A 
ATOM     24  C   UNL     1      -3.191   3.513  24.449  0.00  0.00    +0.029 A 
ATOM     26  C   UNL     1      -0.850   4.558  25.550  0.00  0.00    +0.078 A 
ATOM     27  C   UNL     1      -3.045   4.892  24.596  0.00  0.00    +0.040 A 
ATOM     29  C   UNL     1      -1.874   5.415  25.146  0.00  0.00    +0.126 A 
ENDBRANCH  10  19
BRANCH  12   7
ATOM      7  O   UNL     1      -0.490  -1.361  25.008  0.00  0.00    -0.469 OA
BRANCH   7  18
ATOM     11  N   UNL     1       0.468   0.401  23.844  0.00  0.00    -0.221 NA
ATOM     18  C   UNL     1       0.596  -0.845  24.354  0.00  0.00    +0.215 A 
ATOM     20  C   UNL     1       1.746  -1.611  24.253  0.00  0.00    +0.068 A 
ATOM     21  C   UNL     1       2.835  -1.063  23.585  0.00  0.00    +0.019 A 
ATOM     22  C   UNL     1       2.742   0.215  23.045  0.00  0.00    +0.073 A 
ATOM     25  C   UNL     1       1.547   0.899  23.201  0.00  0.00    +0.127 A 
BRANCH  22  28
ATOM      2  F   UNL     1       3.856   0.637  20.971  0.00  0.00    -0.166 F 
ATOM      3  F   UNL     1       3.983   2.182  22.487  0.00  0.00    -0.166 F 
ATOM      4  F   UNL     1       5.096   0.330  22.731  0.00  0.00    -0.166 F 
ATOM     28  C   UNL     1       3.890   0.827  22.325  0.00  0.00    +0.419 C 
ENDBRANCH  22  28
ENDBRANCH   7  18
ENDBRANCH  12   7
TORSDOF 4
ENDMDL
MODEL 6
REMARK VINA RESULT:       3.4      3.074      5.172
REMARK  Name = 75367641
REMARK  4 active torsions:
REMARK  status: ('A' for Active; 'I' for Inactive)
REMARK    1  A    between atoms: O_7  and  C_12
REMARK    2  A    between atoms: O_7  and  C_18
REMARK    3  A    between atoms: N_10  and  C_19
REMARK    4  A    between atoms: C_22  and  C_28
REMARK                            x       y       z     vdW  Elec       q    Type
REMARK                         _______ _______ _______ _____ _____    ______ ____
ROOT
ATOM      6  O   UNL     1      -1.986  -3.226  24.548  0.00  0.00    -0.375 OA
ATOM      8  O   UNL     1      -5.044  -0.275  26.146  0.00  0.00    -0.252 OA
ATOM      9  N   UNL     1      -3.942  -1.073  24.275  0.00  0.00    -0.280 N 
ATOM     10  N   UNL     1      -3.942   1.236  24.764  0.00  0.00    -0.267 N 
ATOM     12  C   UNL     1      -1.567  -1.047  23.482  0.00  0.00    +0.218 C 
ATOM     13  C   UNL     1      -3.047  -0.909  23.120  0.00  0.00    +0.156 C 
ATOM     14  C   UNL     1      -4.311  -2.458  24.579  0.00  0.00    +0.137 C 
ATOM     15  C   UNL     1      -1.244  -2.012  24.623  0.00  0.00    +0.206 C 
ATOM     16  C   UNL     1      -3.193  -3.191  25.311  0.00  0.00    +0.179 C 
ATOM     17  C   UNL     1      -4.369  -0.039  25.140  0.00  0.00    +0.307 C 
ATOM     30  H   UNL     1      -3.090   1.307  24.219  0.00  0.00    +0.156 HD
ENDROOT
BRANCH  10  19
ATOM      1  F   UNL     1      -2.699   3.671  24.220  0.00  0.00    -0.203 F 
ATOM      5  F   UNL     1      -6.515   6.066  25.667  0.00  0.00    -0.205 F 
ATOM     19  C   UNL     1      -4.597   2.471  24.994  0.00  0.00    +0.070 A 
ATOM     23  C   UNL     1      -3.947   3.672  24.711  0.00  0.00    +0.147 A 
ATOM     24  C   UNL     1      -5.897   2.484  25.504  0.00  0.00    +0.029 A 
ATOM     26  C   UNL     1      -4.594   4.886  24.938  0.00  0.00    +0.078 A 
ATOM     27  C   UNL     1      -6.543   3.699  25.732  0.00  0.00    +0.040 A 
ATOM     29  C   UNL     1      -5.893   4.900  25.448  0.00  0.00    +0.126 A 
ENDBRANCH  10  19
BRANCH  12   7
ATOM      7  O   UNL     1      -1.047   0.241  23.812  0.00  0.00    -0.469 OA
BRANCH   7  18
ATOM     11  N   UNL     1       0.914  -0.473  22.800  0.00  0.00    -0.221 NA
ATOM     18  C   UNL     1       0.284   0.446  23.565  0.00  0.00    +0.215 A 
ATOM     20  C   UNL     1       0.902   1.564  24.102  0.00  0.00    +0.068 A 
ATOM     21  C   UNL     1       2.253   1.750  23.837  0.00  0.00    +0.019 A 
ATOM     22  C   UNL     1       2.937   0.826  23.055  0.00  0.00    +0.073 A 
ATOM     25  C   UNL     1       2.227  -0.259  22.564  0.00  0.00    +0.127 A 
BRANCH  22  28
ATOM      2  F   UNL     1       4.707   2.246  22.297  0.00  0.00    -0.166 F 
ATOM      3  F   UNL     1       5.198   0.795  23.832  0.00  0.00    -0.166 F 
ATOM      4  F   UNL     1       4.830   0.134  21.794  0.00  0.00    -0.166 F 
ATOM     28  C   UNL     1       4.383   0.998  22.754  0.00  0.00    +0.419 C 
ENDBRANCH  22  28
ENDBRANCH   7  18
ENDBRANCH  12   7
TORSDOF 4
ENDMDL
