MODEL 1
REMARK VINA RESULT:       1.4      0.000      0.000
REMARK  Name = 7143175
REMARK  5 active torsions:
REMARK  status: ('A' for Active; 'I' for Inactive)
REMARK    1  A    between atoms: S_1  and  N_6
REMARK    2  A    between atoms: S_1  and  C_20
REMARK    3  A    between atoms: N_8  and  C_18
REMARK    4  A    between atoms: C_21  and  C_22
REMARK    5  A    between atoms: C_22  and  C_23
REMARK                            x       y       z     vdW  Elec       q    Type
REMARK                         _______ _______ _______ _____ _____    ______ ____
ROOT
ATOM      4  O   UNL     1       0.078   1.621  26.004  0.00  0.00    -0.266 OA
ATOM      6  N   UNL     1      -4.731   2.748  25.339  0.00  0.00    -0.180 NA
ATOM      7  N   UNL     1      -1.605   2.780  24.869  0.00  0.00    -0.310 N 
ATOM      9  C   UNL     1      -3.102   4.519  26.005  0.00  0.00    +0.025 C 
ATOM     10  C   UNL     1      -3.428   3.998  23.628  0.00  0.00    +0.052 C 
ATOM     11  C   UNL     1      -3.198   5.137  24.616  0.00  0.00    +0.017 C 
ATOM     12  C   UNL     1      -4.404   3.783  26.361  0.00  0.00    +0.114 C 
ATOM     13  C   UNL     1      -4.761   3.297  23.950  0.00  0.00    +0.118 C 
ATOM     14  C   UNL     1      -1.876   3.599  26.058  0.00  0.00    +0.130 C 
ATOM     15  C   UNL     1      -2.284   3.001  23.666  0.00  0.00    +0.026 A 
ATOM     16  C   UNL     1      -1.941   2.319  22.561  0.00  0.00    +0.024 A 
ATOM     17  C   UNL     1      -0.561   1.839  24.973  0.00  0.00    +0.273 A 
ATOM     18  C   UNL     1      -0.224   1.083  23.725  0.00  0.00    +0.099 A 
ATOM     19  C   UNL     1      -0.890   1.340  22.594  0.00  0.00    +0.030 A 
ENDROOT
BRANCH   6   1
ATOM      1  S   UNL     1      -6.012   1.687  25.743  0.00  0.00    +0.029 S 
ATOM      2  O   UNL     1      -6.991   1.713  24.678  0.00  0.00    -0.158 OA
ATOM      3  O   UNL     1      -6.383   1.910  27.123  0.00  0.00    -0.158 OA
ATOM     20  C   UNL     1      -5.142   0.143  25.651  0.00  0.00    +0.215 C 
ENDBRANCH   6   1
BRANCH  18   8
ATOM      5  O   UNL     1       1.064  -0.176  21.500  0.00  0.00    -0.275 OA
ATOM      8  N   UNL     1       0.772   0.154  23.787  0.00  0.00    -0.281 N 
ATOM     21  C   UNL     1       1.359  -0.424  22.667  0.00  0.00    +0.222 C 
ATOM     29  H   UNL     1       0.920  -0.288  24.691  0.00  0.00    +0.155 HD
BRANCH  21  22
ATOM     22  C   UNL     1       2.435  -1.420  23.061  0.00  0.00    +0.131 C 
BRANCH  22  23
ATOM     23  C   UNL     1       3.761  -0.777  23.366  0.00  0.00    -0.039 A 
ATOM     24  C   UNL     1       4.749  -1.517  24.002  0.00  0.00    +0.004 A 
ATOM     25  C   UNL     1       3.977   0.546  23.009  0.00  0.00    +0.004 A 
ATOM     26  C   UNL     1       5.978  -0.920  24.286  0.00  0.00    +0.000 A 
ATOM     27  C   UNL     1       5.206   1.142  23.292  0.00  0.00    +0.000 A 
ATOM     28  C   UNL     1       6.206   0.410  23.930  0.00  0.00    +0.000 A 
ENDBRANCH  22  23
ENDBRANCH  21  22
ENDBRANCH  18   8
TORSDOF 4
ENDMDL
MODEL 2
REMARK VINA RESULT:       4.6      2.090      3.194
REMARK  Name = 7143175
REMARK  5 active torsions:
REMARK  status: ('A' for Active; 'I' for Inactive)
REMARK    1  A    between atoms: S_1  and  N_6
REMARK    2  A    between atoms: S_1  and  C_20
REMARK    3  A    between atoms: N_8  and  C_18
REMARK    4  A    between atoms: C_21  and  C_22
REMARK    5  A    between atoms: C_22  and  C_23
REMARK                            x       y       z     vdW  Elec       q    Type
REMARK                         _______ _______ _______ _____ _____    ______ ____
ROOT
ATOM      4  O   UNL     1      -1.769   1.481  21.934  0.00  0.00    -0.266 OA
ATOM      6  N   UNL     1      -4.103   3.403  25.895  0.00  0.00    -0.180 NA
ATOM      7  N   UNL     1      -3.289   1.281  23.698  0.00  0.00    -0.310 N 
ATOM      9  C   UNL     1      -5.403   2.715  23.877  0.00  0.00    +0.025 C 
ATOM     10  C   UNL     1      -4.900   1.062  25.622  0.00  0.00    +0.052 C 
ATOM     11  C   UNL     1      -5.973   1.528  24.642  0.00  0.00    +0.017 C 
ATOM     12  C   UNL     1      -5.052   3.861  24.839  0.00  0.00    +0.114 C 
ATOM     13  C   UNL     1      -4.590   2.192  26.622  0.00  0.00    +0.118 C 
ATOM     14  C   UNL     1      -4.193   2.247  23.059  0.00  0.00    +0.130 C 
ATOM     15  C   UNL     1      -3.638   0.642  24.892  0.00  0.00    +0.026 A 
ATOM     16  C   UNL     1      -2.850  -0.320  25.399  0.00  0.00    +0.024 A 
ATOM     17  C   UNL     1      -2.110   0.959  22.997  0.00  0.00    +0.273 A 
ATOM     18  C   UNL     1      -1.247  -0.102  23.607  0.00  0.00    +0.099 A 
ATOM     19  C   UNL     1      -1.629  -0.697  24.742  0.00  0.00    +0.030 A 
ENDROOT
BRANCH   6   1
ATOM      1  S   UNL     1      -3.436   4.636  26.876  0.00  0.00    +0.029 S 
ATOM      2  O   UNL     1      -2.997   4.051  28.124  0.00  0.00    -0.158 OA
ATOM      3  O   UNL     1      -4.314   5.785  26.842  0.00  0.00    -0.158 OA
ATOM     20  C   UNL     1      -1.996   5.018  25.912  0.00  0.00    +0.215 C 
ENDBRANCH   6   1
BRANCH  18   8
ATOM      5  O   UNL     1       1.207   1.372  23.659  0.00  0.00    -0.275 OA
ATOM      8  N   UNL     1      -0.090  -0.434  22.966  0.00  0.00    -0.281 N 
ATOM     21  C   UNL     1       1.073   0.325  23.030  0.00  0.00    +0.222 C 
ATOM     29  H   UNL     1      -0.164  -1.141  22.239  0.00  0.00    +0.155 HD
BRANCH  21  22
ATOM     22  C   UNL     1       2.187  -0.303  22.212  0.00  0.00    +0.131 C 
BRANCH  22  23
ATOM     23  C   UNL     1       3.518  -0.302  22.918  0.00  0.00    -0.039 A 
ATOM     24  C   UNL     1       4.303   0.842  22.892  0.00  0.00    +0.004 A 
ATOM     25  C   UNL     1       3.941  -1.445  23.580  0.00  0.00    +0.004 A 
ATOM     26  C   UNL     1       5.537   0.843  23.545  0.00  0.00    +0.000 A 
ATOM     27  C   UNL     1       5.174  -1.444  24.232  0.00  0.00    +0.000 A 
ATOM     28  C   UNL     1       5.971  -0.301  24.215  0.00  0.00    +0.000 A 
ENDBRANCH  22  23
ENDBRANCH  21  22
ENDBRANCH  18   8
TORSDOF 4
ENDMDL
MODEL 3
REMARK VINA RESULT:       5.2      1.843      3.102
REMARK  Name = 7143175
REMARK  5 active torsions:
REMARK  status: ('A' for Active; 'I' for Inactive)
REMARK    1  A    between atoms: S_1  and  N_6
REMARK    2  A    between atoms: S_1  and  C_20
REMARK    3  A    between atoms: N_8  and  C_18
REMARK    4  A    between atoms: C_21  and  C_22
REMARK    5  A    between atoms: C_22  and  C_23
REMARK                            x       y       z     vdW  Elec       q    Type
REMARK                         _______ _______ _______ _____ _____    ______ ____
ROOT
ATOM      4  O   UNL     1      -1.061   1.477  21.906  0.00  0.00    -0.266 OA
ATOM      6  N   UNL     1      -4.224   2.656  25.571  0.00  0.00    -0.180 NA
ATOM      7  N   UNL     1      -2.475   0.848  23.657  0.00  0.00    -0.310 N 
ATOM      9  C   UNL     1      -4.998   1.289  23.630  0.00  0.00    +0.025 C 
ATOM     10  C   UNL     1      -3.975   0.181  25.568  0.00  0.00    +0.052 C 
ATOM     11  C   UNL     1      -5.080   0.058  24.523  0.00  0.00    +0.017 C 
ATOM     12  C   UNL     1      -5.208   2.569  24.454  0.00  0.00    +0.114 C 
ATOM     13  C   UNL     1      -4.218   1.434  26.430  0.00  0.00    +0.118 C 
ATOM     14  C   UNL     1      -3.653   1.282  22.892  0.00  0.00    +0.130 C 
ATOM     15  C   UNL     1      -2.607   0.247  24.913  0.00  0.00    +0.026 A 
ATOM     16  C   UNL     1      -1.528  -0.245  25.544  0.00  0.00    +0.024 A 
ATOM     17  C   UNL     1      -1.225   0.972  23.018  0.00  0.00    +0.273 A 
ATOM     18  C   UNL     1      -0.045   0.432  23.763  0.00  0.00    +0.099 A 
ATOM     19  C   UNL     1      -0.221  -0.148  24.955  0.00  0.00    +0.030 A 
ENDROOT
BRANCH   6   1
ATOM      1  S   UNL     1      -4.183   4.148  26.408  0.00  0.00    +0.029 S 
ATOM      2  O   UNL     1      -3.875   3.893  27.798  0.00  0.00    -0.158 OA
ATOM      3  O   UNL     1      -5.332   4.934  26.015  0.00  0.00    -0.158 OA
ATOM     20  C   UNL     1      -2.746   4.860  25.649  0.00  0.00    +0.215 C 
ENDBRANCH   6   1
BRANCH  18   8
ATOM      5  O   UNL     1       0.864  -0.943  21.422  0.00  0.00    -0.275 OA
ATOM      8  N   UNL     1       1.185   0.545  23.185  0.00  0.00    -0.281 N 
ATOM     21  C   UNL     1       1.569  -0.152  22.045  0.00  0.00    +0.222 C 
ATOM     29  H   UNL     1       1.910   0.983  23.748  0.00  0.00    +0.155 HD
BRANCH  21  22
ATOM     22  C   UNL     1       2.994   0.185  21.646  0.00  0.00    +0.131 C 
BRANCH  22  23
ATOM     23  C   UNL     1       4.001  -0.104  22.728  0.00  0.00    -0.039 A 
ATOM     24  C   UNL     1       4.833   0.912  23.176  0.00  0.00    +0.004 A 
ATOM     25  C   UNL     1       4.084  -1.383  23.260  0.00  0.00    +0.004 A 
ATOM     26  C   UNL     1       5.767   0.644  24.178  0.00  0.00    +0.000 A 
ATOM     27  C   UNL     1       5.016  -1.651  24.261  0.00  0.00    +0.000 A 
ATOM     28  C   UNL     1       5.857  -0.638  24.721  0.00  0.00    +0.000 A 
ENDBRANCH  22  23
ENDBRANCH  21  22
ENDBRANCH  18   8
TORSDOF 4
ENDMDL
