MODEL 1
REMARK VINA RESULT:       5.1      0.000      0.000
REMARK  Name = 51136601
REMARK  10 active torsions:
REMARK  status: ('A' for Active; 'I' for Inactive)
REMARK    1  A    between atoms: O_3  and  C_19
REMARK    2  A    between atoms: O_5  and  C_26
REMARK    3  A    between atoms: O_5  and  C_33
REMARK    4  A    between atoms: O_6  and  C_27
REMARK    5  A    between atoms: O_6  and  C_34
REMARK    6  A    between atoms: C_9  and  C_14
REMARK    7  A    between atoms: C_10  and  C_15
REMARK    8  A    between atoms: C_14  and  C_16
REMARK    9  A    between atoms: C_15  and  C_19
REMARK   10  A    between atoms: C_17  and  C_23
REMARK                            x       y       z     vdW  Elec       q    Type
REMARK                         _______ _______ _______ _____ _____    ______ ____
ROOT
ATOM      2  O   UNL     1      -0.099   1.056  27.600  0.00  0.00    -0.270 OA
ATOM      7  N   UNL     1      -0.218   0.081  25.476  0.00  0.00    -0.297 N 
ATOM      9  C   UNL     1      -1.572  -0.785  23.581  0.00  0.00    +0.016 C 
ATOM     10  C   UNL     1      -1.245  -2.223  24.056  0.00  0.00    +0.006 C 
ATOM     11  C   UNL     1      -0.953  -2.268  25.565  0.00  0.00    +0.023 C 
ATOM     12  C   UNL     1      -0.461   0.182  24.030  0.00  0.00    +0.112 C 
ATOM     13  C   UNL     1       0.124  -1.258  25.949  0.00  0.00    +0.108 C 
ATOM     17  C   UNL     1      -0.296   1.137  26.388  0.00  0.00    +0.247 C 
ENDROOT
BRANCH  17  23
ATOM      1  F   UNL     1      -1.618   6.210  24.433  0.00  0.00    -0.205 F 
ATOM     23  C   UNL     1      -0.642   2.467  25.876  0.00  0.00    +0.037 A 
ATOM     28  C   UNL     1       0.060   3.002  24.796  0.00  0.00    +0.016 A 
ATOM     29  C   UNL     1      -1.673   3.196  26.468  0.00  0.00    +0.016 A 
ATOM     30  C   UNL     1      -0.269   4.267  24.308  0.00  0.00    +0.039 A 
ATOM     31  C   UNL     1      -2.002   4.461  25.981  0.00  0.00    +0.039 A 
ATOM     32  C   UNL     1      -1.300   4.997  24.901  0.00  0.00    +0.123 A 
ENDBRANCH  17  23
BRANCH   9  14
ATOM     14  C   UNL     1      -2.942  -0.271  24.044  0.00  0.00    +0.061 C 
BRANCH  14  16
ATOM      8  N   UNL     1      -2.787   1.224  22.172  0.00  0.00    -0.287 NA
ATOM     16  C   UNL     1      -3.257   1.037  23.361  0.00  0.00    +0.044 C 
ATOM     18  C   UNL     1      -4.081   2.041  24.082  0.00  0.00    +0.003 A 
ATOM     20  C   UNL     1      -4.031   3.357  23.606  0.00  0.00    -0.033 A 
ATOM     21  C   UNL     1      -3.155   3.665  22.429  0.00  0.00    +0.059 C 
ATOM     22  C   UNL     1      -3.143   2.470  21.484  0.00  0.00    +0.146 C 
ATOM     24  C   UNL     1      -4.863   1.717  25.193  0.00  0.00    +0.059 A 
ATOM     25  C   UNL     1      -4.752   4.357  24.266  0.00  0.00    +0.053 A 
ATOM     26  C   UNL     1      -5.591   2.720  25.836  0.00  0.00    +0.162 A 
ATOM     27  C   UNL     1      -5.534   4.036  25.376  0.00  0.00    +0.162 A 
BRANCH  26   5
ATOM      5  O   UNL     1      -6.355   2.400  26.918  0.00  0.00    -0.491 OA
ATOM     33  C   UNL     1      -6.620   1.016  27.138  0.00  0.00    +0.277 C 
ENDBRANCH  26   5
BRANCH  27   6
ATOM      6  O   UNL     1      -6.237   5.019  26.005  0.00  0.00    -0.491 OA
ATOM     34  C   UNL     1      -6.705   6.098  25.198  0.00  0.00    +0.277 C 
ENDBRANCH  27   6
ENDBRANCH  14  16
ENDBRANCH   9  14
BRANCH  10  15
ATOM     15  C   UNL     1      -2.326  -3.238  23.685  0.00  0.00    +0.124 C 
BRANCH  15  19
ATOM      4  O   UNL     1      -3.699  -2.958  25.679  0.00  0.00    -0.251 OA
ATOM     19  C   UNL     1      -3.592  -3.010  24.463  0.00  0.00    +0.305 C 
BRANCH  19   3
ATOM      3  O   UNL     1      -4.636  -2.865  23.607  0.00  0.00    -0.481 OA
ATOM     35  H   UNL     1      -5.265  -2.177  23.911  0.00  0.00    +0.295 HD
ENDBRANCH  19   3
ENDBRANCH  15  19
ENDBRANCH  10  15
TORSDOF 8
ENDMDL
MODEL 2
REMARK VINA RESULT:       7.0      2.774      5.972
REMARK  Name = 51136601
REMARK  10 active torsions:
REMARK  status: ('A' for Active; 'I' for Inactive)
REMARK    1  A    between atoms: O_3  and  C_19
REMARK    2  A    between atoms: O_5  and  C_26
REMARK    3  A    between atoms: O_5  and  C_33
REMARK    4  A    between atoms: O_6  and  C_27
REMARK    5  A    between atoms: O_6  and  C_34
REMARK    6  A    between atoms: C_9  and  C_14
REMARK    7  A    between atoms: C_10  and  C_15
REMARK    8  A    between atoms: C_14  and  C_16
REMARK    9  A    between atoms: C_15  and  C_19
REMARK   10  A    between atoms: C_17  and  C_23
REMARK                            x       y       z     vdW  Elec       q    Type
REMARK                         _______ _______ _______ _____ _____    ______ ____
ROOT
ATOM      2  O   UNL     1      -6.167   2.110  23.897  0.00  0.00    -0.270 OA
ATOM      7  N   UNL     1      -4.767   0.675  25.103  0.00  0.00    -0.297 N 
ATOM      9  C   UNL     1      -2.675  -0.657  25.260  0.00  0.00    +0.016 C 
ATOM     10  C   UNL     1      -3.516  -1.935  25.012  0.00  0.00    +0.006 C 
ATOM     11  C   UNL     1      -4.796  -1.623  24.218  0.00  0.00    +0.023 C 
ATOM     12  C   UNL     1      -3.554   0.434  25.898  0.00  0.00    +0.112 C 
ATOM     13  C   UNL     1      -5.597  -0.505  24.879  0.00  0.00    +0.108 C 
ATOM     17  C   UNL     1      -5.156   1.905  24.567  0.00  0.00    +0.247 C 
ENDROOT
BRANCH  17  23
ATOM      1  F   UNL     1      -1.875   6.340  25.505  0.00  0.00    -0.205 F 
ATOM     23  C   UNL     1      -4.296   3.068  24.813  0.00  0.00    +0.037 A 
ATOM     28  C   UNL     1      -4.105   3.530  26.114  0.00  0.00    +0.016 A 
ATOM     29  C   UNL     1      -3.670   3.710  23.745  0.00  0.00    +0.016 A 
ATOM     30  C   UNL     1      -3.287   4.636  26.349  0.00  0.00    +0.039 A 
ATOM     31  C   UNL     1      -2.852   4.816  23.979  0.00  0.00    +0.039 A 
ATOM     32  C   UNL     1      -2.661   5.279  25.281  0.00  0.00    +0.123 A 
ENDBRANCH  17  23
BRANCH   9  14
ATOM     14  C   UNL     1      -1.980  -0.114  24.005  0.00  0.00    +0.061 C 
BRANCH  14  16
ATOM      8  N   UNL     1      -1.492   1.966  25.101  0.00  0.00    -0.287 NA
ATOM     16  C   UNL     1      -1.030   0.995  24.384  0.00  0.00    +0.044 C 
ATOM     18  C   UNL     1       0.378   0.923  23.916  0.00  0.00    +0.003 A 
ATOM     20  C   UNL     1       1.114   2.114  23.944  0.00  0.00    -0.033 A 
ATOM     21  C   UNL     1       0.442   3.366  24.423  0.00  0.00    +0.059 C 
ATOM     22  C   UNL     1      -0.554   3.013  25.520  0.00  0.00    +0.146 C 
ATOM     24  C   UNL     1       0.959  -0.259  23.451  0.00  0.00    +0.059 A 
ATOM     25  C   UNL     1       2.433   2.121  23.478  0.00  0.00    +0.053 A 
ATOM     26  C   UNL     1       2.281  -0.246  23.003  0.00  0.00    +0.162 A 
ATOM     27  C   UNL     1       3.015   0.941  23.013  0.00  0.00    +0.162 A 
BRANCH  26   5
ATOM      5  O   UNL     1       2.845  -1.401  22.552  0.00  0.00    -0.491 OA
ATOM     33  C   UNL     1       3.805  -2.027  23.401  0.00  0.00    +0.277 C 
ENDBRANCH  26   5
BRANCH  27   6
ATOM      6  O   UNL     1       4.303   0.962  22.569  0.00  0.00    -0.491 OA
ATOM     34  C   UNL     1       5.322   0.687  23.528  0.00  0.00    +0.277 C 
ENDBRANCH  27   6
ENDBRANCH  14  16
ENDBRANCH   9  14
BRANCH  10  15
ATOM     15  C   UNL     1      -2.723  -3.055  24.339  0.00  0.00    +0.124 C 
BRANCH  15  19
ATOM      4  O   UNL     1      -0.623  -2.689  25.520  0.00  0.00    -0.251 OA
ATOM     19  C   UNL     1      -1.241  -2.846  24.478  0.00  0.00    +0.305 C 
BRANCH  19   3
ATOM      3  O   UNL     1      -0.661  -2.855  23.250  0.00  0.00    -0.481 OA
ATOM     35  H   UNL     1      -0.090  -2.069  23.110  0.00  0.00    +0.295 HD
ENDBRANCH  19   3
ENDBRANCH  15  19
ENDBRANCH  10  15
TORSDOF 8
ENDMDL
MODEL 3
REMARK VINA RESULT:       7.3      2.724      5.627
REMARK  Name = 51136601
REMARK  10 active torsions:
REMARK  status: ('A' for Active; 'I' for Inactive)
REMARK    1  A    between atoms: O_3  and  C_19
REMARK    2  A    between atoms: O_5  and  C_26
REMARK    3  A    between atoms: O_5  and  C_33
REMARK    4  A    between atoms: O_6  and  C_27
REMARK    5  A    between atoms: O_6  and  C_34
REMARK    6  A    between atoms: C_9  and  C_14
REMARK    7  A    between atoms: C_10  and  C_15
REMARK    8  A    between atoms: C_14  and  C_16
REMARK    9  A    between atoms: C_15  and  C_19
REMARK   10  A    between atoms: C_17  and  C_23
REMARK                            x       y       z     vdW  Elec       q    Type
REMARK                         _______ _______ _______ _____ _____    ______ ____
ROOT
ATOM      2  O   UNL     1      -0.658   5.514  25.070  0.00  0.00    -0.270 OA
ATOM      7  N   UNL     1      -0.515   3.607  23.721  0.00  0.00    -0.297 N 
ATOM      9  C   UNL     1      -0.214   1.151  23.497  0.00  0.00    +0.016 C 
ATOM     10  C   UNL     1       1.237   1.411  23.019  0.00  0.00    +0.006 C 
ATOM     11  C   UNL     1       1.785   2.737  23.572  0.00  0.00    +0.023 C 
ATOM     12  C   UNL     1      -1.098   2.371  23.181  0.00  0.00    +0.112 C 
ATOM     13  C   UNL     1       0.842   3.896  23.263  0.00  0.00    +0.108 C 
ATOM     17  C   UNL     1      -1.144   4.482  24.611  0.00  0.00    +0.247 C 
ENDROOT
BRANCH  17  23
ATOM      1  F   UNL     1      -6.340   3.245  26.282  0.00  0.00    -0.205 F 
ATOM     23  C   UNL     1      -2.507   4.157  25.049  0.00  0.00    +0.037 A 
ATOM     28  C   UNL     1      -2.809   4.116  26.409  0.00  0.00    +0.016 A 
ATOM     29  C   UNL     1      -3.498   3.890  24.105  0.00  0.00    +0.016 A 
ATOM     30  C   UNL     1      -4.104   3.808  26.827  0.00  0.00    +0.039 A 
ATOM     31  C   UNL     1      -4.792   3.581  24.522  0.00  0.00    +0.039 A 
ATOM     32  C   UNL     1      -5.096   3.540  25.882  0.00  0.00    +0.123 A 
ENDBRANCH  17  23
BRANCH   9  14
ATOM     14  C   UNL     1      -0.325   0.784  24.983  0.00  0.00    +0.061 C 
BRANCH  14  16
ATOM      8  N   UNL     1       0.291  -1.462  25.568  0.00  0.00    -0.287 NA
ATOM     16  C   UNL     1      -0.642  -0.685  25.127  0.00  0.00    +0.044 C 
ATOM     18  C   UNL     1      -1.997  -1.163  24.753  0.00  0.00    +0.003 A 
ATOM     20  C   UNL     1      -2.141  -2.538  24.527  0.00  0.00    -0.033 A 
ATOM     21  C   UNL     1      -0.935  -3.420  24.661  0.00  0.00    +0.059 C 
ATOM     22  C   UNL     1      -0.036  -2.878  25.765  0.00  0.00    +0.146 C 
ATOM     24  C   UNL     1      -3.089  -0.304  24.612  0.00  0.00    +0.059 A 
ATOM     25  C   UNL     1      -3.382  -3.047  24.133  0.00  0.00    +0.053 A 
ATOM     26  C   UNL     1      -4.328  -0.824  24.234  0.00  0.00    +0.162 A 
ATOM     27  C   UNL     1      -4.474  -2.190  23.992  0.00  0.00    +0.162 A 
BRANCH  26   5
ATOM      5  O   UNL     1      -5.392   0.017  24.100  0.00  0.00    -0.491 OA
ATOM     33  C   UNL     1      -5.883   0.635  25.288  0.00  0.00    +0.277 C 
ENDBRANCH  26   5
BRANCH  27   6
ATOM      6  O   UNL     1      -5.679  -2.701  23.614  0.00  0.00    -0.491 OA
ATOM     34  C   UNL     1      -5.660  -3.827  22.739  0.00  0.00    +0.277 C 
ENDBRANCH  27   6
ENDBRANCH  14  16
ENDBRANCH   9  14
BRANCH  10  15
ATOM     15  C   UNL     1       2.190   0.259  23.337  0.00  0.00    +0.124 C 
BRANCH  15  19
ATOM      4  O   UNL     1       4.583   0.662  23.559  0.00  0.00    -0.251 OA
ATOM     19  C   UNL     1       3.586   0.546  22.861  0.00  0.00    +0.305 C 
BRANCH  19   3
ATOM      3  O   UNL     1       3.594   0.666  21.509  0.00  0.00    -0.481 OA
ATOM     35  H   UNL     1       2.946   0.064  21.085  0.00  0.00    +0.295 HD
ENDBRANCH  19   3
ENDBRANCH  15  19
ENDBRANCH  10  15
TORSDOF 8
ENDMDL
MODEL 4
REMARK VINA RESULT:       7.3      2.950      4.802
REMARK  Name = 51136601
REMARK  10 active torsions:
REMARK  status: ('A' for Active; 'I' for Inactive)
REMARK    1  A    between atoms: O_3  and  C_19
REMARK    2  A    between atoms: O_5  and  C_26
REMARK    3  A    between atoms: O_5  and  C_33
REMARK    4  A    between atoms: O_6  and  C_27
REMARK    5  A    between atoms: O_6  and  C_34
REMARK    6  A    between atoms: C_9  and  C_14
REMARK    7  A    between atoms: C_10  and  C_15
REMARK    8  A    between atoms: C_14  and  C_16
REMARK    9  A    between atoms: C_15  and  C_19
REMARK   10  A    between atoms: C_17  and  C_23
REMARK                            x       y       z     vdW  Elec       q    Type
REMARK                         _______ _______ _______ _____ _____    ______ ____
ROOT
ATOM      2  O   UNL     1      -1.793  -2.954  23.413  0.00  0.00    -0.270 OA
ATOM      7  N   UNL     1      -0.396  -1.349  24.387  0.00  0.00    -0.297 N 
ATOM      9  C   UNL     1       0.506   0.965  24.443  0.00  0.00    +0.016 C 
ATOM     10  C   UNL     1       1.817   0.428  23.814  0.00  0.00    +0.006 C 
ATOM     11  C   UNL     1       1.567  -0.844  22.987  0.00  0.00    +0.023 C 
ATOM     12  C   UNL     1      -0.199  -0.157  25.225  0.00  0.00    +0.112 C 
ATOM     13  C   UNL     1       0.827  -1.898  23.805  0.00  0.00    +0.108 C 
ATOM     17  C   UNL     1      -1.623  -1.960  24.118  0.00  0.00    +0.247 C 
ENDROOT
BRANCH  17  23
ATOM      1  F   UNL     1      -6.222   0.252  26.413  0.00  0.00    -0.205 F 
ATOM     23  C   UNL     1      -2.829  -1.380  24.720  0.00  0.00    +0.037 A 
ATOM     28  C   UNL     1      -3.989  -1.240  23.958  0.00  0.00    +0.016 A 
ATOM     29  C   UNL     1      -2.815  -0.969  26.052  0.00  0.00    +0.016 A 
ATOM     30  C   UNL     1      -5.136  -0.688  24.530  0.00  0.00    +0.039 A 
ATOM     31  C   UNL     1      -3.961  -0.417  26.624  0.00  0.00    +0.039 A 
ATOM     32  C   UNL     1      -5.121  -0.276  25.863  0.00  0.00    +0.123 A 
ENDBRANCH  17  23
BRANCH   9  14
ATOM     14  C   UNL     1      -0.459   1.597  23.431  0.00  0.00    +0.061 C 
BRANCH  14  16
ATOM      8  N   UNL     1       0.098   3.895  23.850  0.00  0.00    -0.287 NA
ATOM     16  C   UNL     1      -0.826   2.992  23.874  0.00  0.00    +0.044 C 
ATOM     18  C   UNL     1      -2.218   3.258  24.318  0.00  0.00    +0.003 A 
ATOM     20  C   UNL     1      -2.428   4.419  25.072  0.00  0.00    -0.033 A 
ATOM     21  C   UNL     1      -1.254   5.296  25.388  0.00  0.00    +0.059 C 
ATOM     22  C   UNL     1      -0.274   5.264  24.222  0.00  0.00    +0.146 C 
ATOM     24  C   UNL     1      -3.281   2.400  24.025  0.00  0.00    +0.059 A 
ATOM     25  C   UNL     1      -3.709   4.706  25.555  0.00  0.00    +0.053 A 
ATOM     26  C   UNL     1      -4.559   2.703  24.499  0.00  0.00    +0.162 A 
ATOM     27  C   UNL     1      -4.772   3.850  25.264  0.00  0.00    +0.162 A 
BRANCH  26   5
ATOM      5  O   UNL     1      -5.594   1.865  24.209  0.00  0.00    -0.491 OA
ATOM     33  C   UNL     1      -6.894   2.273  24.631  0.00  0.00    +0.277 C 
ENDBRANCH  26   5
BRANCH  27   6
ATOM      6  O   UNL     1      -6.016   4.146  25.735  0.00  0.00    -0.491 OA
ATOM     34  C   UNL     1      -6.505   5.463  25.490  0.00  0.00    +0.277 C 
ENDBRANCH  27   6
ENDBRANCH  14  16
ENDBRANCH   9  14
BRANCH  10  15
ATOM     15  C   UNL     1       2.557   1.476  22.982  0.00  0.00    +0.124 C 
BRANCH  15  19
ATOM      4  O   UNL     1       4.890   0.888  23.372  0.00  0.00    -0.251 OA
ATOM     19  C   UNL     1       3.940   1.016  22.614  0.00  0.00    +0.305 C 
BRANCH  19   3
ATOM      3  O   UNL     1       3.996   0.752  21.283  0.00  0.00    -0.481 OA
ATOM     35  H   UNL     1       4.583  -0.008  21.085  0.00  0.00    +0.295 HD
ENDBRANCH  19   3
ENDBRANCH  15  19
ENDBRANCH  10  15
TORSDOF 8
ENDMDL
MODEL 5
REMARK VINA RESULT:       7.7      2.404      4.580
REMARK  Name = 51136601
REMARK  10 active torsions:
REMARK  status: ('A' for Active; 'I' for Inactive)
REMARK    1  A    between atoms: O_3  and  C_19
REMARK    2  A    between atoms: O_5  and  C_26
REMARK    3  A    between atoms: O_5  and  C_33
REMARK    4  A    between atoms: O_6  and  C_27
REMARK    5  A    between atoms: O_6  and  C_34
REMARK    6  A    between atoms: C_9  and  C_14
REMARK    7  A    between atoms: C_10  and  C_15
REMARK    8  A    between atoms: C_14  and  C_16
REMARK    9  A    between atoms: C_15  and  C_19
REMARK   10  A    between atoms: C_17  and  C_23
REMARK                            x       y       z     vdW  Elec       q    Type
REMARK                         _______ _______ _______ _____ _____    ______ ____
ROOT
ATOM      2  O   UNL     1      -4.373  -2.107  23.083  0.00  0.00    -0.270 OA
ATOM      7  N   UNL     1      -2.481  -1.904  24.445  0.00  0.00    -0.297 N 
ATOM      9  C   UNL     1      -0.393  -0.705  25.058  0.00  0.00    +0.016 C 
ATOM     10  C   UNL     1       0.413  -1.836  24.370  0.00  0.00    +0.006 C 
ATOM     11  C   UNL     1      -0.409  -2.524  23.267  0.00  0.00    +0.023 C 
ATOM     12  C   UNL     1      -1.752  -1.245  25.539  0.00  0.00    +0.112 C 
ATOM     13  C   UNL     1      -1.759  -2.996  23.797  0.00  0.00    +0.108 C 
ATOM     17  C   UNL     1      -3.761  -1.563  24.001  0.00  0.00    +0.247 C 
ENDROOT
BRANCH  17  23
ATOM      1  F   UNL     1      -6.405   2.643  26.576  0.00  0.00    -0.205 F 
ATOM     23  C   UNL     1      -4.454  -0.460  24.677  0.00  0.00    +0.037 A 
ATOM     28  C   UNL     1      -5.477   0.225  24.021  0.00  0.00    +0.016 A 
ATOM     29  C   UNL     1      -4.090  -0.097  25.972  0.00  0.00    +0.016 A 
ATOM     30  C   UNL     1      -6.137   1.274  24.662  0.00  0.00    +0.039 A 
ATOM     31  C   UNL     1      -4.748   0.952  26.614  0.00  0.00    +0.039 A 
ATOM     32  C   UNL     1      -5.771   1.638  25.959  0.00  0.00    +0.123 A 
ENDBRANCH  17  23
BRANCH   9  14
ATOM     14  C   UNL     1      -0.594   0.539  24.183  0.00  0.00    +0.061 C 
BRANCH  14  16
ATOM      8  N   UNL     1       0.177   1.961  25.958  0.00  0.00    -0.287 NA
ATOM     16  C   UNL     1      -0.726   1.764  25.055  0.00  0.00    +0.044 C 
ATOM     18  C   UNL     1      -1.879   2.675  24.839  0.00  0.00    +0.003 A 
ATOM     20  C   UNL     1      -2.188   3.559  25.881  0.00  0.00    -0.033 A 
ATOM     21  C   UNL     1      -1.357   3.520  27.129  0.00  0.00    +0.059 C 
ATOM     22  C   UNL     1       0.083   3.182  26.764  0.00  0.00    +0.146 C 
ATOM     24  C   UNL     1      -2.645   2.660  23.672  0.00  0.00    +0.059 A 
ATOM     25  C   UNL     1      -3.287   4.414  25.756  0.00  0.00    +0.053 A 
ATOM     26  C   UNL     1      -3.731   3.528  23.551  0.00  0.00    +0.162 A 
ATOM     27  C   UNL     1      -4.053   4.401  24.591  0.00  0.00    +0.162 A 
BRANCH  26   5
ATOM      5  O   UNL     1      -4.475   3.513  22.409  0.00  0.00    -0.491 OA
ATOM     33  C   UNL     1      -3.789   3.216  21.194  0.00  0.00    +0.277 C 
ENDBRANCH  26   5
BRANCH  27   6
ATOM      6  O   UNL     1      -5.117   5.245  24.481  0.00  0.00    -0.491 OA
ATOM     34  C   UNL     1      -6.119   5.159  25.492  0.00  0.00    +0.277 C 
ENDBRANCH  27   6
ENDBRANCH  14  16
ENDBRANCH   9  14
BRANCH  10  15
ATOM     15  C   UNL     1       1.762  -1.367  23.825  0.00  0.00    +0.124 C 
BRANCH  15  19
ATOM      4  O   UNL     1       1.045  -0.520  21.655  0.00  0.00    -0.251 OA
ATOM     19  C   UNL     1       1.595  -0.348  22.732  0.00  0.00    +0.305 C 
BRANCH  19   3
ATOM      3  O   UNL     1       2.156   0.828  23.114  0.00  0.00    -0.481 OA
ATOM     35  H   UNL     1       1.925   1.061  24.038  0.00  0.00    +0.295 HD
ENDBRANCH  19   3
ENDBRANCH  15  19
ENDBRANCH  10  15
TORSDOF 8
ENDMDL
MODEL 6
REMARK VINA RESULT:       8.0      2.541      5.667
REMARK  Name = 51136601
REMARK  10 active torsions:
REMARK  status: ('A' for Active; 'I' for Inactive)
REMARK    1  A    between atoms: O_3  and  C_19
REMARK    2  A    between atoms: O_5  and  C_26
REMARK    3  A    between atoms: O_5  and  C_33
REMARK    4  A    between atoms: O_6  and  C_27
REMARK    5  A    between atoms: O_6  and  C_34
REMARK    6  A    between atoms: C_9  and  C_14
REMARK    7  A    between atoms: C_10  and  C_15
REMARK    8  A    between atoms: C_14  and  C_16
REMARK    9  A    between atoms: C_15  and  C_19
REMARK   10  A    between atoms: C_17  and  C_23
REMARK                            x       y       z     vdW  Elec       q    Type
REMARK                         _______ _______ _______ _____ _____    ______ ____
ROOT
ATOM      2  O   UNL     1      -0.999  -2.686  24.078  0.00  0.00    -0.270 OA
ATOM      7  N   UNL     1      -2.496  -0.931  23.686  0.00  0.00    -0.297 N 
ATOM      9  C   UNL     1      -3.607   1.157  24.447  0.00  0.00    +0.016 C 
ATOM     10  C   UNL     1      -4.888   0.329  24.722  0.00  0.00    +0.006 C 
ATOM     11  C   UNL     1      -4.556  -1.143  25.019  0.00  0.00    +0.023 C 
ATOM     12  C   UNL     1      -2.766   0.475  23.353  0.00  0.00    +0.112 C 
ATOM     13  C   UNL     1      -3.686  -1.746  23.920  0.00  0.00    +0.108 C 
ATOM     17  C   UNL     1      -1.229  -1.511  23.795  0.00  0.00    +0.247 C 
ENDROOT
BRANCH  17  23
ATOM      1  F   UNL     1       3.238   1.731  22.876  0.00  0.00    -0.205 F 
ATOM     23  C   UNL     1      -0.058  -0.661  23.554  0.00  0.00    +0.037 A 
ATOM     28  C   UNL     1       0.178   0.446  24.368  0.00  0.00    +0.016 A 
ATOM     29  C   UNL     1       0.818  -0.960  22.511  0.00  0.00    +0.016 A 
ATOM     30  C   UNL     1       1.292   1.255  24.139  0.00  0.00    +0.039 A 
ATOM     31  C   UNL     1       1.931  -0.152  22.281  0.00  0.00    +0.039 A 
ATOM     32  C   UNL     1       2.168   0.956  23.095  0.00  0.00    +0.123 A 
ENDBRANCH  17  23
BRANCH   9  14
ATOM     14  C   UNL     1      -2.751   1.414  25.695  0.00  0.00    +0.061 C 
BRANCH  14  16
ATOM      8  N   UNL     1      -2.391   3.552  24.663  0.00  0.00    -0.287 NA
ATOM     16  C   UNL     1      -1.958   2.686  25.519  0.00  0.00    +0.044 C 
ATOM     18  C   UNL     1      -0.727   2.878  26.327  0.00  0.00    +0.003 A 
ATOM     20  C   UNL     1       0.176   3.851  25.879  0.00  0.00    -0.033 A 
ATOM     21  C   UNL     1      -0.147   4.612  24.627  0.00  0.00    +0.059 C 
ATOM     22  C   UNL     1      -1.654   4.814  24.537  0.00  0.00    +0.146 C 
ATOM     24  C   UNL     1      -0.450   2.128  27.472  0.00  0.00    +0.059 A 
ATOM     25  C   UNL     1       1.373   4.052  26.572  0.00  0.00    +0.053 A 
ATOM     26  C   UNL     1       0.740   2.348  28.167  0.00  0.00    +0.162 A 
ATOM     27  C   UNL     1       1.651   3.305  27.717  0.00  0.00    +0.162 A 
BRANCH  26   5
ATOM      5  O   UNL     1       1.006   1.616  29.285  0.00  0.00    -0.491 OA
ATOM     33  C   UNL     1       1.011   2.314  30.529  0.00  0.00    +0.277 C 
ENDBRANCH  26   5
BRANCH  27   6
ATOM      6  O   UNL     1       2.819   3.517  28.386  0.00  0.00    -0.491 OA
ATOM     34  C   UNL     1       3.756   2.442  28.410  0.00  0.00    +0.277 C 
ENDBRANCH  27   6
ENDBRANCH  14  16
ENDBRANCH   9  14
BRANCH  10  15
ATOM     15  C   UNL     1      -5.759   0.919  25.831  0.00  0.00    +0.124 C 
BRANCH  15  19
ATOM      4  O   UNL     1      -5.953   3.349  25.818  0.00  0.00    -0.251 OA
ATOM     19  C   UNL     1      -6.333   2.251  25.436  0.00  0.00    +0.305 C 
BRANCH  19   3
ATOM      3  O   UNL     1      -7.362   2.068  24.571  0.00  0.00    -0.481 OA
ATOM     35  H   UNL     1      -7.166   1.370  23.911  0.00  0.00    +0.295 HD
ENDBRANCH  19   3
ENDBRANCH  15  19
ENDBRANCH  10  15
TORSDOF 8
ENDMDL
MODEL 7
REMARK VINA RESULT:       9.0      2.673      4.816
REMARK  Name = 51136601
REMARK  10 active torsions:
REMARK  status: ('A' for Active; 'I' for Inactive)
REMARK    1  A    between atoms: O_3  and  C_19
REMARK    2  A    between atoms: O_5  and  C_26
REMARK    3  A    between atoms: O_5  and  C_33
REMARK    4  A    between atoms: O_6  and  C_27
REMARK    5  A    between atoms: O_6  and  C_34
REMARK    6  A    between atoms: C_9  and  C_14
REMARK    7  A    between atoms: C_10  and  C_15
REMARK    8  A    between atoms: C_14  and  C_16
REMARK    9  A    between atoms: C_15  and  C_19
REMARK   10  A    between atoms: C_17  and  C_23
REMARK                            x       y       z     vdW  Elec       q    Type
REMARK                         _______ _______ _______ _____ _____    ______ ____
ROOT
ATOM      2  O   UNL     1      -2.494  -2.952  24.509  0.00  0.00    -0.270 OA
ATOM      7  N   UNL     1      -0.991  -1.182  24.798  0.00  0.00    -0.297 N 
ATOM      9  C   UNL     1       0.194   0.802  23.887  0.00  0.00    +0.016 C 
ATOM     10  C   UNL     1       1.473  -0.064  23.770  0.00  0.00    +0.006 C 
ATOM     11  C   UNL     1       1.134  -1.555  23.610  0.00  0.00    +0.023 C 
ATOM     12  C   UNL     1      -0.716   0.248  24.998  0.00  0.00    +0.112 C 
ATOM     13  C   UNL     1       0.196  -2.030  24.716  0.00  0.00    +0.108 C 
ATOM     17  C   UNL     1      -2.260  -1.757  24.681  0.00  0.00    +0.247 C 
ENDROOT
BRANCH  17  23
ATOM      1  F   UNL     1      -6.715   1.612  25.014  0.00  0.00    -0.205 F 
ATOM     23  C   UNL     1      -3.428  -0.874  24.768  0.00  0.00    +0.037 A 
ATOM     28  C   UNL     1      -3.592  -0.044  25.877  0.00  0.00    +0.016 A 
ATOM     29  C   UNL     1      -4.373  -0.865  23.743  0.00  0.00    +0.016 A 
ATOM     30  C   UNL     1      -4.703   0.796  25.961  0.00  0.00    +0.039 A 
ATOM     31  C   UNL     1      -5.484  -0.025  23.827  0.00  0.00    +0.039 A 
ATOM     32  C   UNL     1      -5.649   0.805  24.935  0.00  0.00    +0.123 A 
ENDBRANCH  17  23
BRANCH   9  14
ATOM     14  C   UNL     1      -0.590   0.937  22.575  0.00  0.00    +0.061 C 
BRANCH  14  16
ATOM      8  N   UNL     1      -2.744   1.738  21.875  0.00  0.00    -0.287 NA
ATOM     16  C   UNL     1      -1.851   1.733  22.810  0.00  0.00    +0.044 C 
ATOM     18  C   UNL     1      -2.003   2.470  24.090  0.00  0.00    +0.003 A 
ATOM     20  C   UNL     1      -2.968   3.485  24.123  0.00  0.00    -0.033 A 
ATOM     21  C   UNL     1      -3.762   3.765  22.882  0.00  0.00    +0.059 C 
ATOM     22  C   UNL     1      -3.994   2.461  22.129  0.00  0.00    +0.146 C 
ATOM     24  C   UNL     1      -1.223   2.196  25.216  0.00  0.00    +0.059 A 
ATOM     25  C   UNL     1      -3.132   4.243  25.286  0.00  0.00    +0.053 A 
ATOM     26  C   UNL     1      -1.405   2.949  26.378  0.00  0.00    +0.162 A 
ATOM     27  C   UNL     1      -2.354   3.971  26.412  0.00  0.00    +0.162 A 
BRANCH  26   5
ATOM      5  O   UNL     1      -0.645   2.677  27.475  0.00  0.00    -0.491 OA
ATOM     33  C   UNL     1       0.768   2.625  27.287  0.00  0.00    +0.277 C 
ENDBRANCH  26   5
BRANCH  27   6
ATOM      6  O   UNL     1      -2.530   4.714  27.541  0.00  0.00    -0.491 OA
ATOM     34  C   UNL     1      -3.397   4.180  28.539  0.00  0.00    +0.277 C 
ENDBRANCH  27   6
ENDBRANCH  14  16
ENDBRANCH   9  14
BRANCH  10  15
ATOM     15  C   UNL     1       2.412   0.398  22.655  0.00  0.00    +0.124 C 
BRANCH  15  19
ATOM      4  O   UNL     1       4.659   1.267  23.027  0.00  0.00    -0.251 OA
ATOM     19  C   UNL     1       3.851   0.351  23.087  0.00  0.00    +0.305 C 
BRANCH  19   3
ATOM      3  O   UNL     1       4.145  -0.884  23.567  0.00  0.00    -0.481 OA
ATOM     35  H   UNL     1       4.278  -0.876  24.539  0.00  0.00    +0.295 HD
ENDBRANCH  19   3
ENDBRANCH  15  19
ENDBRANCH  10  15
TORSDOF 8
ENDMDL
