MODEL 1
REMARK VINA RESULT:      -5.1      0.000      0.000
REMARK  Name = 56775191
REMARK  2 active torsions:
REMARK  status: ('A' for Active; 'I' for Inactive)
REMARK    1  A    between atoms: N_6  and  C_14
REMARK    2  A    between atoms: C_15  and  C_18
REMARK                            x       y       z     vdW  Elec       q    Type
REMARK                         _______ _______ _______ _____ _____    ______ ____
ROOT
ATOM      1  O   UNL     1     -10.187  -8.528  14.090  0.00  0.00    -0.364 OA
ATOM      2  O   UNL     1      -9.256  -8.143  17.521  0.00  0.00    -0.273 OA
ATOM      3  O   UNL     1      -8.305 -10.053   9.927  0.00  0.00    -0.267 OA
ATOM      5  N   UNL     1      -8.244  -9.891  12.242  0.00  0.00    -0.291 N 
ATOM      6  N   UNL     1      -8.328  -9.567  15.890  0.00  0.00    -0.262 N 
ATOM      8  C   UNL     1      -8.537 -10.200  14.577  0.00  0.00    +0.129 C 
ATOM      9  C   UNL     1      -9.892  -9.908  13.931  0.00  0.00    +0.158 C 
ATOM     10  C   UNL     1      -7.554  -9.691  13.514  0.00  0.00    +0.133 C 
ATOM     11  C   UNL     1      -9.653 -10.194  12.453  0.00  0.00    +0.141 C 
ATOM     12  C   UNL     1     -10.386  -8.242  15.451  0.00  0.00    +0.256 C 
ATOM     13  C   UNL     1      -9.249  -8.627  16.386  0.00  0.00    +0.246 C 
ATOM     15  C   UNL     1      -7.686  -9.879  10.974  0.00  0.00    +0.285 C 
ENDROOT
BRANCH   6  14
ATOM     14  C   UNL     1      -7.120  -9.910  16.624  0.00  0.00    +0.037 A 
ATOM     16  C   UNL     1      -5.869  -9.698  16.045  0.00  0.00    +0.023 A 
ATOM     17  C   UNL     1      -7.214 -10.451  17.906  0.00  0.00    +0.023 A 
ATOM     19  C   UNL     1      -4.711 -10.028  16.749  0.00  0.00    +0.002 A 
ATOM     20  C   UNL     1      -6.056 -10.781  18.610  0.00  0.00    +0.002 A 
ATOM     22  C   UNL     1      -4.804 -10.569  18.031  0.00  0.00    +0.000 A 
ENDBRANCH   6  14
BRANCH  15  18
ATOM      4  O   UNL     1      -5.406 -10.710  11.071  0.00  0.00    -0.350 OA
ATOM      7  N   UNL     1      -4.088 -10.291  10.933  0.00  0.00    -0.086 NA
ATOM     18  C   UNL     1      -6.235  -9.654  10.872  0.00  0.00    +0.222 A 
ATOM     21  C   UNL     1      -5.496  -8.532  10.603  0.00  0.00    +0.077 A 
ATOM     23  C   UNL     1      -4.167  -8.987  10.654  0.00  0.00    +0.157 A 
ENDBRANCH  15  18
TORSDOF 2
ENDMDL
MODEL 2
REMARK VINA RESULT:      -3.9      1.820      2.529
REMARK  Name = 56775191
REMARK  2 active torsions:
REMARK  status: ('A' for Active; 'I' for Inactive)
REMARK    1  A    between atoms: N_6  and  C_14
REMARK    2  A    between atoms: C_15  and  C_18
REMARK                            x       y       z     vdW  Elec       q    Type
REMARK                         _______ _______ _______ _____ _____    ______ ____
ROOT
ATOM      1  O   UNL     1      -9.157  -9.343  15.030  0.00  0.00    -0.364 OA
ATOM      2  O   UNL     1      -6.607  -9.163  17.530  0.00  0.00    -0.273 OA
ATOM      3  O   UNL     1      -9.599 -10.048  10.286  0.00  0.00    -0.267 OA
ATOM      5  N   UNL     1      -8.348 -10.125  12.240  0.00  0.00    -0.291 N 
ATOM      6  N   UNL     1      -6.536 -10.212  15.422  0.00  0.00    -0.262 N 
ATOM      8  C   UNL     1      -7.339 -10.730  14.302  0.00  0.00    +0.129 C 
ATOM      9  C   UNL     1      -8.853 -10.621  14.491  0.00  0.00    +0.158 C 
ATOM     10  C   UNL     1      -7.117  -9.940  13.004  0.00  0.00    +0.133 C 
ATOM     11  C   UNL     1      -9.398 -10.700  13.070  0.00  0.00    +0.141 C 
ATOM     12  C   UNL     1      -8.638  -9.245  16.332  0.00  0.00    +0.256 C 
ATOM     13  C   UNL     1      -7.148  -9.514  16.478  0.00  0.00    +0.246 C 
ATOM     15  C   UNL     1      -8.543  -9.876  10.891  0.00  0.00    +0.285 C 
ENDROOT
BRANCH   6  14
ATOM     14  C   UNL     1      -5.096 -10.407  15.371  0.00  0.00    +0.037 A 
ATOM     16  C   UNL     1      -4.367 -10.528  16.554  0.00  0.00    +0.023 A 
ATOM     17  C   UNL     1      -4.445 -10.473  14.140  0.00  0.00    +0.023 A 
ATOM     19  C   UNL     1      -2.985 -10.715  16.505  0.00  0.00    +0.002 A 
ATOM     20  C   UNL     1      -3.064 -10.660  14.090  0.00  0.00    +0.002 A 
ATOM     22  C   UNL     1      -2.334 -10.781  15.273  0.00  0.00    +0.000 A 
ENDBRANCH   6  14
BRANCH  15  18
ATOM      4  O   UNL     1      -7.426  -8.103   9.665  0.00  0.00    -0.350 OA
ATOM      7  N   UNL     1      -6.257  -7.835   8.963  0.00  0.00    -0.086 NA
ATOM     18  C   UNL     1      -7.393  -9.382  10.118  0.00  0.00    +0.222 A 
ATOM     21  C   UNL     1      -6.221  -9.978   9.732  0.00  0.00    +0.077 A 
ATOM     23  C   UNL     1      -5.553  -8.969   9.017  0.00  0.00    +0.157 A 
ENDBRANCH  15  18
TORSDOF 2
ENDMDL
MODEL 3
REMARK VINA RESULT:      -2.6     14.445     17.217
REMARK  Name = 56775191
REMARK  2 active torsions:
REMARK  status: ('A' for Active; 'I' for Inactive)
REMARK    1  A    between atoms: N_6  and  C_14
REMARK    2  A    between atoms: C_15  and  C_18
REMARK                            x       y       z     vdW  Elec       q    Type
REMARK                         _______ _______ _______ _____ _____    ______ ____
ROOT
ATOM      1  O   UNL     1       0.467   2.358  24.156  0.00  0.00    -0.364 OA
ATOM      2  O   UNL     1       0.451  -0.862  22.601  0.00  0.00    -0.273 OA
ATOM      3  O   UNL     1      -2.454   5.212  26.709  0.00  0.00    -0.267 OA
ATOM      5  N   UNL     1      -1.919   3.138  25.814  0.00  0.00    -0.291 N 
ATOM      6  N   UNL     1      -0.899  -0.065  24.358  0.00  0.00    -0.262 N 
ATOM      8  C   UNL     1      -1.048   0.970  25.395  0.00  0.00    +0.129 C 
ATOM      9  C   UNL     1       0.104   1.972  25.474  0.00  0.00    +0.158 C 
ATOM     10  C   UNL     1      -2.256   1.884  25.146  0.00  0.00    +0.133 C 
ATOM     11  C   UNL     1      -0.511   3.171  26.187  0.00  0.00    +0.141 C 
ATOM     12  C   UNL     1       1.013   1.256  23.476  0.00  0.00    +0.256 C 
ATOM     13  C   UNL     1       0.142   0.011  23.417  0.00  0.00    +0.246 C 
ATOM     15  C   UNL     1      -2.781   4.171  26.145  0.00  0.00    +0.285 C 
ENDROOT
BRANCH   6  14
ATOM     14  C   UNL     1      -1.889  -1.130  24.317  0.00  0.00    +0.037 A 
ATOM     16  C   UNL     1      -1.520  -2.436  24.640  0.00  0.00    +0.023 A 
ATOM     17  C   UNL     1      -3.204  -0.845  23.954  0.00  0.00    +0.023 A 
ATOM     19  C   UNL     1      -2.470  -3.458  24.600  0.00  0.00    +0.002 A 
ATOM     20  C   UNL     1      -4.153  -1.866  23.913  0.00  0.00    +0.002 A 
ATOM     22  C   UNL     1      -3.786  -3.173  24.237  0.00  0.00    +0.000 A 
ENDBRANCH   6  14
BRANCH  15  18
ATOM      4  O   UNL     1      -4.936   3.122  26.533  0.00  0.00    -0.350 OA
ATOM      7  N   UNL     1      -6.243   3.111  26.058  0.00  0.00    -0.086 NA
ATOM     18  C   UNL     1      -4.203   4.003  25.806  0.00  0.00    +0.222 A 
ATOM     21  C   UNL     1      -4.995   4.585  24.852  0.00  0.00    +0.077 A 
ATOM     23  C   UNL     1      -6.253   3.993  25.054  0.00  0.00    +0.157 A 
ENDBRANCH  15  18
TORSDOF 2
ENDMDL
MODEL 4
REMARK VINA RESULT:      -1.3     14.331     16.487
REMARK  Name = 56775191
REMARK  2 active torsions:
REMARK  status: ('A' for Active; 'I' for Inactive)
REMARK    1  A    between atoms: N_6  and  C_14
REMARK    2  A    between atoms: C_15  and  C_18
REMARK                            x       y       z     vdW  Elec       q    Type
REMARK                         _______ _______ _______ _____ _____    ______ ____
ROOT
ATOM      1  O   UNL     1      -3.616  -1.741  25.539  0.00  0.00    -0.364 OA
ATOM      2  O   UNL     1      -0.244  -2.873  25.179  0.00  0.00    -0.273 OA
ATOM      3  O   UNL     1      -6.191   2.309  25.122  0.00  0.00    -0.267 OA
ATOM      5  N   UNL     1      -4.248   1.094  24.752  0.00  0.00    -0.291 N 
ATOM      6  N   UNL     1      -1.276  -0.983  24.224  0.00  0.00    -0.262 N 
ATOM      8  C   UNL     1      -2.562  -0.343  23.898  0.00  0.00    +0.129 C 
ATOM      9  C   UNL     1      -3.800  -1.168  24.252  0.00  0.00    +0.158 C 
ATOM     10  C   UNL     1      -2.795   0.949  24.694  0.00  0.00    +0.133 C 
ATOM     11  C   UNL     1      -4.913  -0.131  24.327  0.00  0.00    +0.141 C 
ATOM     12  C   UNL     1      -2.575  -2.683  25.492  0.00  0.00    +0.256 C 
ATOM     13  C   UNL     1      -1.240  -2.175  24.970  0.00  0.00    +0.246 C 
ATOM     15  C   UNL     1      -4.965   2.231  25.087  0.00  0.00    +0.285 C 
ENDROOT
BRANCH   6  14
ATOM     14  C   UNL     1      -0.058  -0.317  23.792  0.00  0.00    +0.037 A 
ATOM     16  C   UNL     1       0.299   0.911  24.349  0.00  0.00    +0.023 A 
ATOM     17  C   UNL     1       0.752  -0.906  22.822  0.00  0.00    +0.023 A 
ATOM     19  C   UNL     1       1.468   1.550  23.934  0.00  0.00    +0.002 A 
ATOM     20  C   UNL     1       1.920  -0.267  22.408  0.00  0.00    +0.002 A 
ATOM     22  C   UNL     1       2.278   0.961  22.964  0.00  0.00    +0.000 A 
ENDBRANCH   6  14
BRANCH  15  18
ATOM      4  O   UNL     1      -3.614   4.127  24.397  0.00  0.00    -0.350 OA
ATOM      7  N   UNL     1      -2.945   5.232  24.911  0.00  0.00    -0.086 NA
ATOM     18  C   UNL     1      -4.200   3.444  25.413  0.00  0.00    +0.222 A 
ATOM     21  C   UNL     1      -3.936   4.072  26.602  0.00  0.00    +0.077 A 
ATOM     23  C   UNL     1      -3.152   5.177  26.230  0.00  0.00    +0.157 A 
ENDBRANCH  15  18
TORSDOF 2
ENDMDL
