MODEL 1
REMARK VINA RESULT:       2.5      0.000      0.000
REMARK  Name = 71693352
REMARK  9 active torsions:
REMARK  status: ('A' for Active; 'I' for Inactive)
REMARK    1  A    between atoms: O_2  and  C_12
REMARK    2  A    between atoms: N_6  and  C_11
REMARK    3  A    between atoms: N_7  and  C_22
REMARK    4  A    between atoms: C_9  and  C_12
REMARK    5  A    between atoms: C_10  and  C_14
REMARK    6  A    between atoms: C_11  and  C_16
REMARK    7  A    between atoms: C_11  and  C_17
REMARK    8  A    between atoms: C_23  and  C_24
REMARK    9  A    between atoms: C_26  and  C_27
REMARK                            x       y       z     vdW  Elec       q    Type
REMARK                         _______ _______ _______ _____ _____    ______ ____
ROOT
ATOM     14  C   UNL     1      -2.424   0.838  23.775  0.00  0.00    -0.017 A 
ATOM     18  C   UNL     1      -1.492   1.833  23.485  0.00  0.00    +0.008 A 
ATOM     19  C   UNL     1      -1.994  -0.446  24.108  0.00  0.00    +0.008 A 
ATOM     20  C   UNL     1      -0.128   1.545  23.528  0.00  0.00    +0.023 A 
ATOM     21  C   UNL     1      -0.630  -0.735  24.150  0.00  0.00    +0.023 A 
ATOM     22  C   UNL     1       0.303   0.260  23.860  0.00  0.00    +0.034 A 
ENDROOT
BRANCH  14  10
ATOM      1  O   UNL     1      -4.565   0.213  24.586  0.00  0.00    -0.361 OA
ATOM      3  O   UNL     1      -6.189   1.939  27.054  0.00  0.00    -0.273 OA
ATOM      6  N   UNL     1      -4.692   2.770  25.466  0.00  0.00    -0.289 N 
ATOM      9  C   UNL     1      -4.180   2.635  24.100  0.00  0.00    +0.135 C 
ATOM     10  C   UNL     1      -3.908   1.153  23.729  0.00  0.00    +0.171 C 
ATOM     13  C   UNL     1      -5.596   1.843  25.982  0.00  0.00    +0.242 C 
ATOM     15  C   UNL     1      -5.814   0.660  25.070  0.00  0.00    +0.256 C 
BRANCH   6  11
ATOM     11  C   UNL     1      -4.338   3.966  26.217  0.00  0.00    +0.070 C 
ATOM     16  C   UNL     1      -5.220   5.134  25.796  0.00  0.00    +0.028 C 
ATOM     17  C   UNL     1      -2.862   4.295  26.035  0.00  0.00    +0.028 C 
ENDBRANCH   6  11
BRANCH   9  12
ATOM     12  C   UNL     1      -5.137   3.291  23.095  0.00  0.00    +0.181 C 
BRANCH  12   2
ATOM      2  O   UNL     1      -4.383   3.712  21.977  0.00  0.00    -0.393 OA
ATOM     28  H   UNL     1      -5.008   4.077  21.329  0.00  0.00    +0.209 HD
ENDBRANCH  12   2
ENDBRANCH   9  12
ENDBRANCH  14  10
BRANCH  22   7
ATOM      4  O   UNL     1       2.295  -0.012  21.635  0.00  0.00    -0.268 OA
ATOM      7  N   UNL     1       1.667  -0.029  23.901  0.00  0.00    -0.280 N 
ATOM     23  C   UNL     1       2.559  -0.145  22.826  0.00  0.00    +0.270 C 
ATOM     29  H   UNL     1       2.055  -0.167  24.832  0.00  0.00    +0.155 HD
BRANCH  23  24
ATOM      5  O   UNL     1       5.644  -1.508  24.044  0.00  0.00    -0.359 OA
ATOM      8  N   UNL     1       4.266  -1.551  23.867  0.00  0.00    -0.073 NA
ATOM     24  C   UNL     1       3.969  -0.436  23.195  0.00  0.00    +0.168 A 
ATOM     25  C   UNL     1       5.107   0.344  22.924  0.00  0.00    +0.080 A 
ATOM     26  C   UNL     1       6.132  -0.375  23.479  0.00  0.00    +0.135 A 
ATOM     27  C   UNL     1       7.583  -0.167  23.575  0.00  0.00    +0.089 C 
ENDBRANCH  23  24
ENDBRANCH  22   7
TORSDOF 6
ENDMDL
MODEL 2
REMARK VINA RESULT:       5.8      1.420      2.482
REMARK  Name = 71693352
REMARK  9 active torsions:
REMARK  status: ('A' for Active; 'I' for Inactive)
REMARK    1  A    between atoms: O_2  and  C_12
REMARK    2  A    between atoms: N_6  and  C_11
REMARK    3  A    between atoms: N_7  and  C_22
REMARK    4  A    between atoms: C_9  and  C_12
REMARK    5  A    between atoms: C_10  and  C_14
REMARK    6  A    between atoms: C_11  and  C_16
REMARK    7  A    between atoms: C_11  and  C_17
REMARK    8  A    between atoms: C_23  and  C_24
REMARK    9  A    between atoms: C_26  and  C_27
REMARK                            x       y       z     vdW  Elec       q    Type
REMARK                         _______ _______ _______ _____ _____    ______ ____
ROOT
ATOM     14  C   UNL     1      -1.793   2.852  24.247  0.00  0.00    -0.017 A 
ATOM     18  C   UNL     1      -0.648   3.573  24.583  0.00  0.00    +0.008 A 
ATOM     19  C   UNL     1      -1.686   1.526  23.829  0.00  0.00    +0.008 A 
ATOM     20  C   UNL     1       0.605   2.968  24.501  0.00  0.00    +0.023 A 
ATOM     21  C   UNL     1      -0.431   0.921  23.747  0.00  0.00    +0.023 A 
ATOM     22  C   UNL     1       0.714   1.641  24.083  0.00  0.00    +0.034 A 
ENDROOT
BRANCH  14  10
ATOM      1  O   UNL     1      -3.887   3.129  23.165  0.00  0.00    -0.361 OA
ATOM      3  O   UNL     1      -6.711   1.459  24.135  0.00  0.00    -0.273 OA
ATOM      6  N   UNL     1      -4.915   2.136  25.464  0.00  0.00    -0.289 N 
ATOM      9  C   UNL     1      -3.871   3.146  25.665  0.00  0.00    +0.135 C 
ATOM     10  C   UNL     1      -3.157   3.511  24.336  0.00  0.00    +0.171 C 
ATOM     13  C   UNL     1      -5.725   2.167  24.331  0.00  0.00    +0.242 C 
ATOM     15  C   UNL     1      -5.289   3.199  23.319  0.00  0.00    +0.256 C 
BRANCH   6  11
ATOM     11  C   UNL     1      -5.168   1.188  26.539  0.00  0.00    +0.070 C 
ATOM     16  C   UNL     1      -4.763  -0.216  26.112  0.00  0.00    +0.028 C 
ATOM     17  C   UNL     1      -6.630   1.237  26.962  0.00  0.00    +0.028 C 
ENDBRANCH   6  11
BRANCH   9  12
ATOM     12  C   UNL     1      -4.451   4.395  26.344  0.00  0.00    +0.181 C 
BRANCH  12   2
ATOM      2  O   UNL     1      -3.381   5.263  26.658  0.00  0.00    -0.393 OA
ATOM     28  H   UNL     1      -3.117   5.706  25.835  0.00  0.00    +0.209 HD
ENDBRANCH  12   2
ENDBRANCH   9  12
ENDBRANCH  14  10
BRANCH  22   7
ATOM      4  O   UNL     1       1.900  -0.074  21.929  0.00  0.00    -0.268 OA
ATOM      7  N   UNL     1       1.969   1.036  24.000  0.00  0.00    -0.280 N 
ATOM     23  C   UNL     1       2.477   0.240  22.965  0.00  0.00    +0.270 C 
ATOM     29  H   UNL     1       2.586   1.204  24.792  0.00  0.00    +0.155 HD
BRANCH  23  24
ATOM      5  O   UNL     1       5.477  -1.563  23.742  0.00  0.00    -0.359 OA
ATOM      8  N   UNL     1       4.094  -1.431  23.718  0.00  0.00    -0.073 NA
ATOM     24  C   UNL     1       3.871  -0.241  23.156  0.00  0.00    +0.168 A 
ATOM     25  C   UNL     1       5.063   0.419  22.810  0.00  0.00    +0.080 A 
ATOM     26  C   UNL     1       6.042  -0.455  23.200  0.00  0.00    +0.135 A 
ATOM     27  C   UNL     1       7.510  -0.426  23.147  0.00  0.00    +0.089 C 
ENDBRANCH  23  24
ENDBRANCH  22   7
TORSDOF 6
ENDMDL
