MODEL 1
REMARK VINA RESULT:       4.6      0.000      0.000
REMARK  Name = 11867111
REMARK  10 active torsions:
REMARK  status: ('A' for Active; 'I' for Inactive)
REMARK    1  A    between atoms: S_1  and  C_27
REMARK    2  A    between atoms: S_1  and  C_29
REMARK    3  A    between atoms: O_5  and  C_23
REMARK    4  A    between atoms: O_5  and  C_28
REMARK    5  A    between atoms: N_8  and  C_11
REMARK    6  A    between atoms: CA_14  and  CB_17
REMARK    7  A    between atoms: CB_17  and  CG_18
REMARK    8  A    between atoms: CG_18  and  CD1_20
REMARK    9  A    between atoms: CG_18  and  CD2_21
REMARK   10  A    between atoms: C_19  and  C_22
REMARK                            x       y       z     vdW  Elec       q    Type
REMARK                         _______ _______ _______ _____ _____    ______ ____
ROOT
ATOM      2  O   LEU A   2      -4.003   3.113  27.268  0.00  0.00    -0.274 OA
ATOM      3  O   UNK A   1      -4.190   3.788  21.968  0.00  0.00    -0.274 OA
ATOM      6  N   UNK A   1      -3.931   2.160  25.136  0.00  0.00    -0.288 N 
ATOM      7  N   LEU A   2      -4.205   4.631  24.091  0.00  0.00    -0.302 N 
ATOM      9  C   UNK A   1      -3.431   2.339  23.763  0.00  0.00    +0.164 C 
ATOM     10  C   UNK A   1      -3.795   1.175  22.822  0.00  0.00    +0.054 C 
ATOM     11  C   UNK A   1      -3.570  -0.203  23.432  0.00  0.00    +0.077 C 
ATOM     12  C   UNK A   1      -4.312  -0.293  24.761  0.00  0.00    +0.041 C 
ATOM     13  C   UNK A   1      -3.905   0.817  25.718  0.00  0.00    +0.110 C 
ATOM     14  CA  LEU A   2      -3.668   4.596  25.432  0.00  0.00    +0.159 C 
ATOM     15  C   LEU A   2      -3.926   3.233  26.043  0.00  0.00    +0.237 C 
ATOM     16  C   UNK A   1      -4.011   3.623  23.175  0.00  0.00    +0.234 C 
ATOM     30  H   LEU A   2      -4.696   5.466  23.788  0.00  0.00    +0.150 HD
ENDROOT
BRANCH  11   8
ATOM      4  O   UNK A   1      -1.382   1.424  22.532  0.00  0.00    -0.270 OA
ATOM      8  N   UNK A   1      -2.164  -0.497  23.570  0.00  0.00    -0.308 N 
ATOM     19  C   UNK A   1      -1.175   0.355  23.101  0.00  0.00    +0.248 C 
ATOM     31  H   UNK A   1      -1.916  -1.414  23.926  0.00  0.00    +0.149 HD
BRANCH  19  22
ATOM     22  C   UNK A   1       0.225  -0.103  23.298  0.00  0.00    +0.078 A 
ATOM     23  C   UNK A   1       0.505  -1.064  24.249  0.00  0.00    +0.133 A 
ATOM     24  C   UNK A   1       1.208   0.458  22.509  0.00  0.00    +0.018 A 
ATOM     25  C   UNK A   1       1.826  -1.481  24.418  0.00  0.00    +0.061 A 
ATOM     26  C   UNK A   1       2.529   0.043  22.679  0.00  0.00    +0.015 A 
ATOM     27  C   UNK A   1       2.837  -0.927  23.633  0.00  0.00    +0.011 A 
BRANCH  27   1
ATOM      1  S   UNK A   1       4.525  -1.459  23.848  0.00  0.00    -0.128 S 
ATOM     29  C   UNK A   1       5.443   0.053  23.436  0.00  0.00    +0.090 C 
ENDBRANCH  27   1
BRANCH  23   5
ATOM      5  O   UNK A   1      -0.470  -1.616  25.024  0.00  0.00    -0.494 OA
ATOM     28  C   UNK A   1      -0.784  -0.946  26.243  0.00  0.00    +0.277 C 
ENDBRANCH  23   5
ENDBRANCH  19  22
ENDBRANCH  11   8
BRANCH  14  17
ATOM     17  CB  LEU A   2      -2.193   4.966  25.482  0.00  0.00    +0.034 C 
BRANCH  17  18
ATOM     18  CG  LEU A   2      -1.264   3.871  24.929  0.00  0.00    -0.015 C 
ATOM     20  CD1 LEU A   2      -0.184   4.435  24.005  0.00  0.00    +0.007 C 
ATOM     21  CD2 LEU A   2      -0.609   3.112  26.087  0.00  0.00    +0.007 C 
ENDBRANCH  17  18
ENDBRANCH  14  17
TORSDOF 6
ENDMDL
MODEL 2
REMARK VINA RESULT:       6.7      1.719      2.491
REMARK  Name = 11867111
REMARK  10 active torsions:
REMARK  status: ('A' for Active; 'I' for Inactive)
REMARK    1  A    between atoms: S_1  and  C_27
REMARK    2  A    between atoms: S_1  and  C_29
REMARK    3  A    between atoms: O_5  and  C_23
REMARK    4  A    between atoms: O_5  and  C_28
REMARK    5  A    between atoms: N_8  and  C_11
REMARK    6  A    between atoms: CA_14  and  CB_17
REMARK    7  A    between atoms: CB_17  and  CG_18
REMARK    8  A    between atoms: CG_18  and  CD1_20
REMARK    9  A    between atoms: CG_18  and  CD2_21
REMARK   10  A    between atoms: C_19  and  C_22
REMARK                            x       y       z     vdW  Elec       q    Type
REMARK                         _______ _______ _______ _____ _____    ______ ____
ROOT
ATOM      2  O   LEU A   2      -4.652   2.734  27.715  0.00  0.00    -0.274 OA
ATOM      3  O   UNK A   1      -6.929   1.109  23.159  0.00  0.00    -0.274 OA
ATOM      6  N   UNK A   1      -4.754   1.160  25.991  0.00  0.00    -0.288 N 
ATOM      7  N   LEU A   2      -6.724   2.617  24.862  0.00  0.00    -0.302 N 
ATOM      9  C   UNK A   1      -4.936   0.985  24.540  0.00  0.00    +0.164 C 
ATOM     10  C   UNK A   1      -4.851  -0.483  24.084  0.00  0.00    +0.054 C 
ATOM     11  C   UNK A   1      -3.689  -1.252  24.701  0.00  0.00    +0.077 C 
ATOM     12  C   UNK A   1      -3.755  -1.132  26.220  0.00  0.00    +0.041 C 
ATOM     13  C   UNK A   1      -3.772   0.319  26.676  0.00  0.00    +0.110 C 
ATOM     14  CA  LEU A   2      -5.859   3.354  25.754  0.00  0.00    +0.159 C 
ATOM     15  C   LEU A   2      -5.068   2.383  26.608  0.00  0.00    +0.237 C 
ATOM     16  C   UNK A   1      -6.302   1.530  24.130  0.00  0.00    +0.234 C 
ATOM     30  H   LEU A   2      -7.671   2.952  24.720  0.00  0.00    +0.150 HD
ENDROOT
BRANCH  11   8
ATOM      4  O   UNK A   1      -1.134  -1.438  25.996  0.00  0.00    -0.270 OA
ATOM      8  N   UNK A   1      -2.421  -0.811  24.172  0.00  0.00    -0.308 N 
ATOM     19  C   UNK A   1      -1.233  -0.944  24.876  0.00  0.00    +0.248 C 
ATOM     31  H   UNK A   1      -2.440  -0.289  23.303  0.00  0.00    +0.149 HD
BRANCH  19  22
ATOM     22  C   UNK A   1      -0.018  -0.417  24.205  0.00  0.00    +0.078 A 
ATOM     23  C   UNK A   1       0.262   0.934  24.252  0.00  0.00    +0.133 A 
ATOM     24  C   UNK A   1       0.801  -1.313  23.548  0.00  0.00    +0.018 A 
ATOM     25  C   UNK A   1       1.408   1.409  23.615  0.00  0.00    +0.061 A 
ATOM     26  C   UNK A   1       1.947  -0.839  22.909  0.00  0.00    +0.015 A 
ATOM     27  C   UNK A   1       2.250   0.523  22.944  0.00  0.00    +0.011 A 
BRANCH  27   1
ATOM      1  S   UNK A   1       3.716   1.128  22.129  0.00  0.00    -0.128 S 
ATOM     29  C   UNK A   1       5.030   0.424  23.166  0.00  0.00    +0.090 C 
ENDBRANCH  27   1
BRANCH  23   5
ATOM      5  O   UNK A   1      -0.549   1.815  24.904  0.00  0.00    -0.494 OA
ATOM     28  C   UNK A   1      -0.072   2.342  26.139  0.00  0.00    +0.277 C 
ENDBRANCH  23   5
ENDBRANCH  19  22
ENDBRANCH  11   8
BRANCH  14  17
ATOM     17  CB  LEU A   2      -4.950   4.327  25.017  0.00  0.00    +0.034 C 
BRANCH  17  18
ATOM     18  CG  LEU A   2      -3.507   3.816  24.850  0.00  0.00    -0.015 C 
ATOM     20  CD1 LEU A   2      -3.189   3.430  23.405  0.00  0.00    +0.007 C 
ATOM     21  CD2 LEU A   2      -2.520   4.883  25.331  0.00  0.00    +0.007 C 
ENDBRANCH  17  18
ENDBRANCH  14  17
TORSDOF 6
ENDMDL
MODEL 3
REMARK VINA RESULT:       7.1      1.893      3.477
REMARK  Name = 11867111
REMARK  10 active torsions:
REMARK  status: ('A' for Active; 'I' for Inactive)
REMARK    1  A    between atoms: S_1  and  C_27
REMARK    2  A    between atoms: S_1  and  C_29
REMARK    3  A    between atoms: O_5  and  C_23
REMARK    4  A    between atoms: O_5  and  C_28
REMARK    5  A    between atoms: N_8  and  C_11
REMARK    6  A    between atoms: CA_14  and  CB_17
REMARK    7  A    between atoms: CB_17  and  CG_18
REMARK    8  A    between atoms: CG_18  and  CD1_20
REMARK    9  A    between atoms: CG_18  and  CD2_21
REMARK   10  A    between atoms: C_19  and  C_22
REMARK                            x       y       z     vdW  Elec       q    Type
REMARK                         _______ _______ _______ _____ _____    ______ ____
ROOT
ATOM      2  O   LEU A   2      -5.201  -0.758  23.684  0.00  0.00    -0.274 OA
ATOM      3  O   UNK A   1      -3.440   3.590  26.247  0.00  0.00    -0.274 OA
ATOM      6  N   UNK A   1      -3.811   1.120  23.694  0.00  0.00    -0.288 N 
ATOM      7  N   LEU A   2      -4.729   1.707  26.162  0.00  0.00    -0.302 N 
ATOM      9  C   UNK A   1      -2.929   1.949  24.532  0.00  0.00    +0.164 C 
ATOM     10  C   UNK A   1      -2.281   3.119  23.768  0.00  0.00    +0.054 C 
ATOM     11  C   UNK A   1      -1.724   2.730  22.404  0.00  0.00    +0.077 C 
ATOM     12  C   UNK A   1      -2.819   2.054  21.586  0.00  0.00    +0.041 C 
ATOM     13  C   UNK A   1      -3.414   0.857  22.310  0.00  0.00    +0.110 C 
ATOM     14  CA  LEU A   2      -4.855   0.319  25.782  0.00  0.00    +0.159 C 
ATOM     15  C   LEU A   2      -4.683   0.188  24.282  0.00  0.00    +0.237 C 
ATOM     16  C   UNK A   1      -3.728   2.528  25.696  0.00  0.00    +0.234 C 
ATOM     30  H   LEU A   2      -5.372   2.079  26.853  0.00  0.00    +0.150 HD
ENDROOT
BRANCH  11   8
ATOM      4  O   UNK A   1       0.418   3.074  24.285  0.00  0.00    -0.270 OA
ATOM      8  N   UNK A   1      -0.547   1.905  22.529  0.00  0.00    -0.308 N 
ATOM     19  C   UNK A   1       0.439   2.152  23.474  0.00  0.00    +0.248 C 
ATOM     31  H   UNK A   1      -0.403   1.195  21.820  0.00  0.00    +0.149 HD
BRANCH  19  22
ATOM     22  C   UNK A   1       1.601   1.226  23.457  0.00  0.00    +0.078 A 
ATOM     23  C   UNK A   1       1.413  -0.116  23.719  0.00  0.00    +0.133 A 
ATOM     24  C   UNK A   1       2.845   1.752  23.176  0.00  0.00    +0.018 A 
ATOM     25  C   UNK A   1       2.517  -0.969  23.699  0.00  0.00    +0.061 A 
ATOM     26  C   UNK A   1       3.950   0.900  23.157  0.00  0.00    +0.015 A 
ATOM     27  C   UNK A   1       3.785  -0.460  23.418  0.00  0.00    +0.011 A 
BRANCH  27   1
ATOM      1  S   UNK A   1       5.197  -1.549  23.391  0.00  0.00    -0.128 S 
ATOM     29  C   UNK A   1       6.574  -0.365  23.389  0.00  0.00    +0.090 C 
ENDBRANCH  27   1
BRANCH  23   5
ATOM      5  O   UNK A   1       0.181  -0.631  23.995  0.00  0.00    -0.494 OA
ATOM     28  C   UNK A   1      -0.422  -1.440  22.989  0.00  0.00    +0.277 C 
ENDBRANCH  23   5
ENDBRANCH  19  22
ENDBRANCH  11   8
BRANCH  14  17
ATOM     17  CB  LEU A   2      -3.894  -0.585  26.541  0.00  0.00    +0.034 C 
BRANCH  17  18
ATOM     18  CG  LEU A   2      -2.773  -1.168  25.661  0.00  0.00    -0.015 C 
ATOM     20  CD1 LEU A   2      -1.391  -1.013  26.299  0.00  0.00    +0.007 C 
ATOM     21  CD2 LEU A   2      -3.049  -2.647  25.381  0.00  0.00    +0.007 C 
ENDBRANCH  17  18
ENDBRANCH  14  17
TORSDOF 6
ENDMDL
MODEL 4
REMARK VINA RESULT:       7.2      1.697      3.739
REMARK  Name = 11867111
REMARK  10 active torsions:
REMARK  status: ('A' for Active; 'I' for Inactive)
REMARK    1  A    between atoms: S_1  and  C_27
REMARK    2  A    between atoms: S_1  and  C_29
REMARK    3  A    between atoms: O_5  and  C_23
REMARK    4  A    between atoms: O_5  and  C_28
REMARK    5  A    between atoms: N_8  and  C_11
REMARK    6  A    between atoms: CA_14  and  CB_17
REMARK    7  A    between atoms: CB_17  and  CG_18
REMARK    8  A    between atoms: CG_18  and  CD1_20
REMARK    9  A    between atoms: CG_18  and  CD2_21
REMARK   10  A    between atoms: C_19  and  C_22
REMARK                            x       y       z     vdW  Elec       q    Type
REMARK                         _______ _______ _______ _____ _____    ______ ____
ROOT
ATOM      2  O   LEU A   2      -5.829   2.656  23.385  0.00  0.00    -0.274 OA
ATOM      3  O   UNK A   1      -3.644   3.742  28.141  0.00  0.00    -0.274 OA
ATOM      6  N   UNK A   1      -4.093   3.640  24.600  0.00  0.00    -0.288 N 
ATOM      7  N   LEU A   2      -5.272   2.774  26.866  0.00  0.00    -0.302 N 
ATOM      9  C   UNK A   1      -3.210   3.480  25.767  0.00  0.00    +0.164 C 
ATOM     10  C   UNK A   1      -2.207   4.635  25.940  0.00  0.00    +0.054 C 
ATOM     11  C   UNK A   1      -1.521   5.054  24.645  0.00  0.00    +0.077 C 
ATOM     12  C   UNK A   1      -2.579   5.372  23.594  0.00  0.00    +0.041 C 
ATOM     13  C   UNK A   1      -3.531   4.207  23.373  0.00  0.00    +0.110 C 
ATOM     14  CA  LEU A   2      -5.624   2.033  25.677  0.00  0.00    +0.159 C 
ATOM     15  C   LEU A   2      -5.231   2.830  24.450  0.00  0.00    +0.237 C 
ATOM     16  C   UNK A   1      -4.054   3.392  27.036  0.00  0.00    +0.234 C 
ATOM     30  H   LEU A   2      -5.929   2.788  27.640  0.00  0.00    +0.150 HD
ENDROOT
BRANCH  11   8
ATOM      4  O   UNK A   1      -1.140   2.438  25.764  0.00  0.00    -0.270 OA
ATOM      8  N   UNK A   1      -0.586   4.052  24.193  0.00  0.00    -0.308 N 
ATOM     19  C   UNK A   1      -0.474   2.810  24.801  0.00  0.00    +0.248 C 
ATOM     31  H   UNK A   1       0.077   4.328  23.477  0.00  0.00    +0.149 HD
BRANCH  19  22
ATOM     22  C   UNK A   1       0.554   1.899  24.234  0.00  0.00    +0.078 A 
ATOM     23  C   UNK A   1       0.350   0.534  24.258  0.00  0.00    +0.133 A 
ATOM     24  C   UNK A   1       1.692   2.462  23.695  0.00  0.00    +0.018 A 
ATOM     25  C   UNK A   1       1.327  -0.304  23.721  0.00  0.00    +0.061 A 
ATOM     26  C   UNK A   1       2.671   1.625  23.158  0.00  0.00    +0.015 A 
ATOM     27  C   UNK A   1       2.487   0.241  23.171  0.00  0.00    +0.011 A 
BRANCH  27   1
ATOM      1  S   UNK A   1       3.736  -0.828  22.483  0.00  0.00    -0.128 S 
ATOM     29  C   UNK A   1       5.214  -0.304  23.398  0.00  0.00    +0.090 C 
ENDBRANCH  27   1
BRANCH  23   5
ATOM      5  O   UNK A   1      -0.778  -0.016  24.791  0.00  0.00    -0.494 OA
ATOM     28  C   UNK A   1      -0.688  -1.366  25.243  0.00  0.00    +0.277 C 
ENDBRANCH  23   5
ENDBRANCH  19  22
ENDBRANCH  11   8
BRANCH  14  17
ATOM     17  CB  LEU A   2      -5.023   0.635  25.658  0.00  0.00    +0.034 C 
BRANCH  17  18
ATOM     18  CG  LEU A   2      -4.656   0.141  24.246  0.00  0.00    -0.015 C 
ATOM     20  CD1 LEU A   2      -3.326   0.715  23.755  0.00  0.00    +0.007 C 
ATOM     21  CD2 LEU A   2      -4.598  -1.388  24.230  0.00  0.00    +0.007 C 
ENDBRANCH  17  18
ENDBRANCH  14  17
TORSDOF 6
ENDMDL
MODEL 5
REMARK VINA RESULT:       8.0      1.811      2.812
REMARK  Name = 11867111
REMARK  10 active torsions:
REMARK  status: ('A' for Active; 'I' for Inactive)
REMARK    1  A    between atoms: S_1  and  C_27
REMARK    2  A    between atoms: S_1  and  C_29
REMARK    3  A    between atoms: O_5  and  C_23
REMARK    4  A    between atoms: O_5  and  C_28
REMARK    5  A    between atoms: N_8  and  C_11
REMARK    6  A    between atoms: CA_14  and  CB_17
REMARK    7  A    between atoms: CB_17  and  CG_18
REMARK    8  A    between atoms: CG_18  and  CD1_20
REMARK    9  A    between atoms: CG_18  and  CD2_21
REMARK   10  A    between atoms: C_19  and  C_22
REMARK                            x       y       z     vdW  Elec       q    Type
REMARK                         _______ _______ _______ _____ _____    ______ ____
ROOT
ATOM      2  O   LEU A   2      -2.513   3.083  26.588  0.00  0.00    -0.274 OA
ATOM      3  O   UNK A   1      -3.276   0.791  21.819  0.00  0.00    -0.274 OA
ATOM      6  N   UNK A   1      -2.178   1.244  25.187  0.00  0.00    -0.288 N 
ATOM      7  N   LEU A   2      -3.513   2.558  23.247  0.00  0.00    -0.302 N 
ATOM      9  C   UNK A   1      -1.880   0.832  23.805  0.00  0.00    +0.164 C 
ATOM     10  C   UNK A   1      -1.783  -0.695  23.628  0.00  0.00    +0.054 C 
ATOM     11  C   UNK A   1      -0.971  -1.390  24.714  0.00  0.00    +0.077 C 
ATOM     12  C   UNK A   1      -1.528  -1.011  26.082  0.00  0.00    +0.041 C 
ATOM     13  C   UNK A   1      -1.563   0.496  26.285  0.00  0.00    +0.110 C 
ATOM     14  CA  LEU A   2      -2.932   3.404  24.263  0.00  0.00    +0.159 C 
ATOM     15  C   LEU A   2      -2.565   2.564  25.471  0.00  0.00    +0.237 C 
ATOM     16  C   UNK A   1      -2.973   1.349  22.874  0.00  0.00    +0.234 C 
ATOM     30  H   LEU A   2      -4.323   2.898  22.739  0.00  0.00    +0.150 HD
ENDROOT
BRANCH  11   8
ATOM      4  O   UNK A   1       0.455  -0.781  22.298  0.00  0.00    -0.270 OA
ATOM      8  N   UNK A   1       0.436  -1.091  24.596  0.00  0.00    -0.308 N 
ATOM     19  C   UNK A   1       1.038  -0.808  23.378  0.00  0.00    +0.248 C 
ATOM     31  H   UNK A   1       1.005  -1.206  25.428  0.00  0.00    +0.149 HD
BRANCH  19  22
ATOM     22  C   UNK A   1       2.500  -0.546  23.421  0.00  0.00    +0.078 A 
ATOM     23  C   UNK A   1       2.978   0.724  23.165  0.00  0.00    +0.133 A 
ATOM     24  C   UNK A   1       3.339  -1.600  23.720  0.00  0.00    +0.018 A 
ATOM     25  C   UNK A   1       4.353   0.949  23.210  0.00  0.00    +0.061 A 
ATOM     26  C   UNK A   1       4.715  -1.376  23.764  0.00  0.00    +0.015 A 
ATOM     27  C   UNK A   1       5.222  -0.101  23.510  0.00  0.00    +0.011 A 
BRANCH  27   1
ATOM      1  S   UNK A   1       6.981   0.185  23.568  0.00  0.00    -0.128 S 
ATOM     29  C   UNK A   1       7.600  -1.099  22.443  0.00  0.00    +0.090 C 
ENDBRANCH  27   1
BRANCH  23   5
ATOM      5  O   UNK A   1       2.144   1.761  22.871  0.00  0.00    -0.494 OA
ATOM     28  C   UNK A   1       1.230   2.165  23.888  0.00  0.00    +0.277 C 
ENDBRANCH  23   5
ENDBRANCH  19  22
ENDBRANCH  11   8
BRANCH  14  17
ATOM     17  CB  LEU A   2      -1.744   4.204  23.751  0.00  0.00    +0.034 C 
BRANCH  17  18
ATOM     18  CG  LEU A   2      -1.428   5.450  24.598  0.00  0.00    -0.015 C 
ATOM     20  CD1 LEU A   2      -2.546   5.780  25.588  0.00  0.00    +0.007 C 
ATOM     21  CD2 LEU A   2      -0.113   5.243  25.354  0.00  0.00    +0.007 C 
ENDBRANCH  17  18
ENDBRANCH  14  17
TORSDOF 6
ENDMDL
