MODEL 1
REMARK VINA RESULT:      -5.2      0.000      0.000
REMARK  Name = 75536882
REMARK  4 active torsions:
REMARK  status: ('A' for Active; 'I' for Inactive)
REMARK    1  A    between atoms: O_2  and  C_6
REMARK    2  A    between atoms: O_2  and  C_13
REMARK    3  A    between atoms: C_11  and  C_12
REMARK    4  A    between atoms: C_18  and  C_19
REMARK                            x       y       z     vdW  Elec       q    Type
REMARK                         _______ _______ _______ _____ _____    ______ ____
ROOT
ATOM      1  O   UNL     1      -5.847   3.151  25.384  0.00  0.00    -0.376 OA
ATOM      3  O   UNL     1      -3.051  -1.002  25.653  0.00  0.00    -0.270 OA
ATOM      4  N   UNL     1      -3.790   1.014  24.710  0.00  0.00    -0.293 N 
ATOM      6  C   UNL     1      -3.402   3.444  24.912  0.00  0.00    +0.161 C 
ATOM      7  C   UNL     1      -3.501   2.250  23.966  0.00  0.00    +0.142 C 
ATOM      8  C   UNL     1      -5.163   0.851  25.194  0.00  0.00    +0.136 C 
ATOM      9  C   UNL     1      -4.758   4.059  25.277  0.00  0.00    +0.193 C 
ATOM     10  C   UNL     1      -5.587   1.972  26.137  0.00  0.00    +0.179 C 
ATOM     11  C   UNL     1      -2.843   0.024  25.007  0.00  0.00    +0.247 C 
ENDROOT
BRANCH  11  12
ATOM     12  C   UNL     1      -1.472   0.208  24.515  0.00  0.00    +0.037 A 
ATOM     14  C   UNL     1      -0.835  -0.823  23.825  0.00  0.00    +0.014 A 
ATOM     15  C   UNL     1      -0.809   1.415  24.737  0.00  0.00    +0.014 A 
ATOM     16  C   UNL     1       0.467  -0.647  23.356  0.00  0.00    +0.019 A 
ATOM     17  C   UNL     1       0.493   1.590  24.267  0.00  0.00    +0.019 A 
ATOM     18  C   UNL     1       1.131   0.559  23.577  0.00  0.00    +0.052 A 
BRANCH  18  19
ATOM      5  N   UNL     1       3.549   0.884  22.707  0.00  0.00    -0.191 NA
ATOM     19  C   UNL     1       2.465   0.739  23.097  0.00  0.00    +0.099 C 
ENDBRANCH  18  19
ENDBRANCH  11  12
BRANCH   6   2
ATOM      2  O   UNL     1      -2.589   4.447  24.305  0.00  0.00    -0.376 OA
ATOM     13  C   UNL     1      -1.633   4.959  25.219  0.00  0.00    +0.194 C 
ENDBRANCH   6   2
TORSDOF 3
ENDMDL
MODEL 2
REMARK VINA RESULT:      -4.0      2.411      5.793
REMARK  Name = 75536882
REMARK  4 active torsions:
REMARK  status: ('A' for Active; 'I' for Inactive)
REMARK    1  A    between atoms: O_2  and  C_6
REMARK    2  A    between atoms: O_2  and  C_13
REMARK    3  A    between atoms: C_11  and  C_12
REMARK    4  A    between atoms: C_18  and  C_19
REMARK                            x       y       z     vdW  Elec       q    Type
REMARK                         _______ _______ _______ _____ _____    ______ ____
ROOT
ATOM      1  O   UNL     1       0.531  -1.395  24.105  0.00  0.00    -0.376 OA
ATOM      3  O   UNL     1      -4.482  -1.426  24.118  0.00  0.00    -0.270 OA
ATOM      4  N   UNL     1      -2.352  -0.732  24.811  0.00  0.00    -0.293 N 
ATOM      6  C   UNL     1      -0.577   0.853  24.151  0.00  0.00    +0.161 C 
ATOM      7  C   UNL     1      -1.455   0.333  25.287  0.00  0.00    +0.142 C 
ATOM      8  C   UNL     1      -1.740  -2.041  24.572  0.00  0.00    +0.136 C 
ATOM      9  C   UNL     1       0.673   0.004  23.895  0.00  0.00    +0.193 C 
ATOM     10  C   UNL     1      -0.628  -1.985  23.529  0.00  0.00    +0.179 C 
ATOM     11  C   UNL     1      -3.718  -0.561  24.545  0.00  0.00    +0.247 C 
ENDROOT
BRANCH  11  12
ATOM     12  C   UNL     1      -4.311   0.759  24.788  0.00  0.00    +0.037 A 
ATOM     14  C   UNL     1      -5.353   0.897  25.706  0.00  0.00    +0.014 A 
ATOM     15  C   UNL     1      -3.831   1.875  24.103  0.00  0.00    +0.014 A 
ATOM     16  C   UNL     1      -5.914   2.152  25.938  0.00  0.00    +0.019 A 
ATOM     17  C   UNL     1      -4.393   3.131  24.337  0.00  0.00    +0.019 A 
ATOM     18  C   UNL     1      -5.435   3.269  25.253  0.00  0.00    +0.052 A 
BRANCH  18  19
ATOM      5  N   UNL     1      -6.480   5.599  25.684  0.00  0.00    -0.191 NA
ATOM     19  C   UNL     1      -6.011   4.555  25.491  0.00  0.00    +0.099 C 
ENDBRANCH  18  19
ENDBRANCH  11  12
BRANCH   6   2
ATOM      2  O   UNL     1      -0.174   2.188  24.453  0.00  0.00    -0.376 OA
ATOM     13  C   UNL     1      -0.232   2.441  25.847  0.00  0.00    +0.194 C 
ENDBRANCH   6   2
TORSDOF 3
ENDMDL
MODEL 3
REMARK VINA RESULT:      -3.7      2.435      4.665
REMARK  Name = 75536882
REMARK  4 active torsions:
REMARK  status: ('A' for Active; 'I' for Inactive)
REMARK    1  A    between atoms: O_2  and  C_6
REMARK    2  A    between atoms: O_2  and  C_13
REMARK    3  A    between atoms: C_11  and  C_12
REMARK    4  A    between atoms: C_18  and  C_19
REMARK                            x       y       z     vdW  Elec       q    Type
REMARK                         _______ _______ _______ _____ _____    ______ ____
ROOT
ATOM      1  O   UNL     1      -0.962   5.168  24.790  0.00  0.00    -0.376 OA
ATOM      3  O   UNL     1      -5.152   2.588  25.749  0.00  0.00    -0.270 OA
ATOM      4  N   UNL     1      -3.161   3.074  24.611  0.00  0.00    -0.293 N 
ATOM      6  C   UNL     1      -0.732   2.672  24.803  0.00  0.00    +0.161 C 
ATOM      7  C   UNL     1      -1.960   2.613  23.897  0.00  0.00    +0.142 C 
ATOM      8  C   UNL     1      -3.280   4.520  24.818  0.00  0.00    +0.136 C 
ATOM      9  C   UNL     1      -0.079   4.056  24.871  0.00  0.00    +0.193 C 
ATOM     10  C   UNL     1      -2.116   5.093  25.620  0.00  0.00    +0.179 C 
ATOM     11  C   UNL     1      -4.156   2.230  25.123  0.00  0.00    +0.247 C 
ENDROOT
BRANCH  11  12
ATOM     12  C   UNL     1      -4.016   0.785  24.907  0.00  0.00    +0.037 A 
ATOM     14  C   UNL     1      -4.324   0.233  23.663  0.00  0.00    +0.014 A 
ATOM     15  C   UNL     1      -3.573  -0.035  25.945  0.00  0.00    +0.014 A 
ATOM     16  C   UNL     1      -4.189  -1.140  23.458  0.00  0.00    +0.019 A 
ATOM     17  C   UNL     1      -3.438  -1.408  25.738  0.00  0.00    +0.019 A 
ATOM     18  C   UNL     1      -3.746  -1.960  24.495  0.00  0.00    +0.052 A 
BRANCH  18  19
ATOM      5  N   UNL     1      -3.497  -4.510  24.113  0.00  0.00    -0.191 NA
ATOM     19  C   UNL     1      -3.608  -3.367  24.284  0.00  0.00    +0.099 C 
ENDBRANCH  18  19
ENDBRANCH  11  12
BRANCH   6   2
ATOM      2  O   UNL     1       0.232   1.730  24.336  0.00  0.00    -0.376 OA
ATOM     13  C   UNL     1      -0.380   0.504  23.971  0.00  0.00    +0.194 C 
ENDBRANCH   6   2
TORSDOF 3
ENDMDL
MODEL 4
REMARK VINA RESULT:      -3.6      2.338      6.125
REMARK  Name = 75536882
REMARK  4 active torsions:
REMARK  status: ('A' for Active; 'I' for Inactive)
REMARK    1  A    between atoms: O_2  and  C_6
REMARK    2  A    between atoms: O_2  and  C_13
REMARK    3  A    between atoms: C_11  and  C_12
REMARK    4  A    between atoms: C_18  and  C_19
REMARK                            x       y       z     vdW  Elec       q    Type
REMARK                         _______ _______ _______ _____ _____    ______ ____
ROOT
ATOM      1  O   UNL     1      -0.653  -2.604  24.152  0.00  0.00    -0.376 OA
ATOM      3  O   UNL     1       0.227   2.288  24.802  0.00  0.00    -0.270 OA
ATOM      4  N   UNL     1      -0.982   0.418  24.068  0.00  0.00    -0.293 N 
ATOM      6  C   UNL     1      -2.605  -1.234  24.924  0.00  0.00    +0.161 C 
ATOM      7  C   UNL     1      -2.273  -0.241  23.813  0.00  0.00    +0.142 C 
ATOM      8  C   UNL     1       0.219  -0.385  23.823  0.00  0.00    +0.136 C 
ATOM      9  C   UNL     1      -1.944  -2.605  24.747  0.00  0.00    +0.193 C 
ATOM     10  C   UNL     1       0.260  -1.648  24.677  0.00  0.00    +0.179 C 
ATOM     11  C   UNL     1      -0.838   1.725  24.552  0.00  0.00    +0.247 C 
ENDROOT
BRANCH  11  12
ATOM     12  C   UNL     1      -2.054   2.512  24.793  0.00  0.00    +0.037 A 
ATOM     14  C   UNL     1      -3.129   2.422  23.908  0.00  0.00    +0.014 A 
ATOM     15  C   UNL     1      -2.135   3.347  25.907  0.00  0.00    +0.014 A 
ATOM     16  C   UNL     1      -4.285   3.168  24.138  0.00  0.00    +0.019 A 
ATOM     17  C   UNL     1      -3.292   4.092  26.137  0.00  0.00    +0.019 A 
ATOM     18  C   UNL     1      -4.366   4.003  25.252  0.00  0.00    +0.052 A 
BRANCH  18  19
ATOM      5  N   UNL     1      -6.512   5.389  25.679  0.00  0.00    -0.191 NA
ATOM     19  C   UNL     1      -5.550   4.768  25.487  0.00  0.00    +0.099 C 
ENDBRANCH  18  19
ENDBRANCH  11  12
BRANCH   6   2
ATOM      2  O   UNL     1      -4.020  -1.407  24.980  0.00  0.00    -0.376 OA
ATOM     13  C   UNL     1      -4.499  -2.108  23.844  0.00  0.00    +0.194 C 
ENDBRANCH   6   2
TORSDOF 3
ENDMDL
MODEL 5
REMARK VINA RESULT:      -3.5      2.353      4.468
REMARK  Name = 75536882
REMARK  4 active torsions:
REMARK  status: ('A' for Active; 'I' for Inactive)
REMARK    1  A    between atoms: O_2  and  C_6
REMARK    2  A    between atoms: O_2  and  C_13
REMARK    3  A    between atoms: C_11  and  C_12
REMARK    4  A    between atoms: C_18  and  C_19
REMARK                            x       y       z     vdW  Elec       q    Type
REMARK                         _______ _______ _______ _____ _____    ______ ____
ROOT
ATOM      1  O   UNL     1      -1.741   5.615  25.276  0.00  0.00    -0.376 OA
ATOM      3  O   UNL     1       0.670   1.316  24.359  0.00  0.00    -0.270 OA
ATOM      4  N   UNL     1      -1.030   2.657  25.258  0.00  0.00    -0.293 N 
ATOM      6  C   UNL     1      -3.178   3.678  24.592  0.00  0.00    +0.161 C 
ATOM      7  C   UNL     1      -2.441   2.839  25.634  0.00  0.00    +0.142 C 
ATOM      8  C   UNL     1      -0.152   3.815  25.447  0.00  0.00    +0.136 C 
ATOM      9  C   UNL     1      -3.002   5.189  24.778  0.00  0.00    +0.193 C 
ATOM     10  C   UNL     1      -0.607   5.030  24.646  0.00  0.00    +0.179 C 
ATOM     11  C   UNL     1      -0.497   1.483  24.709  0.00  0.00    +0.247 C 
ENDROOT
BRANCH  11  12
ATOM     12  C   UNL     1      -1.395   0.336  24.525  0.00  0.00    +0.037 A 
ATOM     14  C   UNL     1      -2.672   0.528  23.997  0.00  0.00    +0.014 A 
ATOM     15  C   UNL     1      -0.970  -0.945  24.878  0.00  0.00    +0.014 A 
ATOM     16  C   UNL     1      -3.524  -0.562  23.820  0.00  0.00    +0.019 A 
ATOM     17  C   UNL     1      -1.823  -2.035  24.700  0.00  0.00    +0.019 A 
ATOM     18  C   UNL     1      -3.099  -1.844  24.172  0.00  0.00    +0.052 A 
BRANCH  18  19
ATOM      5  N   UNL     1      -4.683  -3.867  23.845  0.00  0.00    -0.191 NA
ATOM     19  C   UNL     1      -3.973  -2.960  23.991  0.00  0.00    +0.099 C 
ENDBRANCH  18  19
ENDBRANCH  11  12
BRANCH   6   2
ATOM      2  O   UNL     1      -4.568   3.365  24.647  0.00  0.00    -0.376 OA
ATOM     13  C   UNL     1      -4.982   3.085  25.974  0.00  0.00    +0.194 C 
ENDBRANCH   6   2
TORSDOF 3
ENDMDL
MODEL 6
REMARK VINA RESULT:      -3.2      2.542      5.051
REMARK  Name = 75536882
REMARK  4 active torsions:
REMARK  status: ('A' for Active; 'I' for Inactive)
REMARK    1  A    between atoms: O_2  and  C_6
REMARK    2  A    between atoms: O_2  and  C_13
REMARK    3  A    between atoms: C_11  and  C_12
REMARK    4  A    between atoms: C_18  and  C_19
REMARK                            x       y       z     vdW  Elec       q    Type
REMARK                         _______ _______ _______ _____ _____    ______ ____
ROOT
ATOM      1  O   UNL     1      -2.363  -3.417  24.654  0.00  0.00    -0.376 OA
ATOM      3  O   UNL     1      -5.362   0.599  24.547  0.00  0.00    -0.270 OA
ATOM      4  N   UNL     1      -3.472  -0.634  25.181  0.00  0.00    -0.293 N 
ATOM      6  C   UNL     1      -1.223  -1.207  24.337  0.00  0.00    +0.161 C 
ATOM      7  C   UNL     1      -2.039  -0.683  25.516  0.00  0.00    +0.142 C 
ATOM      8  C   UNL     1      -4.178  -1.917  25.155  0.00  0.00    +0.136 C 
ATOM      9  C   UNL     1      -1.185  -2.736  24.241  0.00  0.00    +0.193 C 
ATOM     10  C   UNL     1      -3.583  -2.891  24.143  0.00  0.00    +0.179 C 
ATOM     11  C   UNL     1      -4.174   0.535  24.859  0.00  0.00    +0.247 C 
ENDROOT
BRANCH  11  12
ATOM     12  C   UNL     1      -3.447   1.810  24.888  0.00  0.00    +0.037 A 
ATOM     14  C   UNL     1      -3.872   2.836  25.733  0.00  0.00    +0.014 A 
ATOM     15  C   UNL     1      -2.331   1.994  24.073  0.00  0.00    +0.014 A 
ATOM     16  C   UNL     1      -3.180   4.046  25.762  0.00  0.00    +0.019 A 
ATOM     17  C   UNL     1      -1.638   3.205  24.103  0.00  0.00    +0.019 A 
ATOM     18  C   UNL     1      -2.063   4.231  24.947  0.00  0.00    +0.052 A 
BRANCH  18  19
ATOM      5  N   UNL     1      -0.778   6.479  25.001  0.00  0.00    -0.191 NA
ATOM     19  C   UNL     1      -1.354   5.472  24.977  0.00  0.00    +0.099 C 
ENDBRANCH  18  19
ENDBRANCH  11  12
BRANCH   6   2
ATOM      2  O   UNL     1       0.113  -0.719  24.447  0.00  0.00    -0.376 OA
ATOM     13  C   UNL     1       0.561  -0.163  23.222  0.00  0.00    +0.194 C 
ENDBRANCH   6   2
TORSDOF 3
ENDMDL
MODEL 7
REMARK VINA RESULT:      -3.1      1.488      3.160
REMARK  Name = 75536882
REMARK  4 active torsions:
REMARK  status: ('A' for Active; 'I' for Inactive)
REMARK    1  A    between atoms: O_2  and  C_6
REMARK    2  A    between atoms: O_2  and  C_13
REMARK    3  A    between atoms: C_11  and  C_12
REMARK    4  A    between atoms: C_18  and  C_19
REMARK                            x       y       z     vdW  Elec       q    Type
REMARK                         _______ _______ _______ _____ _____    ______ ____
ROOT
ATOM      1  O   UNL     1      -6.428   2.692  25.887  0.00  0.00    -0.376 OA
ATOM      3  O   UNL     1      -1.990   4.854  25.017  0.00  0.00    -0.270 OA
ATOM      4  N   UNL     1      -3.426   3.108  25.639  0.00  0.00    -0.293 N 
ATOM      6  C   UNL     1      -4.772   1.314  24.606  0.00  0.00    +0.161 C 
ATOM      7  C   UNL     1      -3.739   1.671  25.672  0.00  0.00    +0.142 C 
ATOM      8  C   UNL     1      -4.437   4.008  26.199  0.00  0.00    +0.136 C 
ATOM      9  C   UNL     1      -6.220   1.573  25.036  0.00  0.00    +0.193 C 
ATOM     10  C   UNL     1      -5.780   3.893  25.485  0.00  0.00    +0.179 C 
ATOM     11  C   UNL     1      -2.261   3.656  25.084  0.00  0.00    +0.247 C 
ENDROOT
BRANCH  11  12
ATOM     12  C   UNL     1      -1.262   2.737  24.526  0.00  0.00    +0.037 A 
ATOM     14  C   UNL     1      -0.006   2.626  25.124  0.00  0.00    +0.014 A 
ATOM     15  C   UNL     1      -1.569   1.975  23.400  0.00  0.00    +0.014 A 
ATOM     16  C   UNL     1       0.943   1.752  24.595  0.00  0.00    +0.019 A 
ATOM     17  C   UNL     1      -0.619   1.100  22.871  0.00  0.00    +0.019 A 
ATOM     18  C   UNL     1       0.636   0.988  23.468  0.00  0.00    +0.052 A 
BRANCH  18  19
ATOM      5  N   UNL     1       2.399  -0.634  22.484  0.00  0.00    -0.191 NA
ATOM     19  C   UNL     1       1.609   0.093  22.925  0.00  0.00    +0.099 C 
ENDBRANCH  18  19
ENDBRANCH  11  12
BRANCH   6   2
ATOM      2  O   UNL     1      -4.630  -0.064  24.268  0.00  0.00    -0.376 OA
ATOM     13  C   UNL     1      -3.662  -0.699  25.088  0.00  0.00    +0.194 C 
ENDBRANCH   6   2
TORSDOF 3
ENDMDL
MODEL 8
REMARK VINA RESULT:      -2.4      2.299      3.917
REMARK  Name = 75536882
REMARK  4 active torsions:
REMARK  status: ('A' for Active; 'I' for Inactive)
REMARK    1  A    between atoms: O_2  and  C_6
REMARK    2  A    between atoms: O_2  and  C_13
REMARK    3  A    between atoms: C_11  and  C_12
REMARK    4  A    between atoms: C_18  and  C_19
REMARK                            x       y       z     vdW  Elec       q    Type
REMARK                         _______ _______ _______ _____ _____    ______ ____
ROOT
ATOM      1  O   UNL     1      -4.441  -1.519  25.141  0.00  0.00    -0.376 OA
ATOM      3  O   UNL     1      -2.034   2.161  22.733  0.00  0.00    -0.270 OA
ATOM      4  N   UNL     1      -2.288   0.476  24.343  0.00  0.00    -0.293 N 
ATOM      6  C   UNL     1      -2.042  -1.971  24.568  0.00  0.00    +0.161 C 
ATOM      7  C   UNL     1      -1.705  -0.603  25.157  0.00  0.00    +0.142 C 
ATOM      8  C   UNL     1      -3.732   0.683  24.475  0.00  0.00    +0.136 C 
ATOM      9  C   UNL     1      -3.422  -2.498  24.977  0.00  0.00    +0.193 C 
ATOM     10  C   UNL     1      -4.537  -0.557  24.097  0.00  0.00    +0.179 C 
ATOM     11  C   UNL     1      -1.566   1.274  23.445  0.00  0.00    +0.247 C 
ENDROOT
BRANCH  11  12
ATOM     12  C   UNL     1      -0.120   1.049  23.327  0.00  0.00    +0.037 A 
ATOM     14  C   UNL     1       0.358  -0.027  22.578  0.00  0.00    +0.014 A 
ATOM     15  C   UNL     1       0.773   1.911  23.961  0.00  0.00    +0.014 A 
ATOM     16  C   UNL     1       1.732  -0.240  22.463  0.00  0.00    +0.019 A 
ATOM     17  C   UNL     1       2.147   1.698  23.845  0.00  0.00    +0.019 A 
ATOM     18  C   UNL     1       2.626   0.623  23.097  0.00  0.00    +0.052 A 
BRANCH  18  19
ATOM      5  N   UNL     1       5.177   0.226  22.885  0.00  0.00    -0.191 NA
ATOM     19  C   UNL     1       4.034   0.404  22.980  0.00  0.00    +0.099 C 
ENDBRANCH  18  19
ENDBRANCH  11  12
BRANCH   6   2
ATOM      2  O   UNL     1      -1.050  -2.909  24.981  0.00  0.00    -0.376 OA
ATOM     13  C   UNL     1       0.112  -2.252  25.461  0.00  0.00    +0.194 C 
ENDBRANCH   6   2
TORSDOF 3
ENDMDL
MODEL 9
REMARK VINA RESULT:      -2.0      2.552      4.513
REMARK  Name = 75536882
REMARK  4 active torsions:
REMARK  status: ('A' for Active; 'I' for Inactive)
REMARK    1  A    between atoms: O_2  and  C_6
REMARK    2  A    between atoms: O_2  and  C_13
REMARK    3  A    between atoms: C_11  and  C_12
REMARK    4  A    between atoms: C_18  and  C_19
REMARK                            x       y       z     vdW  Elec       q    Type
REMARK                         _______ _______ _______ _____ _____    ______ ____
ROOT
ATOM      1  O   UNL     1      -4.097  -3.157  23.967  0.00  0.00    -0.376 OA
ATOM      3  O   UNL     1       0.210  -1.002  25.358  0.00  0.00    -0.270 OA
ATOM      4  N   UNL     1      -1.796  -1.177  24.158  0.00  0.00    -0.293 N 
ATOM      6  C   UNL     1      -4.204  -0.695  24.427  0.00  0.00    +0.161 C 
ATOM      7  C   UNL     1      -2.970  -0.536  23.542  0.00  0.00    +0.142 C 
ATOM      8  C   UNL     1      -1.750  -2.640  24.102  0.00  0.00    +0.136 C 
ATOM      9  C   UNL     1      -4.924  -2.036  24.249  0.00  0.00    +0.193 C 
ATOM     10  C   UNL     1      -2.946  -3.289  24.793  0.00  0.00    +0.179 C 
ATOM     11  C   UNL     1      -0.764  -0.488  24.810  0.00  0.00    +0.247 C 
ENDROOT
BRANCH  11  12
ATOM     12  C   UNL     1      -0.831   0.977  24.856  0.00  0.00    +0.037 A 
ATOM     14  C   UNL     1      -0.047   1.739  23.989  0.00  0.00    +0.014 A 
ATOM     15  C   UNL     1      -1.680   1.607  25.766  0.00  0.00    +0.014 A 
ATOM     16  C   UNL     1      -0.113   3.131  24.033  0.00  0.00    +0.019 A 
ATOM     17  C   UNL     1      -1.746   3.000  25.809  0.00  0.00    +0.019 A 
ATOM     18  C   UNL     1      -0.962   3.762  24.942  0.00  0.00    +0.052 A 
BRANCH  18  19
ATOM      5  N   UNL     1      -1.082   6.348  25.024  0.00  0.00    -0.191 NA
ATOM     19  C   UNL     1      -1.028   5.189  24.987  0.00  0.00    +0.099 C 
ENDBRANCH  18  19
ENDBRANCH  11  12
BRANCH   6   2
ATOM      2  O   UNL     1      -5.117   0.362  24.140  0.00  0.00    -0.376 OA
ATOM     13  C   UNL     1      -5.115   1.339  25.168  0.00  0.00    +0.194 C 
ENDBRANCH   6   2
TORSDOF 3
ENDMDL
MODEL 10
REMARK VINA RESULT:      -1.3      2.746      5.379
REMARK  Name = 75536882
REMARK  4 active torsions:
REMARK  status: ('A' for Active; 'I' for Inactive)
REMARK    1  A    between atoms: O_2  and  C_6
REMARK    2  A    between atoms: O_2  and  C_13
REMARK    3  A    between atoms: C_11  and  C_12
REMARK    4  A    between atoms: C_18  and  C_19
REMARK                            x       y       z     vdW  Elec       q    Type
REMARK                         _______ _______ _______ _____ _____    ______ ____
ROOT
ATOM      1  O   UNL     1      -0.625  -2.815  25.296  0.00  0.00    -0.376 OA
ATOM      3  O   UNL     1      -5.109  -0.863  24.194  0.00  0.00    -0.270 OA
ATOM      4  N   UNL     1      -2.960  -0.872  25.130  0.00  0.00    -0.293 N 
ATOM      6  C   UNL     1      -0.616  -0.445  24.477  0.00  0.00    +0.161 C 
ATOM      7  C   UNL     1      -1.725  -0.154  25.486  0.00  0.00    +0.142 C 
ATOM      8  C   UNL     1      -2.977  -2.312  25.401  0.00  0.00    +0.136 C 
ATOM      9  C   UNL     1       0.141  -1.750  24.749  0.00  0.00    +0.193 C 
ATOM     10  C   UNL     1      -1.873  -3.059  24.658  0.00  0.00    +0.179 C 
ATOM     11  C   UNL     1      -4.079  -0.280  24.529  0.00  0.00    +0.247 C 
ENDROOT
BRANCH  11  12
ATOM     12  C   UNL     1      -4.040   1.163  24.263  0.00  0.00    +0.037 A 
ATOM     14  C   UNL     1      -4.679   2.049  25.131  0.00  0.00    +0.014 A 
ATOM     15  C   UNL     1      -3.362   1.648  23.145  0.00  0.00    +0.014 A 
ATOM     16  C   UNL     1      -4.640   3.420  24.880  0.00  0.00    +0.019 A 
ATOM     17  C   UNL     1      -3.323   3.020  22.895  0.00  0.00    +0.019 A 
ATOM     18  C   UNL     1      -3.962   3.905  23.762  0.00  0.00    +0.052 A 
BRANCH  18  19
ATOM      5  N   UNL     1      -3.892   6.452  23.296  0.00  0.00    -0.191 NA
ATOM     19  C   UNL     1      -3.924   5.311  23.505  0.00  0.00    +0.099 C 
ENDBRANCH  18  19
ENDBRANCH  11  12
BRANCH   6   2
ATOM      2  O   UNL     1       0.312   0.638  24.486  0.00  0.00    -0.376 OA
ATOM     13  C   UNL     1      -0.211   1.759  25.179  0.00  0.00    +0.194 C 
ENDBRANCH   6   2
TORSDOF 3
ENDMDL
