MODEL 1
REMARK VINA RESULT:      16.8      0.000      0.000
REMARK  Name = 11941470
REMARK  5 active torsions:
REMARK  status: ('A' for Active; 'I' for Inactive)
REMARK    1  A    between atoms: O_5  and  C_28
REMARK    2  A    between atoms: O_5  and  C_33
REMARK    3  A    between atoms: N_7  and  C_9
REMARK    4  A    between atoms: C_12  and  C_18
REMARK    5  A    between atoms: C_25  and  C_27
REMARK                            x       y       z     vdW  Elec       q    Type
REMARK                         _______ _______ _______ _____ _____    ______ ____
ROOT
ATOM      3  O   UNL     1      -2.574   5.622  24.193  0.00  0.00    -0.273 OA
ATOM      4  O   UNL     1       0.392   2.407  27.130  0.00  0.00    -0.270 OA
ATOM      6  N   UNL     1      -1.521   3.136  26.081  0.00  0.00    -0.284 N 
ATOM      8  N   UNL     1      -0.593   4.608  23.709  0.00  0.00    -0.283 N 
ATOM      9  C   UNL     1      -3.775   3.382  25.411  0.00  0.00    +0.104 C 
ATOM     10  C   UNL     1      -2.332   3.328  24.893  0.00  0.00    +0.183 C 
ATOM     11  C   UNL     1      -3.620   3.886  26.848  0.00  0.00    +0.043 C 
ATOM     13  C   UNL     1      -2.309   3.263  27.299  0.00  0.00    +0.111 C 
ATOM     19  C   UNL     1      -1.851   4.628  24.277  0.00  0.00    +0.240 C 
ATOM     20  C   UNL     1      -0.209   2.715  26.100  0.00  0.00    +0.249 C 
ATOM     21  C   UNL     1       0.526   2.653  24.809  0.00  0.00    +0.059 A 
ATOM     22  C   UNL     1       0.384   3.591  23.773  0.00  0.00    +0.046 A 
ATOM     23  C   UNL     1       1.536   1.678  24.727  0.00  0.00    +0.023 A 
ATOM     24  C   UNL     1       1.303   3.569  22.709  0.00  0.00    +0.024 A 
ATOM     25  C   UNL     1       2.409   1.643  23.640  0.00  0.00    -0.014 A 
ATOM     26  C   UNL     1       2.300   2.597  22.636  0.00  0.00    +0.010 A 
ATOM     35  H   UNL     1      -0.378   5.392  23.099  0.00  0.00    +0.155 HD
ENDROOT
BRANCH  25  27
ATOM      1 CL   UNL     1       7.438   0.522  23.672  0.00  0.00    -0.084 Cl
ATOM     27  C   UNL     1       3.439   0.629  23.570  0.00  0.00    +0.025 A 
ATOM     28  C   UNL     1       3.108  -0.720  23.430  0.00  0.00    +0.128 A 
ATOM     29  C   UNL     1       4.779   1.011  23.645  0.00  0.00    +0.032 A 
ATOM     30  C   UNL     1       4.115  -1.684  23.365  0.00  0.00    +0.047 A 
ATOM     31  C   UNL     1       5.787   0.048  23.579  0.00  0.00    +0.042 A 
ATOM     32  C   UNL     1       5.454  -1.299  23.439  0.00  0.00    +0.023 A 
BRANCH  28   5
ATOM      5  O   UNL     1       1.808  -1.125  23.356  0.00  0.00    -0.495 OA
ATOM     33  C   UNL     1       1.042  -0.641  22.256  0.00  0.00    +0.277 C 
ENDBRANCH  28   5
ENDBRANCH  25  27
BRANCH   9   7
ATOM      2  O   UNL     1      -2.739   0.983  24.147  0.00  0.00    -0.276 OA
ATOM      7  N   UNL     1      -4.385   2.073  25.380  0.00  0.00    -0.310 N 
ATOM     18  C   UNL     1      -3.810   0.983  24.747  0.00  0.00    +0.216 C 
ATOM     34  H   UNL     1      -5.246   1.938  25.903  0.00  0.00    +0.149 HD
BRANCH  18  12
ATOM     12  C   UNL     1      -4.639  -0.257  24.889  0.00  0.00    +0.075 C 
ATOM     14  C   UNL     1      -4.040  -1.178  25.958  0.00  0.00    +0.013 C 
ATOM     15  C   UNL     1      -4.638  -1.058  23.586  0.00  0.00    +0.013 C 
ATOM     16  C   UNL     1      -3.803  -2.518  25.269  0.00  0.00    +0.001 C 
ATOM     17  C   UNL     1      -3.606  -2.154  23.808  0.00  0.00    +0.001 C 
ENDBRANCH  18  12
ENDBRANCH   9   7
TORSDOF 4
ENDMDL
MODEL 2
REMARK VINA RESULT:      17.7      2.184      4.632
REMARK  Name = 11941470
REMARK  5 active torsions:
REMARK  status: ('A' for Active; 'I' for Inactive)
REMARK    1  A    between atoms: O_5  and  C_28
REMARK    2  A    between atoms: O_5  and  C_33
REMARK    3  A    between atoms: N_7  and  C_9
REMARK    4  A    between atoms: C_12  and  C_18
REMARK    5  A    between atoms: C_25  and  C_27
REMARK                            x       y       z     vdW  Elec       q    Type
REMARK                         _______ _______ _______ _____ _____    ______ ____
ROOT
ATOM      3  O   UNL     1      -4.399  -1.510  26.022  0.00  0.00    -0.273 OA
ATOM      4  O   UNL     1      -1.678   0.366  21.919  0.00  0.00    -0.270 OA
ATOM      6  N   UNL     1      -3.010   0.477  23.791  0.00  0.00    -0.284 N 
ATOM      8  N   UNL     1      -2.218  -1.824  25.445  0.00  0.00    -0.283 N 
ATOM      9  C   UNL     1      -4.463   1.256  25.486  0.00  0.00    +0.104 C 
ATOM     10  C   UNL     1      -3.199   0.424  25.229  0.00  0.00    +0.183 C 
ATOM     11  C   UNL     1      -5.239   1.141  24.173  0.00  0.00    +0.043 C 
ATOM     13  C   UNL     1      -4.144   1.096  23.120  0.00  0.00    +0.111 C 
ATOM     19  C   UNL     1      -3.352  -1.047  25.566  0.00  0.00    +0.240 C 
ATOM     20  C   UNL     1      -1.851   0.153  23.120  0.00  0.00    +0.249 C 
ATOM     21  C   UNL     1      -0.762  -0.511  23.883  0.00  0.00    +0.059 A 
ATOM     22  C   UNL     1      -0.971  -1.477  24.881  0.00  0.00    +0.046 A 
ATOM     23  C   UNL     1       0.545  -0.254  23.432  0.00  0.00    +0.023 A 
ATOM     24  C   UNL     1       0.131  -2.209  25.357  0.00  0.00    +0.024 A 
ATOM     25  C   UNL     1       1.632  -0.957  23.950  0.00  0.00    -0.014 A 
ATOM     26  C   UNL     1       1.423  -1.944  24.905  0.00  0.00    +0.010 A 
ATOM     35  H   UNL     1      -2.264  -2.735  25.893  0.00  0.00    +0.155 HD
ENDROOT
BRANCH  25  27
ATOM      1 CL   UNL     1       6.708  -1.285  24.771  0.00  0.00    -0.084 Cl
ATOM     27  C   UNL     1       2.970  -0.675  23.478  0.00  0.00    +0.025 A 
ATOM     28  C   UNL     1       3.179  -0.022  22.262  0.00  0.00    +0.128 A 
ATOM     29  C   UNL     1       4.064  -1.065  24.253  0.00  0.00    +0.032 A 
ATOM     30  C   UNL     1       4.476   0.241  21.822  0.00  0.00    +0.047 A 
ATOM     31  C   UNL     1       5.362  -0.803  23.814  0.00  0.00    +0.042 A 
ATOM     32  C   UNL     1       5.568  -0.150  22.599  0.00  0.00    +0.023 A 
BRANCH  28   5
ATOM      5  O   UNL     1       2.131   0.369  21.482  0.00  0.00    -0.495 OA
ATOM     33  C   UNL     1       1.350  -0.661  20.882  0.00  0.00    +0.277 C 
ENDBRANCH  28   5
ENDBRANCH  25  27
BRANCH   9   7
ATOM      2  O   UNL     1      -1.810   2.412  25.721  0.00  0.00    -0.276 OA
ATOM      7  N   UNL     1      -4.126   2.631  25.776  0.00  0.00    -0.310 N 
ATOM     18  C   UNL     1      -2.823   3.090  25.869  0.00  0.00    +0.216 C 
ATOM     34  H   UNL     1      -4.888   3.299  25.851  0.00  0.00    +0.149 HD
BRANCH  18  12
ATOM     12  C   UNL     1      -2.758   4.559  26.152  0.00  0.00    +0.075 C 
ATOM     14  C   UNL     1      -3.571   5.339  25.113  0.00  0.00    +0.013 C 
ATOM     15  C   UNL     1      -1.320   5.067  26.038  0.00  0.00    +0.013 C 
ATOM     16  C   UNL     1      -2.605   6.345  24.497  0.00  0.00    +0.001 C 
ATOM     17  C   UNL     1      -1.242   5.695  24.654  0.00  0.00    +0.001 C 
ENDBRANCH  18  12
ENDBRANCH   9   7
TORSDOF 4
ENDMDL
MODEL 3
REMARK VINA RESULT:      19.2      3.965      6.904
REMARK  Name = 11941470
REMARK  5 active torsions:
REMARK  status: ('A' for Active; 'I' for Inactive)
REMARK    1  A    between atoms: O_5  and  C_28
REMARK    2  A    between atoms: O_5  and  C_33
REMARK    3  A    between atoms: N_7  and  C_9
REMARK    4  A    between atoms: C_12  and  C_18
REMARK    5  A    between atoms: C_25  and  C_27
REMARK                            x       y       z     vdW  Elec       q    Type
REMARK                         _______ _______ _______ _____ _____    ______ ____
ROOT
ATOM      3  O   UNL     1      -3.201   5.650  25.472  0.00  0.00    -0.273 OA
ATOM      4  O   UNL     1      -1.328   1.810  22.389  0.00  0.00    -0.270 OA
ATOM      6  N   UNL     1      -1.270   3.378  24.071  0.00  0.00    -0.284 N 
ATOM      8  N   UNL     1      -4.040   3.576  25.043  0.00  0.00    -0.283 N 
ATOM      9  C   UNL     1      -0.518   4.840  25.771  0.00  0.00    +0.104 C 
ATOM     10  C   UNL     1      -1.617   3.834  25.404  0.00  0.00    +0.183 C 
ATOM     11  C   UNL     1      -0.047   5.364  24.412  0.00  0.00    +0.043 C 
ATOM     13  C   UNL     1      -0.174   4.151  23.505  0.00  0.00    +0.111 C 
ATOM     19  C   UNL     1      -2.998   4.451  25.277  0.00  0.00    +0.240 C 
ATOM     20  C   UNL     1      -1.767   2.252  23.451  0.00  0.00    +0.249 C 
ATOM     21  C   UNL     1      -2.913   1.551  24.087  0.00  0.00    +0.059 A 
ATOM     22  C   UNL     1      -3.979   2.200  24.732  0.00  0.00    +0.046 A 
ATOM     23  C   UNL     1      -2.983   0.164  23.862  0.00  0.00    +0.023 A 
ATOM     24  C   UNL     1      -5.120   1.453  25.076  0.00  0.00    +0.024 A 
ATOM     25  C   UNL     1      -4.102  -0.569  24.253  0.00  0.00    -0.014 A 
ATOM     26  C   UNL     1      -5.176   0.078  24.850  0.00  0.00    +0.010 A 
ATOM     35  H   UNL     1      -4.970   3.956  25.196  0.00  0.00    +0.155 HD
ENDROOT
BRANCH  25  27
ATOM      1 CL   UNL     1      -6.280  -4.501  21.735  0.00  0.00    -0.084 Cl
ATOM     27  C   UNL     1      -4.153  -1.996  24.018  0.00  0.00    +0.025 A 
ATOM     28  C   UNL     1      -3.292  -2.864  24.692  0.00  0.00    +0.128 A 
ATOM     29  C   UNL     1      -5.077  -2.504  23.104  0.00  0.00    +0.032 A 
ATOM     30  C   UNL     1      -3.356  -4.237  24.452  0.00  0.00    +0.047 A 
ATOM     31  C   UNL     1      -5.141  -3.877  22.863  0.00  0.00    +0.042 A 
ATOM     32  C   UNL     1      -4.280  -4.743  23.537  0.00  0.00    +0.023 A 
BRANCH  28   5
ATOM      5  O   UNL     1      -2.379  -2.397  25.590  0.00  0.00    -0.495 OA
ATOM     33  C   UNL     1      -1.032  -2.275  25.138  0.00  0.00    +0.277 C 
ENDBRANCH  28   5
ENDBRANCH  25  27
BRANCH   9   7
ATOM      2  O   UNL     1      -0.562   2.232  27.044  0.00  0.00    -0.276 OA
ATOM      7  N   UNL     1       0.559   4.193  26.484  0.00  0.00    -0.310 N 
ATOM     18  C   UNL     1       0.441   2.939  27.060  0.00  0.00    +0.216 C 
ATOM     34  H   UNL     1       1.461   4.659  26.504  0.00  0.00    +0.149 HD
BRANCH  18  12
ATOM     12  C   UNL     1       1.713   2.494  27.713  0.00  0.00    +0.075 C 
ATOM     14  C   UNL     1       1.410   1.548  28.880  0.00  0.00    +0.013 C 
ATOM     15  C   UNL     1       2.458   3.688  28.313  0.00  0.00    +0.013 C 
ATOM     16  C   UNL     1       2.074   2.169  30.104  0.00  0.00    +0.001 C 
ATOM     17  C   UNL     1       2.108   3.655  29.794  0.00  0.00    +0.001 C 
ENDBRANCH  18  12
ENDBRANCH   9   7
TORSDOF 4
ENDMDL
MODEL 4
REMARK VINA RESULT:      19.9      3.182      4.237
REMARK  Name = 11941470
REMARK  5 active torsions:
REMARK  status: ('A' for Active; 'I' for Inactive)
REMARK    1  A    between atoms: O_5  and  C_28
REMARK    2  A    between atoms: O_5  and  C_33
REMARK    3  A    between atoms: N_7  and  C_9
REMARK    4  A    between atoms: C_12  and  C_18
REMARK    5  A    between atoms: C_25  and  C_27
REMARK                            x       y       z     vdW  Elec       q    Type
REMARK                         _______ _______ _______ _____ _____    ______ ____
ROOT
ATOM      3  O   UNL     1      -4.222   4.198  22.722  0.00  0.00    -0.273 OA
ATOM      4  O   UNL     1      -3.450   3.507  27.888  0.00  0.00    -0.270 OA
ATOM      6  N   UNL     1      -4.197   2.971  25.780  0.00  0.00    -0.284 N 
ATOM      8  N   UNL     1      -2.294   4.246  23.934  0.00  0.00    -0.283 N 
ATOM      9  C   UNL     1      -5.317   1.925  23.978  0.00  0.00    +0.104 C 
ATOM     10  C   UNL     1      -3.969   2.508  24.423  0.00  0.00    +0.183 C 
ATOM     11  C   UNL     1      -6.335   2.692  24.825  0.00  0.00    +0.043 C 
ATOM     13  C   UNL     1      -5.606   2.906  26.142  0.00  0.00    +0.111 C 
ATOM     19  C   UNL     1      -3.543   3.736  23.641  0.00  0.00    +0.240 C 
ATOM     20  C   UNL     1      -3.219   3.276  26.701  0.00  0.00    +0.249 C 
ATOM     21  C   UNL     1      -1.812   3.356  26.227  0.00  0.00    +0.059 A 
ATOM     22  C   UNL     1      -1.424   3.888  24.987  0.00  0.00    +0.046 A 
ATOM     23  C   UNL     1      -0.828   3.024  27.176  0.00  0.00    +0.023 A 
ATOM     24  C   UNL     1      -0.059   4.136  24.753  0.00  0.00    +0.024 A 
ATOM     25  C   UNL     1       0.524   3.232  26.908  0.00  0.00    -0.014 A 
ATOM     26  C   UNL     1       0.908   3.800  25.700  0.00  0.00    +0.010 A 
ATOM     35  H   UNL     1      -1.922   4.905  23.255  0.00  0.00    +0.155 HD
ENDROOT
BRANCH  25  27
ATOM      1 CL   UNL     1       5.469   2.222  27.942  0.00  0.00    -0.084 Cl
ATOM     27  C   UNL     1       1.522   2.879  27.894  0.00  0.00    +0.025 A 
ATOM     28  C   UNL     1       1.171   2.683  29.230  0.00  0.00    +0.128 A 
ATOM     29  C   UNL     1       2.853   2.737  27.497  0.00  0.00    +0.032 A 
ATOM     30  C   UNL     1       2.147   2.344  30.167  0.00  0.00    +0.047 A 
ATOM     31  C   UNL     1       3.830   2.397  28.433  0.00  0.00    +0.042 A 
ATOM     32  C   UNL     1       3.477   2.201  29.769  0.00  0.00    +0.023 A 
BRANCH  28   5
ATOM      5  O   UNL     1      -0.120   2.817  29.648  0.00  0.00    -0.495 OA
ATOM     33  C   UNL     1      -0.328   3.078  31.035  0.00  0.00    +0.277 C 
ENDBRANCH  28   5
ENDBRANCH  25  27
BRANCH   9   7
ATOM      2  O   UNL     1      -3.099   0.058  24.121  0.00  0.00    -0.276 OA
ATOM      7  N   UNL     1      -5.379   0.506  24.244  0.00  0.00    -0.310 N 
ATOM     18  C   UNL     1      -4.259  -0.306  24.292  0.00  0.00    +0.216 C 
ATOM     34  H   UNL     1      -6.285   0.105  24.468  0.00  0.00    +0.149 HD
BRANCH  18  12
ATOM     12  C   UNL     1      -4.603  -1.729  24.611  0.00  0.00    +0.075 C 
ATOM     14  C   UNL     1      -3.673  -2.270  25.702  0.00  0.00    +0.013 C 
ATOM     15  C   UNL     1      -4.392  -2.622  23.388  0.00  0.00    +0.013 C 
ATOM     16  C   UNL     1      -3.025  -3.520  25.116  0.00  0.00    +0.001 C 
ATOM     17  C   UNL     1      -3.037  -3.275  23.618  0.00  0.00    +0.001 C 
ENDBRANCH  18  12
ENDBRANCH   9   7
TORSDOF 4
ENDMDL
MODEL 5
REMARK VINA RESULT:      20.5      3.569      8.182
REMARK  Name = 11941470
REMARK  5 active torsions:
REMARK  status: ('A' for Active; 'I' for Inactive)
REMARK    1  A    between atoms: O_5  and  C_28
REMARK    2  A    between atoms: O_5  and  C_33
REMARK    3  A    between atoms: N_7  and  C_9
REMARK    4  A    between atoms: C_12  and  C_18
REMARK    5  A    between atoms: C_25  and  C_27
REMARK                            x       y       z     vdW  Elec       q    Type
REMARK                         _______ _______ _______ _____ _____    ______ ____
ROOT
ATOM      3  O   UNL     1      -1.474  -3.940  23.867  0.00  0.00    -0.273 OA
ATOM      4  O   UNL     1      -1.276   0.285  27.009  0.00  0.00    -0.270 OA
ATOM      6  N   UNL     1      -0.509  -1.209  25.437  0.00  0.00    -0.284 N 
ATOM      8  N   UNL     1      -2.916  -2.186  24.056  0.00  0.00    -0.283 N 
ATOM      9  C   UNL     1       0.888  -2.405  23.951  0.00  0.00    +0.104 C 
ATOM     10  C   UNL     1      -0.492  -1.749  24.091  0.00  0.00    +0.183 C 
ATOM     11  C   UNL     1       1.258  -2.769  25.390  0.00  0.00    +0.043 C 
ATOM     13  C   UNL     1       0.651  -1.637  26.205  0.00  0.00    +0.111 C 
ATOM     19  C   UNL     1      -1.648  -2.731  24.032  0.00  0.00    +0.240 C 
ATOM     20  C   UNL     1      -1.395  -0.268  25.915  0.00  0.00    +0.249 C 
ATOM     21  C   UNL     1      -2.570   0.079  25.074  0.00  0.00    +0.059 A 
ATOM     22  C   UNL     1      -3.293  -0.848  24.304  0.00  0.00    +0.046 A 
ATOM     23  C   UNL     1      -3.060   1.390  25.217  0.00  0.00    +0.023 A 
ATOM     24  C   UNL     1      -4.524  -0.455  23.749  0.00  0.00    +0.024 A 
ATOM     25  C   UNL     1      -4.259   1.775  24.619  0.00  0.00    -0.014 A 
ATOM     26  C   UNL     1      -4.998   0.848  23.895  0.00  0.00    +0.010 A 
ATOM     35  H   UNL     1      -3.665  -2.814  23.779  0.00  0.00    +0.155 HD
ENDROOT
BRANCH  25  27
ATOM      1 CL   UNL     1      -4.391   6.593  22.800  0.00  0.00    -0.084 Cl
ATOM     27  C   UNL     1      -4.744   3.129  24.772  0.00  0.00    +0.025 A 
ATOM     28  C   UNL     1      -5.567   3.479  25.844  0.00  0.00    +0.128 A 
ATOM     29  C   UNL     1      -4.381   4.094  23.831  0.00  0.00    +0.032 A 
ATOM     30  C   UNL     1      -6.025   4.790  25.975  0.00  0.00    +0.047 A 
ATOM     31  C   UNL     1      -4.839   5.406  23.961  0.00  0.00    +0.042 A 
ATOM     32  C   UNL     1      -5.661   5.754  25.033  0.00  0.00    +0.023 A 
BRANCH  28   5
ATOM      5  O   UNL     1      -5.940   2.559  26.778  0.00  0.00    -0.495 OA
ATOM     33  C   UNL     1      -6.950   1.626  26.401  0.00  0.00    +0.277 C 
ENDBRANCH  28   5
ENDBRANCH  25  27
BRANCH   9   7
ATOM      2  O   UNL     1       0.354   0.218  22.825  0.00  0.00    -0.276 OA
ATOM      7  N   UNL     1       1.843  -1.481  23.383  0.00  0.00    -0.310 N 
ATOM     18  C   UNL     1       1.490  -0.246  22.868  0.00  0.00    +0.216 C 
ATOM     34  H   UNL     1       2.827  -1.732  23.426  0.00  0.00    +0.149 HD
BRANCH  18  12
ATOM     12  C   UNL     1       2.676   0.520  22.367  0.00  0.00    +0.075 C 
ATOM     14  C   UNL     1       3.794  -0.441  21.949  0.00  0.00    +0.013 C 
ATOM     15  C   UNL     1       3.260   1.396  23.478  0.00  0.00    +0.013 C 
ATOM     16  C   UNL     1       5.021  -0.031  22.754  0.00  0.00    +0.001 C 
ATOM     17  C   UNL     1       4.447   0.604  24.008  0.00  0.00    +0.001 C 
ENDBRANCH  18  12
ENDBRANCH   9   7
TORSDOF 4
ENDMDL
