MODEL 1
REMARK VINA RESULT:      -2.0      0.000      0.000
REMARK  Name = 7156248
REMARK  8 active torsions:
REMARK  status: ('A' for Active; 'I' for Inactive)
REMARK    1  A    between atoms: S_1  and  C_24
REMARK    2  A    between atoms: S_1  and  C_26
REMARK    3  A    between atoms: O_4  and  C_22
REMARK    4  A    between atoms: O_4  and  C_25
REMARK    5  A    between atoms: N_8  and  C_19
REMARK    6  A    between atoms: C_18  and  C_21
REMARK    7  A    between atoms: C_21  and  C_22
REMARK    8  A    between atoms: C_23  and  C_24
REMARK                            x       y       z     vdW  Elec       q    Type
REMARK                         _______ _______ _______ _____ _____    ______ ____
ROOT
ATOM      2  O   UNL     1       0.201   1.952  25.937  0.00  0.00    -0.266 OA
ATOM      3  O   UNL     1      -4.681  -0.140  26.617  0.00  0.00    -0.276 OA
ATOM      6  N   UNL     1      -4.739   1.610  25.090  0.00  0.00    -0.300 N 
ATOM      7  N   UNL     1      -1.710   2.573  24.744  0.00  0.00    -0.310 N 
ATOM      9  C   UNL     1      -3.700   3.756  25.836  0.00  0.00    +0.027 C 
ATOM     10  C   UNL     1      -3.772   3.204  23.441  0.00  0.00    +0.054 C 
ATOM     11  C   UNL     1      -3.935   4.340  24.448  0.00  0.00    +0.018 C 
ATOM     12  C   UNL     1      -4.717   2.640  26.131  0.00  0.00    +0.113 C 
ATOM     13  C   UNL     1      -2.253   3.257  25.925  0.00  0.00    +0.130 C 
ATOM     14  C   UNL     1      -4.830   2.116  23.712  0.00  0.00    +0.117 C 
ATOM     15  C   UNL     1      -2.382   2.600  23.519  0.00  0.00    +0.027 A 
ATOM     16  C   UNL     1      -1.813   2.069  22.424  0.00  0.00    +0.024 A 
ATOM     17  C   UNL     1      -0.437   1.984  24.884  0.00  0.00    +0.273 A 
ATOM     18  C   UNL     1      -4.760   0.264  25.453  0.00  0.00    +0.218 C 
ATOM     19  C   UNL     1       0.152   1.381  23.645  0.00  0.00    +0.099 A 
ATOM     20  C   UNL     1      -0.521   1.448  22.492  0.00  0.00    +0.030 A 
ENDROOT
BRANCH  19   8
ATOM      5  O   UNL     1       1.344  -0.371  21.723  0.00  0.00    -0.275 OA
ATOM      8  N   UNL     1       1.377   0.790  23.742  0.00  0.00    -0.281 N 
ATOM     23  C   UNL     1       1.904  -0.047  22.769  0.00  0.00    +0.227 C 
ATOM     27  H   UNL     1       1.813   0.792  24.661  0.00  0.00    +0.155 HD
BRANCH  23  24
ATOM     24  C   UNL     1       3.277  -0.567  23.126  0.00  0.00    +0.164 C 
BRANCH  24   1
ATOM      1  S   UNL     1       4.484   0.761  22.897  0.00  0.00    -0.155 S 
ATOM     26  C   UNL     1       5.737   0.191  24.070  0.00  0.00    +0.085 C 
ENDBRANCH  24   1
ENDBRANCH  23  24
ENDBRANCH  19   8
BRANCH  18  21
ATOM     21  C   UNL     1      -4.878  -0.737  24.331  0.00  0.00    +0.124 C 
BRANCH  21  22
ATOM     22  C   UNL     1      -3.708  -1.695  24.384  0.00  0.00    +0.168 C 
BRANCH  22   4
ATOM      4  O   UNL     1      -2.490  -0.962  24.334  0.00  0.00    -0.382 OA
ATOM     25  C   UNL     1      -1.406  -1.715  24.860  0.00  0.00    +0.194 C 
ENDBRANCH  22   4
ENDBRANCH  21  22
ENDBRANCH  18  21
TORSDOF 6
ENDMDL
MODEL 2
REMARK VINA RESULT:       0.7      1.777      3.599
REMARK  Name = 7156248
REMARK  8 active torsions:
REMARK  status: ('A' for Active; 'I' for Inactive)
REMARK    1  A    between atoms: S_1  and  C_24
REMARK    2  A    between atoms: S_1  and  C_26
REMARK    3  A    between atoms: O_4  and  C_22
REMARK    4  A    between atoms: O_4  and  C_25
REMARK    5  A    between atoms: N_8  and  C_19
REMARK    6  A    between atoms: C_18  and  C_21
REMARK    7  A    between atoms: C_21  and  C_22
REMARK    8  A    between atoms: C_23  and  C_24
REMARK                            x       y       z     vdW  Elec       q    Type
REMARK                         _______ _______ _______ _____ _____    ______ ____
ROOT
ATOM      2  O   UNL     1      -0.734   0.940  22.233  0.00  0.00    -0.266 OA
ATOM      3  O   UNL     1      -4.965   3.516  24.266  0.00  0.00    -0.276 OA
ATOM      6  N   UNL     1      -4.768   1.395  25.192  0.00  0.00    -0.300 N 
ATOM      7  N   UNL     1      -2.105   0.138  23.946  0.00  0.00    -0.310 N 
ATOM      9  C   UNL     1      -4.557  -0.498  23.575  0.00  0.00    +0.027 C 
ATOM     10  C   UNL     1      -3.570  -0.696  25.819  0.00  0.00    +0.054 C 
ATOM     11  C   UNL     1      -4.340  -1.456  24.740  0.00  0.00    +0.018 C 
ATOM     12  C   UNL     1      -5.362   0.732  24.030  0.00  0.00    +0.113 C 
ATOM     13  C   UNL     1      -3.193  -0.110  22.991  0.00  0.00    +0.130 C 
ATOM     14  C   UNL     1      -4.409   0.502  26.306  0.00  0.00    +0.117 C 
ATOM     15  C   UNL     1      -2.233  -0.208  25.295  0.00  0.00    +0.027 A 
ATOM     16  C   UNL     1      -1.185  -0.081  26.127  0.00  0.00    +0.024 A 
ATOM     17  C   UNL     1      -0.900   0.639  23.415  0.00  0.00    +0.273 A 
ATOM     18  C   UNL     1      -4.660   2.784  25.212  0.00  0.00    +0.218 C 
ATOM     19  C   UNL     1       0.236   0.789  24.381  0.00  0.00    +0.099 A 
ATOM     20  C   UNL     1       0.072   0.428  25.658  0.00  0.00    +0.030 A 
ENDROOT
BRANCH  19   8
ATOM      5  O   UNL     1       2.152  -0.623  22.792  0.00  0.00    -0.275 OA
ATOM      8  N   UNL     1       1.416   1.284  23.909  0.00  0.00    -0.281 N 
ATOM     23  C   UNL     1       2.302   0.549  23.136  0.00  0.00    +0.227 C 
ATOM     27  H   UNL     1       1.750   2.147  24.333  0.00  0.00    +0.155 HD
BRANCH  23  24
ATOM     24  C   UNL     1       3.532   1.337  22.748  0.00  0.00    +0.164 C 
BRANCH  24   1
ATOM      1  S   UNL     1       4.942   0.207  22.643  0.00  0.00    -0.155 S 
ATOM     26  C   UNL     1       5.370   0.149  24.399  0.00  0.00    +0.085 C 
ENDBRANCH  24   1
ENDBRANCH  23  24
ENDBRANCH  19   8
BRANCH  18  21
ATOM     21  C   UNL     1      -4.125   3.403  26.479  0.00  0.00    +0.124 C 
BRANCH  21  22
ATOM     22  C   UNL     1      -2.918   4.256  26.155  0.00  0.00    +0.168 C 
BRANCH  22   4
ATOM      4  O   UNL     1      -1.852   3.424  25.716  0.00  0.00    -0.382 OA
ATOM     25  C   UNL     1      -0.891   4.159  24.971  0.00  0.00    +0.194 C 
ENDBRANCH  22   4
ENDBRANCH  21  22
ENDBRANCH  18  21
TORSDOF 6
ENDMDL
MODEL 3
REMARK VINA RESULT:       1.1      2.624      3.671
REMARK  Name = 7156248
REMARK  8 active torsions:
REMARK  status: ('A' for Active; 'I' for Inactive)
REMARK    1  A    between atoms: S_1  and  C_24
REMARK    2  A    between atoms: S_1  and  C_26
REMARK    3  A    between atoms: O_4  and  C_22
REMARK    4  A    between atoms: O_4  and  C_25
REMARK    5  A    between atoms: N_8  and  C_19
REMARK    6  A    between atoms: C_18  and  C_21
REMARK    7  A    between atoms: C_21  and  C_22
REMARK    8  A    between atoms: C_23  and  C_24
REMARK                            x       y       z     vdW  Elec       q    Type
REMARK                         _______ _______ _______ _____ _____    ______ ____
ROOT
ATOM      2  O   UNL     1      -1.292   4.074  26.579  0.00  0.00    -0.266 OA
ATOM      3  O   UNL     1      -5.115   0.330  26.366  0.00  0.00    -0.276 OA
ATOM      6  N   UNL     1      -4.345   0.844  24.235  0.00  0.00    -0.300 N 
ATOM      7  N   UNL     1      -1.984   2.962  24.644  0.00  0.00    -0.310 N 
ATOM      9  C   UNL     1      -4.315   3.267  23.630  0.00  0.00    +0.027 C 
ATOM     10  C   UNL     1      -2.716   1.727  22.573  0.00  0.00    +0.054 C 
ATOM     11  C   UNL     1      -3.634   2.919  22.311  0.00  0.00    +0.018 C 
ATOM     12  C   UNL     1      -5.135   2.072  24.146  0.00  0.00    +0.113 C 
ATOM     13  C   UNL     1      -3.248   3.712  24.637  0.00  0.00    +0.130 C 
ATOM     14  C   UNL     1      -3.554   0.520  23.038  0.00  0.00    +0.117 C 
ATOM     15  C   UNL     1      -1.671   2.062  23.621  0.00  0.00    +0.027 A 
ATOM     16  C   UNL     1      -0.463   1.475  23.584  0.00  0.00    +0.024 A 
ATOM     17  C   UNL     1      -1.069   3.275  25.669  0.00  0.00    +0.273 A 
ATOM     18  C   UNL     1      -4.447   0.040  25.370  0.00  0.00    +0.218 C 
ATOM     19  C   UNL     1       0.257   2.581  25.605  0.00  0.00    +0.099 A 
ATOM     20  C   UNL     1       0.518   1.741  24.598  0.00  0.00    +0.030 A 
ENDROOT
BRANCH  19   8
ATOM      5  O   UNL     1       0.145   1.664  28.313  0.00  0.00    -0.275 OA
ATOM      8  N   UNL     1       1.166   2.846  26.587  0.00  0.00    -0.281 N 
ATOM     23  C   UNL     1       1.059   2.365  27.883  0.00  0.00    +0.227 C 
ATOM     27  H   UNL     1       1.820   3.605  26.408  0.00  0.00    +0.155 HD
BRANCH  23  24
ATOM     24  C   UNL     1       2.201   2.810  28.768  0.00  0.00    +0.164 C 
BRANCH  24   1
ATOM      1  S   UNL     1       2.039   2.006  30.381  0.00  0.00    -0.155 S 
ATOM     26  C   UNL     1       0.568   2.879  30.969  0.00  0.00    +0.085 C 
ENDBRANCH  24   1
ENDBRANCH  23  24
ENDBRANCH  19   8
BRANCH  18  21
ATOM     21  C   UNL     1      -3.676  -1.256  25.352  0.00  0.00    +0.124 C 
BRANCH  21  22
ATOM     22  C   UNL     1      -2.310  -1.040  25.966  0.00  0.00    +0.168 C 
BRANCH  22   4
ATOM      4  O   UNL     1      -1.312  -1.580  25.108  0.00  0.00    -0.382 OA
ATOM     25  C   UNL     1      -1.836  -2.611  24.283  0.00  0.00    +0.194 C 
ENDBRANCH  22   4
ENDBRANCH  21  22
ENDBRANCH  18  21
TORSDOF 6
ENDMDL
MODEL 4
REMARK VINA RESULT:       1.3      2.023      3.607
REMARK  Name = 7156248
REMARK  8 active torsions:
REMARK  status: ('A' for Active; 'I' for Inactive)
REMARK    1  A    between atoms: S_1  and  C_24
REMARK    2  A    between atoms: S_1  and  C_26
REMARK    3  A    between atoms: O_4  and  C_22
REMARK    4  A    between atoms: O_4  and  C_25
REMARK    5  A    between atoms: N_8  and  C_19
REMARK    6  A    between atoms: C_18  and  C_21
REMARK    7  A    between atoms: C_21  and  C_22
REMARK    8  A    between atoms: C_23  and  C_24
REMARK                            x       y       z     vdW  Elec       q    Type
REMARK                         _______ _______ _______ _____ _____    ______ ____
ROOT
ATOM      2  O   UNL     1      -0.495   1.124  21.819  0.00  0.00    -0.266 OA
ATOM      3  O   UNL     1      -1.700   5.208  25.066  0.00  0.00    -0.276 OA
ATOM      6  N   UNL     1      -3.186   3.448  25.368  0.00  0.00    -0.300 N 
ATOM      7  N   UNL     1      -2.166   1.100  23.451  0.00  0.00    -0.310 N 
ATOM      9  C   UNL     1      -4.268   2.553  23.302  0.00  0.00    +0.027 C 
ATOM     10  C   UNL     1      -3.939   1.078  25.242  0.00  0.00    +0.054 C 
ATOM     11  C   UNL     1      -4.919   1.452  24.132  0.00  0.00    +0.018 C 
ATOM     12  C   UNL     1      -3.968   3.783  24.177  0.00  0.00    +0.113 C 
ATOM     13  C   UNL     1      -3.004   1.994  22.640  0.00  0.00    +0.130 C 
ATOM     14  C   UNL     1      -3.687   2.302  26.144  0.00  0.00    +0.117 C 
ATOM     15  C   UNL     1      -2.625   0.584  24.667  0.00  0.00    +0.027 A 
ATOM     16  C   UNL     1      -1.892  -0.322  25.336  0.00  0.00    +0.024 A 
ATOM     17  C   UNL     1      -0.932   0.711  22.894  0.00  0.00    +0.273 A 
ATOM     18  C   UNL     1      -2.107   4.251  25.732  0.00  0.00    +0.218 C 
ATOM     19  C   UNL     1      -0.134  -0.282  23.682  0.00  0.00    +0.099 A 
ATOM     20  C   UNL     1      -0.622  -0.761  24.831  0.00  0.00    +0.030 A 
ENDROOT
BRANCH  19   8
ATOM      5  O   UNL     1       2.232   1.319  23.514  0.00  0.00    -0.275 OA
ATOM      8  N   UNL     1       1.073  -0.674  23.183  0.00  0.00    -0.281 N 
ATOM     23  C   UNL     1       2.188   0.149  23.135  0.00  0.00    +0.227 C 
ATOM     27  H   UNL     1       1.081  -1.526  22.627  0.00  0.00    +0.155 HD
BRANCH  23  24
ATOM     24  C   UNL     1       3.394  -0.535  22.534  0.00  0.00    +0.164 C 
BRANCH  24   1
ATOM      1  S   UNL     1       4.882   0.384  23.001  0.00  0.00    -0.155 S 
ATOM     26  C   UNL     1       5.478  -0.717  24.307  0.00  0.00    +0.085 C 
ENDBRANCH  24   1
ENDBRANCH  23  24
ENDBRANCH  19   8
BRANCH  18  21
ATOM     21  C   UNL     1      -1.406   3.900  27.021  0.00  0.00    +0.124 C 
BRANCH  21  22
ATOM     22  C   UNL     1      -0.578   2.650  26.822  0.00  0.00    +0.168 C 
BRANCH  22   4
ATOM      4  O   UNL     1       0.795   2.947  27.046  0.00  0.00    -0.382 OA
ATOM     25  C   UNL     1       1.207   2.556  28.348  0.00  0.00    +0.194 C 
ENDBRANCH  22   4
ENDBRANCH  21  22
ENDBRANCH  18  21
TORSDOF 6
ENDMDL
