MODEL 1
REMARK VINA RESULT:      -5.0      0.000      0.000
REMARK  Name = 40781547
REMARK  11 active torsions:
REMARK  status: ('A' for Active; 'I' for Inactive)
REMARK    1  A    between atoms: S_1  and  N_8
REMARK    2  A    between atoms: S_1  and  C_18
REMARK    3  A    between atoms: O_3  and  C_10
REMARK    4  A    between atoms: O_4  and  C_11
REMARK    5  A    between atoms: N_8  and  C_14
REMARK    6  A    between atoms: N_9  and  C_17
REMARK    7  A    between atoms: N_9  and  C_19
REMARK    8  A    between atoms: C_12  and  C_14
REMARK    9  A    between atoms: C_13  and  C_15
REMARK   10  A    between atoms: C_15  and  C_16
REMARK   11  A    between atoms: C_17  and  C_20
REMARK                            x       y       z     vdW  Elec       q    Type
REMARK                         _______ _______ _______ _____ _____    ______ ____
ROOT
ATOM      2  O   UNL     1      -1.837   3.279  26.589  0.00  0.00    -0.366 OA
ATOM     10  C   UNL     1      -2.391   4.245  24.510  0.00  0.00    +0.175 C 
ATOM     11  C   UNL     1      -0.882   4.149  24.592  0.00  0.00    +0.175 C 
ATOM     12  C   UNL     1      -2.781   4.177  25.978  0.00  0.00    +0.165 C 
ATOM     13  C   UNL     1      -0.688   3.144  25.721  0.00  0.00    +0.158 C 
ENDROOT
BRANCH  10   3
ATOM      3  O   UNL     1      -2.845   5.433  23.897  0.00  0.00    -0.387 OA
ATOM     31  H   UNL     1      -2.441   5.477  23.013  0.00  0.00    +0.210 HD
ENDBRANCH  10   3
BRANCH  11   4
ATOM      4  O   UNL     1      -0.329   5.397  25.010  0.00  0.00    -0.387 OA
ATOM     32  H   UNL     1       0.247   5.218  25.772  0.00  0.00    +0.210 HD
ENDBRANCH  11   4
BRANCH  12  14
ATOM     14  C   UNL     1      -4.193   3.666  26.203  0.00  0.00    +0.140 C 
BRANCH  14   8
ATOM      8  N   UNL     1      -4.217   2.200  26.037  0.00  0.00    -0.187 NA
ATOM     33  H   UNL     1      -3.450   1.686  26.485  0.00  0.00    +0.148 HD
BRANCH   8   1
ATOM      1  S   UNL     1      -4.836   1.513  24.608  0.00  0.00    +0.058 S 
ATOM      6  O   UNL     1      -4.183   2.119  23.463  0.00  0.00    -0.153 OA
ATOM      7  O   UNL     1      -6.282   1.477  24.689  0.00  0.00    -0.153 OA
BRANCH   1  18
ATOM     18  C   UNL     1      -4.270  -0.156  24.736  0.00  0.00    +0.105 A 
ATOM     21  C   UNL     1      -4.474  -1.045  23.681  0.00  0.00    +0.028 A 
ATOM     22  C   UNL     1      -3.620  -0.586  25.894  0.00  0.00    +0.028 A 
ATOM     25  C   UNL     1      -4.028  -2.363  23.781  0.00  0.00    +0.002 A 
ATOM     26  C   UNL     1      -3.174  -1.904  25.994  0.00  0.00    +0.002 A 
ATOM     27  C   UNL     1      -3.378  -2.792  24.939  0.00  0.00    +0.000 A 
ENDBRANCH   1  18
ENDBRANCH   8   1
ENDBRANCH  14   8
ENDBRANCH  12  14
BRANCH  13  15
ATOM     15  C   UNL     1      -0.639   1.703  25.235  0.00  0.00    +0.130 C 
BRANCH  15  16
ATOM      5  O   UNL     1       0.964   2.460  23.623  0.00  0.00    -0.276 OA
ATOM      9  N   UNL     1       0.487   0.190  23.621  0.00  0.00    -0.300 N 
ATOM     16  C   UNL     1       0.344   1.500  24.090  0.00  0.00    +0.218 C 
ATOM     19  C   UNL     1      -0.257  -0.929  24.187  0.00  0.00    +0.132 C 
BRANCH   9  17
ATOM     17  C   UNL     1       1.392  -0.158  22.528  0.00  0.00    +0.142 C 
BRANCH  17  20
ATOM     20  C   UNL     1       2.825  -0.189  22.973  0.00  0.00    -0.030 A 
ATOM     23  C   UNL     1       3.635   0.933  22.799  0.00  0.00    +0.005 A 
ATOM     24  C   UNL     1       3.347  -1.342  23.562  0.00  0.00    +0.005 A 
ATOM     28  C   UNL     1       4.967   0.902  23.213  0.00  0.00    +0.000 A 
ATOM     29  C   UNL     1       4.677  -1.372  23.976  0.00  0.00    +0.000 A 
ATOM     30  C   UNL     1       5.488  -0.251  23.802  0.00  0.00    +0.000 A 
ENDBRANCH  17  20
ENDBRANCH   9  17
ENDBRANCH  15  16
ENDBRANCH  13  15
TORSDOF 10
ENDMDL
MODEL 2
REMARK VINA RESULT:      -4.8      2.323      6.972
REMARK  Name = 40781547
REMARK  11 active torsions:
REMARK  status: ('A' for Active; 'I' for Inactive)
REMARK    1  A    between atoms: S_1  and  N_8
REMARK    2  A    between atoms: S_1  and  C_18
REMARK    3  A    between atoms: O_3  and  C_10
REMARK    4  A    between atoms: O_4  and  C_11
REMARK    5  A    between atoms: N_8  and  C_14
REMARK    6  A    between atoms: N_9  and  C_17
REMARK    7  A    between atoms: N_9  and  C_19
REMARK    8  A    between atoms: C_12  and  C_14
REMARK    9  A    between atoms: C_13  and  C_15
REMARK   10  A    between atoms: C_15  and  C_16
REMARK   11  A    between atoms: C_17  and  C_20
REMARK                            x       y       z     vdW  Elec       q    Type
REMARK                         _______ _______ _______ _____ _____    ______ ____
ROOT
ATOM      2  O   UNL     1      -2.821  -0.294  25.704  0.00  0.00    -0.366 OA
ATOM     10  C   UNL     1      -2.067  -1.889  24.139  0.00  0.00    +0.175 C 
ATOM     11  C   UNL     1      -3.499  -2.227  24.496  0.00  0.00    +0.175 C 
ATOM     12  C   UNL     1      -1.649  -1.039  25.329  0.00  0.00    +0.165 C 
ATOM     13  C   UNL     1      -3.986  -0.927  25.126  0.00  0.00    +0.158 C 
ENDROOT
BRANCH  10   3
ATOM      3  O   UNL     1      -1.244  -3.025  23.986  0.00  0.00    -0.387 OA
ATOM     31  H   UNL     1      -0.429  -2.737  23.540  0.00  0.00    +0.210 HD
ENDBRANCH  10   3
BRANCH  11   4
ATOM      4  O   UNL     1      -3.532  -3.244  25.497  0.00  0.00    -0.387 OA
ATOM     32  H   UNL     1      -2.811  -3.866  25.303  0.00  0.00    +0.210 HD
ENDBRANCH  11   4
BRANCH  12  14
ATOM     14  C   UNL     1      -0.513  -0.082  25.016  0.00  0.00    +0.140 C 
BRANCH  14   8
ATOM      8  N   UNL     1       0.446  -0.739  24.107  0.00  0.00    -0.187 NA
ATOM     33  H   UNL     1       1.018  -1.483  24.522  0.00  0.00    +0.148 HD
BRANCH   8   1
ATOM      1  S   UNL     1       1.180   0.149  22.854  0.00  0.00    +0.058 S 
ATOM      6  O   UNL     1       0.886   1.559  23.030  0.00  0.00    -0.153 OA
ATOM      7  O   UNL     1       0.904  -0.502  21.589  0.00  0.00    -0.153 OA
BRANCH   1  18
ATOM     18  C   UNL     1       2.897  -0.095  23.197  0.00  0.00    +0.105 A 
ATOM     21  C   UNL     1       3.802   0.950  23.008  0.00  0.00    +0.028 A 
ATOM     22  C   UNL     1       3.348  -1.334  23.654  0.00  0.00    +0.028 A 
ATOM     25  C   UNL     1       5.157   0.757  23.278  0.00  0.00    +0.002 A 
ATOM     26  C   UNL     1       4.703  -1.526  23.924  0.00  0.00    +0.002 A 
ATOM     27  C   UNL     1       5.607  -0.481  23.736  0.00  0.00    +0.000 A 
ENDBRANCH   1  18
ENDBRANCH   8   1
ENDBRANCH  14   8
ENDBRANCH  12  14
BRANCH  13  15
ATOM     15  C   UNL     1      -4.586   0.037  24.114  0.00  0.00    +0.130 C 
BRANCH  15  16
ATOM      5  O   UNL     1      -3.038   1.781  23.565  0.00  0.00    -0.276 OA
ATOM      9  N   UNL     1      -4.671   2.301  25.128  0.00  0.00    -0.300 N 
ATOM     16  C   UNL     1      -4.020   1.446  24.234  0.00  0.00    +0.218 C 
ATOM     19  C   UNL     1      -5.829   1.882  25.908  0.00  0.00    +0.132 C 
BRANCH   9  17
ATOM     17  C   UNL     1      -4.241   3.681  25.348  0.00  0.00    +0.142 C 
BRANCH  17  20
ATOM     20  C   UNL     1      -2.746   3.804  25.387  0.00  0.00    -0.030 A 
ATOM     23  C   UNL     1      -1.991   2.911  26.149  0.00  0.00    +0.005 A 
ATOM     24  C   UNL     1      -2.110   4.811  24.661  0.00  0.00    +0.005 A 
ATOM     28  C   UNL     1      -0.601   3.027  26.185  0.00  0.00    +0.000 A 
ATOM     29  C   UNL     1      -0.722   4.927  24.696  0.00  0.00    +0.000 A 
ATOM     30  C   UNL     1       0.034   4.035  25.458  0.00  0.00    +0.000 A 
ENDBRANCH  17  20
ENDBRANCH   9  17
ENDBRANCH  15  16
ENDBRANCH  13  15
TORSDOF 10
ENDMDL
MODEL 3
REMARK VINA RESULT:      -4.6      2.003      6.719
REMARK  Name = 40781547
REMARK  11 active torsions:
REMARK  status: ('A' for Active; 'I' for Inactive)
REMARK    1  A    between atoms: S_1  and  N_8
REMARK    2  A    between atoms: S_1  and  C_18
REMARK    3  A    between atoms: O_3  and  C_10
REMARK    4  A    between atoms: O_4  and  C_11
REMARK    5  A    between atoms: N_8  and  C_14
REMARK    6  A    between atoms: N_9  and  C_17
REMARK    7  A    between atoms: N_9  and  C_19
REMARK    8  A    between atoms: C_12  and  C_14
REMARK    9  A    between atoms: C_13  and  C_15
REMARK   10  A    between atoms: C_15  and  C_16
REMARK   11  A    between atoms: C_17  and  C_20
REMARK                            x       y       z     vdW  Elec       q    Type
REMARK                         _______ _______ _______ _____ _____    ______ ____
ROOT
ATOM      2  O   UNL     1      -0.590   3.795  24.416  0.00  0.00    -0.366 OA
ATOM     10  C   UNL     1      -1.116   1.740  25.448  0.00  0.00    +0.175 C 
ATOM     11  C   UNL     1      -1.353   2.844  26.458  0.00  0.00    +0.175 C 
ATOM     12  C   UNL     1      -0.169   2.420  24.471  0.00  0.00    +0.165 C 
ATOM     13  C   UNL     1      -1.415   4.081  25.569  0.00  0.00    +0.158 C 
ENDROOT
BRANCH  10   3
ATOM      3  O   UNL     1      -0.548   0.578  26.012  0.00  0.00    -0.387 OA
ATOM     31  H   UNL     1      -0.329   0.780  26.938  0.00  0.00    +0.210 HD
ENDBRANCH  10   3
BRANCH  11   4
ATOM      4  O   UNL     1      -0.225   2.976  27.322  0.00  0.00    -0.387 OA
ATOM     32  H   UNL     1      -0.412   3.708  27.934  0.00  0.00    +0.210 HD
ENDBRANCH  11   4
BRANCH  12  14
ATOM     14  C   UNL     1      -0.205   1.817  23.079  0.00  0.00    +0.140 C 
BRANCH  14   8
ATOM      8  N   UNL     1       1.153   1.388  22.694  0.00  0.00    -0.187 NA
ATOM     33  H   UNL     1       1.653   2.012  22.050  0.00  0.00    +0.148 HD
BRANCH   8   1
ATOM      1  S   UNL     1       1.518  -0.269  22.555  0.00  0.00    +0.058 S 
ATOM      6  O   UNL     1       1.480  -0.652  21.156  0.00  0.00    -0.153 OA
ATOM      7  O   UNL     1       0.746  -1.006  23.535  0.00  0.00    -0.153 OA
BRANCH   1  18
ATOM     18  C   UNL     1       3.203  -0.313  23.086  0.00  0.00    +0.105 A 
ATOM     21  C   UNL     1       4.013   0.813  22.933  0.00  0.00    +0.028 A 
ATOM     22  C   UNL     1       3.724  -1.474  23.658  0.00  0.00    +0.028 A 
ATOM     25  C   UNL     1       5.343   0.778  23.352  0.00  0.00    +0.002 A 
ATOM     26  C   UNL     1       5.054  -1.509  24.077  0.00  0.00    +0.002 A 
ATOM     27  C   UNL     1       5.863  -0.383  23.924  0.00  0.00    +0.000 A 
ENDBRANCH   1  18
ENDBRANCH   8   1
ENDBRANCH  14   8
ENDBRANCH  12  14
BRANCH  13  15
ATOM     15  C   UNL     1      -2.820   4.389  25.072  0.00  0.00    +0.130 C 
BRANCH  15  16
ATOM      5  O   UNL     1      -4.285   3.309  26.631  0.00  0.00    -0.276 OA
ATOM      9  N   UNL     1      -4.207   2.413  24.492  0.00  0.00    -0.300 N 
ATOM     16  C   UNL     1      -3.835   3.330  25.481  0.00  0.00    +0.218 C 
ATOM     19  C   UNL     1      -3.661   2.457  23.141  0.00  0.00    +0.132 C 
BRANCH   9  17
ATOM     17  C   UNL     1      -5.170   1.342  24.738  0.00  0.00    +0.142 C 
BRANCH  17  20
ATOM     20  C   UNL     1      -4.506  -0.001  24.826  0.00  0.00    -0.030 A 
ATOM     23  C   UNL     1      -4.570  -0.885  23.749  0.00  0.00    +0.005 A 
ATOM     24  C   UNL     1      -3.824  -0.366  25.987  0.00  0.00    +0.005 A 
ATOM     28  C   UNL     1      -3.954  -2.133  23.833  0.00  0.00    +0.000 A 
ATOM     29  C   UNL     1      -3.207  -1.613  26.071  0.00  0.00    +0.000 A 
ATOM     30  C   UNL     1      -3.272  -2.497  24.994  0.00  0.00    +0.000 A 
ENDBRANCH  17  20
ENDBRANCH   9  17
ENDBRANCH  15  16
ENDBRANCH  13  15
TORSDOF 10
ENDMDL
MODEL 4
REMARK VINA RESULT:      -4.3      1.889      6.434
REMARK  Name = 40781547
REMARK  11 active torsions:
REMARK  status: ('A' for Active; 'I' for Inactive)
REMARK    1  A    between atoms: S_1  and  N_8
REMARK    2  A    between atoms: S_1  and  C_18
REMARK    3  A    between atoms: O_3  and  C_10
REMARK    4  A    between atoms: O_4  and  C_11
REMARK    5  A    between atoms: N_8  and  C_14
REMARK    6  A    between atoms: N_9  and  C_17
REMARK    7  A    between atoms: N_9  and  C_19
REMARK    8  A    between atoms: C_12  and  C_14
REMARK    9  A    between atoms: C_13  and  C_15
REMARK   10  A    between atoms: C_15  and  C_16
REMARK   11  A    between atoms: C_17  and  C_20
REMARK                            x       y       z     vdW  Elec       q    Type
REMARK                         _______ _______ _______ _____ _____    ______ ____
ROOT
ATOM      2  O   UNL     1      -2.115   3.370  23.495  0.00  0.00    -0.366 OA
ATOM     10  C   UNL     1      -1.062   3.293  25.604  0.00  0.00    +0.175 C 
ATOM     11  C   UNL     1      -1.816   4.603  25.507  0.00  0.00    +0.175 C 
ATOM     12  C   UNL     1      -0.908   2.922  24.137  0.00  0.00    +0.165 C 
ATOM     13  C   UNL     1      -2.772   4.335  24.349  0.00  0.00    +0.158 C 
ENDROOT
BRANCH  10   3
ATOM      3  O   UNL     1       0.187   3.413  26.252  0.00  0.00    -0.387 OA
ATOM     31  H   UNL     1       0.395   2.548  26.646  0.00  0.00    +0.210 HD
ENDBRANCH  10   3
BRANCH  11   4
ATOM      4  O   UNL     1      -0.934   5.656  25.119  0.00  0.00    -0.387 OA
ATOM     32  H   UNL     1      -0.083   5.499  25.562  0.00  0.00    +0.210 HD
ENDBRANCH  11   4
BRANCH  12  14
ATOM     14  C   UNL     1      -0.731   1.432  23.909  0.00  0.00    +0.140 C 
BRANCH  14   8
ATOM      8  N   UNL     1       0.702   1.129  23.727  0.00  0.00    -0.187 NA
ATOM     33  H   UNL     1       1.307   1.935  23.532  0.00  0.00    +0.148 HD
BRANCH   8   1
ATOM      1  S   UNL     1       1.181  -0.346  23.027  0.00  0.00    +0.058 S 
ATOM      6  O   UNL     1       0.912  -0.310  21.602  0.00  0.00    -0.153 OA
ATOM      7  O   UNL     1       0.679  -1.438  23.838  0.00  0.00    -0.153 OA
BRANCH   1  18
ATOM     18  C   UNL     1       2.933  -0.300  23.251  0.00  0.00    +0.105 A 
ATOM     21  C   UNL     1       3.602  -1.414  23.759  0.00  0.00    +0.028 A 
ATOM     22  C   UNL     1       3.649   0.852  22.922  0.00  0.00    +0.028 A 
ATOM     25  C   UNL     1       4.985  -1.378  23.936  0.00  0.00    +0.002 A 
ATOM     26  C   UNL     1       5.032   0.888  23.099  0.00  0.00    +0.002 A 
ATOM     27  C   UNL     1       5.700  -0.226  23.606  0.00  0.00    +0.000 A 
ENDBRANCH   1  18
ENDBRANCH   8   1
ENDBRANCH  14   8
ENDBRANCH  12  14
BRANCH  13  15
ATOM     15  C   UNL     1      -4.097   3.735  24.796  0.00  0.00    +0.130 C 
BRANCH  15  16
ATOM      5  O   UNL     1      -3.823   2.034  23.131  0.00  0.00    -0.276 OA
ATOM      9  N   UNL     1      -5.203   1.517  24.922  0.00  0.00    -0.300 N 
ATOM     16  C   UNL     1      -4.352   2.358  24.198  0.00  0.00    +0.218 C 
ATOM     19  C   UNL     1      -5.818   1.922  26.180  0.00  0.00    +0.132 C 
BRANCH   9  17
ATOM     17  C   UNL     1      -5.541   0.168  24.473  0.00  0.00    +0.142 C 
BRANCH  17  20
ATOM     20  C   UNL     1      -4.391  -0.784  24.636  0.00  0.00    -0.030 A 
ATOM     23  C   UNL     1      -3.391  -0.516  25.570  0.00  0.00    +0.005 A 
ATOM     24  C   UNL     1      -4.324  -1.935  23.852  0.00  0.00    +0.005 A 
ATOM     28  C   UNL     1      -2.322  -1.400  25.721  0.00  0.00    +0.000 A 
ATOM     29  C   UNL     1      -3.257  -2.820  24.002  0.00  0.00    +0.000 A 
ATOM     30  C   UNL     1      -2.255  -2.553  24.936  0.00  0.00    +0.000 A 
ENDBRANCH  17  20
ENDBRANCH   9  17
ENDBRANCH  15  16
ENDBRANCH  13  15
TORSDOF 10
ENDMDL
MODEL 5
REMARK VINA RESULT:      -3.5      0.971      1.506
REMARK  Name = 40781547
REMARK  11 active torsions:
REMARK  status: ('A' for Active; 'I' for Inactive)
REMARK    1  A    between atoms: S_1  and  N_8
REMARK    2  A    between atoms: S_1  and  C_18
REMARK    3  A    between atoms: O_3  and  C_10
REMARK    4  A    between atoms: O_4  and  C_11
REMARK    5  A    between atoms: N_8  and  C_14
REMARK    6  A    between atoms: N_9  and  C_17
REMARK    7  A    between atoms: N_9  and  C_19
REMARK    8  A    between atoms: C_12  and  C_14
REMARK    9  A    between atoms: C_13  and  C_15
REMARK   10  A    between atoms: C_15  and  C_16
REMARK   11  A    between atoms: C_17  and  C_20
REMARK                            x       y       z     vdW  Elec       q    Type
REMARK                         _______ _______ _______ _____ _____    ______ ____
ROOT
ATOM      2  O   UNL     1      -2.125   2.122  26.004  0.00  0.00    -0.366 OA
ATOM     10  C   UNL     1      -1.050   3.923  24.927  0.00  0.00    +0.175 C 
ATOM     11  C   UNL     1       0.020   2.997  25.466  0.00  0.00    +0.175 C 
ATOM     12  C   UNL     1      -2.246   3.538  25.783  0.00  0.00    +0.165 C 
ATOM     13  C   UNL     1      -0.767   1.715  25.719  0.00  0.00    +0.158 C 
ENDROOT
BRANCH  10   3
ATOM      3  O   UNL     1      -0.724   5.291  25.057  0.00  0.00    -0.387 OA
ATOM     31  H   UNL     1       0.148   5.343  25.484  0.00  0.00    +0.210 HD
ENDBRANCH  10   3
BRANCH  11   4
ATOM      4  O   UNL     1       0.503   3.475  26.721  0.00  0.00    -0.387 OA
ATOM     32  H   UNL     1       0.755   2.699  27.249  0.00  0.00    +0.210 HD
ENDBRANCH  11   4
BRANCH  12  14
ATOM     14  C   UNL     1      -3.580   3.842  25.126  0.00  0.00    +0.140 C 
BRANCH  14   8
ATOM      8  N   UNL     1      -4.052   2.649  24.398  0.00  0.00    -0.187 NA
ATOM     33  H   UNL     1      -4.051   2.720  23.374  0.00  0.00    +0.148 HD
BRANCH   8   1
ATOM      1  S   UNL     1      -5.264   1.662  25.072  0.00  0.00    +0.058 S 
ATOM      6  O   UNL     1      -6.422   1.660  24.198  0.00  0.00    -0.153 OA
ATOM      7  O   UNL     1      -5.411   1.987  26.477  0.00  0.00    -0.153 OA
BRANCH   1  18
ATOM     18  C   UNL     1      -4.516   0.063  24.988  0.00  0.00    +0.105 A 
ATOM     21  C   UNL     1      -4.595  -0.684  23.812  0.00  0.00    +0.028 A 
ATOM     22  C   UNL     1      -3.846  -0.453  26.098  0.00  0.00    +0.028 A 
ATOM     25  C   UNL     1      -4.005  -1.946  23.746  0.00  0.00    +0.002 A 
ATOM     26  C   UNL     1      -3.255  -1.715  26.031  0.00  0.00    +0.002 A 
ATOM     27  C   UNL     1      -3.335  -2.461  24.855  0.00  0.00    +0.000 A 
ENDBRANCH   1  18
ENDBRANCH   8   1
ENDBRANCH  14   8
ENDBRANCH  12  14
BRANCH  13  15
ATOM     15  C   UNL     1      -0.801   0.789  24.512  0.00  0.00    +0.130 C 
BRANCH  15  16
ATOM      5  O   UNL     1       1.096   1.960  23.634  0.00  0.00    -0.276 OA
ATOM      9  N   UNL     1       0.761  -0.200  22.857  0.00  0.00    -0.300 N 
ATOM     16  C   UNL     1       0.437   0.916  23.635  0.00  0.00    +0.218 C 
ATOM     19  C   UNL     1      -0.033  -1.423  22.874  0.00  0.00    +0.132 C 
BRANCH   9  17
ATOM     17  C   UNL     1       1.920  -0.226  21.967  0.00  0.00    +0.142 C 
BRANCH  17  20
ATOM     20  C   UNL     1       3.213  -0.255  22.729  0.00  0.00    -0.030 A 
ATOM     23  C   UNL     1       3.599  -1.411  23.406  0.00  0.00    +0.005 A 
ATOM     24  C   UNL     1       4.029   0.876  22.759  0.00  0.00    +0.005 A 
ATOM     28  C   UNL     1       4.800  -1.437  24.114  0.00  0.00    +0.000 A 
ATOM     29  C   UNL     1       5.230   0.851  23.466  0.00  0.00    +0.000 A 
ATOM     30  C   UNL     1       5.617  -0.305  24.144  0.00  0.00    +0.000 A 
ENDBRANCH  17  20
ENDBRANCH   9  17
ENDBRANCH  15  16
ENDBRANCH  13  15
TORSDOF 10
ENDMDL
MODEL 6
REMARK VINA RESULT:      -1.3      2.257      6.832
REMARK  Name = 40781547
REMARK  11 active torsions:
REMARK  status: ('A' for Active; 'I' for Inactive)
REMARK    1  A    between atoms: S_1  and  N_8
REMARK    2  A    between atoms: S_1  and  C_18
REMARK    3  A    between atoms: O_3  and  C_10
REMARK    4  A    between atoms: O_4  and  C_11
REMARK    5  A    between atoms: N_8  and  C_14
REMARK    6  A    between atoms: N_9  and  C_17
REMARK    7  A    between atoms: N_9  and  C_19
REMARK    8  A    between atoms: C_12  and  C_14
REMARK    9  A    between atoms: C_13  and  C_15
REMARK   10  A    between atoms: C_15  and  C_16
REMARK   11  A    between atoms: C_17  and  C_20
REMARK                            x       y       z     vdW  Elec       q    Type
REMARK                         _______ _______ _______ _____ _____    ______ ____
ROOT
ATOM      2  O   UNL     1      -3.317  -0.335  25.793  0.00  0.00    -0.366 OA
ATOM     10  C   UNL     1      -1.916  -1.776  24.558  0.00  0.00    +0.175 C 
ATOM     11  C   UNL     1      -3.342  -2.258  24.394  0.00  0.00    +0.175 C 
ATOM     12  C   UNL     1      -2.018  -0.953  25.833  0.00  0.00    +0.165 C 
ATOM     13  C   UNL     1      -4.144  -1.040  24.838  0.00  0.00    +0.158 C 
ENDROOT
BRANCH  10   3
ATOM      3  O   UNL     1      -0.980  -2.826  24.681  0.00  0.00    -0.387 OA
ATOM     31  H   UNL     1      -0.836  -2.979  25.630  0.00  0.00    +0.210 HD
ENDBRANCH  10   3
BRANCH  11   4
ATOM      4  O   UNL     1      -3.613  -3.324  25.304  0.00  0.00    -0.387 OA
ATOM     32  H   UNL     1      -2.970  -3.255  26.031  0.00  0.00    +0.210 HD
ENDBRANCH  11   4
BRANCH  12  14
ATOM     14  C   UNL     1      -0.947   0.115  25.948  0.00  0.00    +0.140 C 
BRANCH  14   8
ATOM      8  N   UNL     1      -0.951   0.948  24.730  0.00  0.00    -0.187 NA
ATOM     33  H   UNL     1      -1.333   0.505  23.887  0.00  0.00    +0.148 HD
BRANCH   8   1
ATOM      1  S   UNL     1       0.284   2.091  24.474  0.00  0.00    +0.058 S 
ATOM      6  O   UNL     1       0.949   2.370  25.733  0.00  0.00    -0.153 OA
ATOM      7  O   UNL     1      -0.238   3.177  23.668  0.00  0.00    -0.153 OA
BRANCH   1  18
ATOM     18  C   UNL     1       1.408   1.186  23.453  0.00  0.00    +0.105 A 
ATOM     21  C   UNL     1       0.947   0.115  22.687  0.00  0.00    +0.028 A 
ATOM     22  C   UNL     1       2.756   1.542  23.415  0.00  0.00    +0.028 A 
ATOM     25  C   UNL     1       1.834  -0.600  21.882  0.00  0.00    +0.002 A 
ATOM     26  C   UNL     1       3.643   0.827  22.610  0.00  0.00    +0.002 A 
ATOM     27  C   UNL     1       3.182  -0.243  21.844  0.00  0.00    +0.000 A 
ENDBRANCH   1  18
ENDBRANCH   8   1
ENDBRANCH  14   8
ENDBRANCH  12  14
BRANCH  13  15
ATOM     15  C   UNL     1      -4.456  -0.083  23.696  0.00  0.00    +0.130 C 
BRANCH  15  16
ATOM      5  O   UNL     1      -3.364   2.047  23.784  0.00  0.00    -0.276 OA
ATOM      9  N   UNL     1      -5.415   1.891  24.854  0.00  0.00    -0.300 N 
ATOM     16  C   UNL     1      -4.350   1.379  24.107  0.00  0.00    +0.218 C 
ATOM     19  C   UNL     1      -6.570   1.082  25.225  0.00  0.00    +0.132 C 
BRANCH   9  17
ATOM     17  C   UNL     1      -5.453   3.276  25.319  0.00  0.00    +0.142 C 
BRANCH  17  20
ATOM     20  C   UNL     1      -4.088   3.900  25.338  0.00  0.00    -0.030 A 
ATOM     23  C   UNL     1      -3.714   4.792  24.332  0.00  0.00    +0.005 A 
ATOM     24  C   UNL     1      -3.194   3.588  26.361  0.00  0.00    +0.005 A 
ATOM     28  C   UNL     1      -2.445   5.370  24.350  0.00  0.00    +0.000 A 
ATOM     29  C   UNL     1      -1.926   4.167  26.380  0.00  0.00    +0.000 A 
ATOM     30  C   UNL     1      -1.551   5.058  25.374  0.00  0.00    +0.000 A 
ENDBRANCH  17  20
ENDBRANCH   9  17
ENDBRANCH  15  16
ENDBRANCH  13  15
TORSDOF 10
ENDMDL
