MODEL 1
REMARK VINA RESULT:      -3.8      0.000      0.000
REMARK  Name = 75536507
REMARK  9 active torsions:
REMARK  status: ('A' for Active; 'I' for Inactive)
REMARK    1  A    between atoms: S_1  and  C_19
REMARK    2  A    between atoms: S_1  and  C_23
REMARK    3  A    between atoms: O_3  and  C_10
REMARK    4  A    between atoms: N_7  and  C_9
REMARK    5  A    between atoms: N_7  and  C_14
REMARK    6  A    between atoms: N_8  and  C_13
REMARK    7  A    between atoms: C_11  and  C_13
REMARK    8  A    between atoms: C_14  and  C_15
REMARK    9  A    between atoms: C_18  and  C_22
REMARK                            x       y       z     vdW  Elec       q    Type
REMARK                         _______ _______ _______ _____ _____    ______ ____
ROOT
ATOM      7  N   UNL     1       0.688   2.669  24.601  0.00  0.00    -0.305 NA
ATOM     24  H   UNL     1       1.583   3.127  24.427  0.00  0.00    +0.123 HD
ENDROOT
BRANCH   7   9
ATOM      2  O   UNL     1       0.690  -0.615  23.036  0.00  0.00    -0.371 OA
ATOM      9  C   UNL     1       0.870   1.229  24.523  0.00  0.00    +0.111 C 
ATOM     10  C   UNL     1      -0.379   0.437  24.865  0.00  0.00    +0.164 C 
ATOM     11  C   UNL     1      -0.057  -0.908  24.229  0.00  0.00    +0.165 C 
ATOM     12  C   UNL     1       1.156   0.744  23.111  0.00  0.00    +0.181 C 
BRANCH  10   3
ATOM      3  O   UNL     1      -0.589   0.324  26.259  0.00  0.00    -0.388 OA
ATOM     25  H   UNL     1       0.259   0.101  26.680  0.00  0.00    +0.210 HD
ENDBRANCH  10   3
BRANCH  11  13
ATOM     13  C   UNL     1      -1.293  -1.717  23.875  0.00  0.00    +0.138 C 
BRANCH  13   8
ATOM      4  O   UNL     1      -3.536  -2.714  25.425  0.00  0.00    -0.276 OA
ATOM      8  N   UNL     1      -2.494  -1.013  24.221  0.00  0.00    -0.313 N 
ATOM     18  C   UNL     1      -3.523  -1.572  24.971  0.00  0.00    +0.210 C 
ATOM     22  C   UNL     1      -4.655  -0.610  25.209  0.00  0.00    +0.109 C 
ATOM     26  H   UNL     1      -2.591  -0.056  23.893  0.00  0.00    +0.149 HD
ENDBRANCH  13   8
ENDBRANCH  11  13
ENDBRANCH   7   9
BRANCH   7  14
ATOM     14  C   UNL     1      -0.279   3.131  23.614  0.00  0.00    +0.116 C 
BRANCH  14  15
ATOM     15  C   UNL     1      -1.683   3.126  24.157  0.00  0.00    -0.033 A 
ATOM     16  C   UNL     1      -1.963   3.751  25.373  0.00  0.00    +0.007 A 
ATOM     17  C   UNL     1      -2.704   2.494  23.446  0.00  0.00    +0.007 A 
ATOM     19  C   UNL     1      -4.284   3.116  25.166  0.00  0.00    +0.088 A 
ATOM     20  C   UNL     1      -3.264   3.747  25.876  0.00  0.00    +0.027 A 
ATOM     21  C   UNL     1      -4.005   2.490  23.950  0.00  0.00    +0.027 A 
BRANCH  19   1
ATOM      1  S   UNL     1      -5.912   3.106  25.797  0.00  0.00    -0.006 S 
ATOM      5  O   UNL     1      -5.912   2.441  27.093  0.00  0.00    -0.170 OA
ATOM      6  O   UNL     1      -6.446   4.456  25.677  0.00  0.00    -0.170 OA
ATOM     23  C   UNL     1      -6.815   2.059  24.678  0.00  0.00    +0.200 C 
ENDBRANCH  19   1
ENDBRANCH  14  15
ENDBRANCH   7  14
TORSDOF 7
ENDMDL
MODEL 2
REMARK VINA RESULT:      -3.8      2.615      5.773
REMARK  Name = 75536507
REMARK  9 active torsions:
REMARK  status: ('A' for Active; 'I' for Inactive)
REMARK    1  A    between atoms: S_1  and  C_19
REMARK    2  A    between atoms: S_1  and  C_23
REMARK    3  A    between atoms: O_3  and  C_10
REMARK    4  A    between atoms: N_7  and  C_9
REMARK    5  A    between atoms: N_7  and  C_14
REMARK    6  A    between atoms: N_8  and  C_13
REMARK    7  A    between atoms: C_11  and  C_13
REMARK    8  A    between atoms: C_14  and  C_15
REMARK    9  A    between atoms: C_18  and  C_22
REMARK                            x       y       z     vdW  Elec       q    Type
REMARK                         _______ _______ _______ _____ _____    ______ ____
ROOT
ATOM      7  N   UNL     1      -2.390   4.215  25.267  0.00  0.00    -0.305 NA
ATOM     24  H   UNL     1      -2.495   5.068  25.817  0.00  0.00    +0.123 HD
ENDROOT
BRANCH   7   9
ATOM      2  O   UNL     1      -5.655   2.670  25.690  0.00  0.00    -0.371 OA
ATOM      9  C   UNL     1      -3.705   3.746  24.864  0.00  0.00    +0.111 C 
ATOM     10  C   UNL     1      -3.717   2.306  24.383  0.00  0.00    +0.164 C 
ATOM     11  C   UNL     1      -5.193   1.961  24.528  0.00  0.00    +0.165 C 
ATOM     12  C   UNL     1      -4.691   3.685  26.019  0.00  0.00    +0.181 C 
BRANCH  10   3
ATOM      3  O   UNL     1      -3.273   2.172  23.048  0.00  0.00    -0.388 OA
ATOM     25  H   UNL     1      -3.693   1.384  22.663  0.00  0.00    +0.210 HD
ENDBRANCH  10   3
BRANCH  11  13
ATOM     13  C   UNL     1      -5.449   0.474  24.697  0.00  0.00    +0.138 C 
BRANCH  13   8
ATOM      4  O   UNL     1      -4.634  -2.127  23.698  0.00  0.00    -0.276 OA
ATOM      8  N   UNL     1      -4.238  -0.234  24.998  0.00  0.00    -0.313 N 
ATOM     18  C   UNL     1      -3.928  -1.483  24.471  0.00  0.00    +0.210 C 
ATOM     22  C   UNL     1      -2.587  -1.987  24.930  0.00  0.00    +0.109 C 
ATOM     26  H   UNL     1      -3.579   0.208  25.633  0.00  0.00    +0.149 HD
ENDBRANCH  13   8
ENDBRANCH  11  13
ENDBRANCH   7   9
BRANCH   7  14
ATOM     14  C   UNL     1      -1.699   3.216  26.073  0.00  0.00    +0.116 C 
BRANCH  14  15
ATOM     15  C   UNL     1      -0.743   2.394  25.251  0.00  0.00    -0.033 A 
ATOM     16  C   UNL     1       0.194   3.024  24.432  0.00  0.00    +0.007 A 
ATOM     17  C   UNL     1      -0.796   1.001  25.307  0.00  0.00    +0.007 A 
ATOM     19  C   UNL     1       1.027   0.870  23.726  0.00  0.00    +0.088 A 
ATOM     20  C   UNL     1       1.080   2.263  23.671  0.00  0.00    +0.027 A 
ATOM     21  C   UNL     1       0.090   0.239  24.544  0.00  0.00    +0.027 A 
BRANCH  19   1
ATOM      1  S   UNL     1       2.133  -0.085  22.770  0.00  0.00    -0.006 S 
ATOM      5  O   UNL     1       2.578  -1.225  23.559  0.00  0.00    -0.170 OA
ATOM      6  O   UNL     1       1.524  -0.302  21.465  0.00  0.00    -0.170 OA
ATOM     23  C   UNL     1       3.547   0.971  22.544  0.00  0.00    +0.200 C 
ENDBRANCH  19   1
ENDBRANCH  14  15
ENDBRANCH   7  14
TORSDOF 7
ENDMDL
MODEL 3
REMARK VINA RESULT:      -3.7      2.704      4.945
REMARK  Name = 75536507
REMARK  9 active torsions:
REMARK  status: ('A' for Active; 'I' for Inactive)
REMARK    1  A    between atoms: S_1  and  C_19
REMARK    2  A    between atoms: S_1  and  C_23
REMARK    3  A    between atoms: O_3  and  C_10
REMARK    4  A    between atoms: N_7  and  C_9
REMARK    5  A    between atoms: N_7  and  C_14
REMARK    6  A    between atoms: N_8  and  C_13
REMARK    7  A    between atoms: C_11  and  C_13
REMARK    8  A    between atoms: C_14  and  C_15
REMARK    9  A    between atoms: C_18  and  C_22
REMARK                            x       y       z     vdW  Elec       q    Type
REMARK                         _______ _______ _______ _____ _____    ______ ____
ROOT
ATOM      7  N   UNL     1      -2.960   4.311  25.679  0.00  0.00    -0.305 NA
ATOM     24  H   UNL     1      -3.174   5.304  25.785  0.00  0.00    +0.123 HD
ENDROOT
BRANCH   7   9
ATOM      2  O   UNL     1       0.012   3.797  23.647  0.00  0.00    -0.371 OA
ATOM      9  C   UNL     1      -1.541   4.158  25.408  0.00  0.00    +0.111 C 
ATOM     10  C   UNL     1      -1.063   2.718  25.456  0.00  0.00    +0.164 C 
ATOM     11  C   UNL     1       0.237   2.814  24.671  0.00  0.00    +0.165 C 
ATOM     12  C   UNL     1      -1.163   4.553  23.989  0.00  0.00    +0.181 C 
BRANCH  10   3
ATOM      3  O   UNL     1      -0.849   2.257  26.776  0.00  0.00    -0.388 OA
ATOM     25  H   UNL     1       0.108   2.155  26.913  0.00  0.00    +0.210 HD
ENDBRANCH  10   3
BRANCH  11  13
ATOM     13  C   UNL     1       0.655   1.499  24.037  0.00  0.00    +0.138 C 
BRANCH  13   8
ATOM      4  O   UNL     1       2.018  -0.259  22.171  0.00  0.00    -0.276 OA
ATOM      8  N   UNL     1       2.049   1.503  23.695  0.00  0.00    -0.313 N 
ATOM     18  C   UNL     1       2.619   0.619  22.786  0.00  0.00    +0.210 C 
ATOM     22  C   UNL     1       4.092   0.857  22.594  0.00  0.00    +0.109 C 
ATOM     26  H   UNL     1       2.643   2.191  24.149  0.00  0.00    +0.149 HD
ENDBRANCH  13   8
ENDBRANCH  11  13
ENDBRANCH   7   9
BRANCH   7  14
ATOM     14  C   UNL     1      -3.765   3.768  24.592  0.00  0.00    +0.116 C 
BRANCH  14  15
ATOM     15  C   UNL     1      -3.705   2.265  24.545  0.00  0.00    -0.033 A 
ATOM     16  C   UNL     1      -4.288   1.510  25.563  0.00  0.00    +0.007 A 
ATOM     17  C   UNL     1      -3.063   1.625  23.484  0.00  0.00    +0.007 A 
ATOM     19  C   UNL     1      -3.591  -0.521  24.459  0.00  0.00    +0.088 A 
ATOM     20  C   UNL     1      -4.233   0.118  25.520  0.00  0.00    +0.027 A 
ATOM     21  C   UNL     1      -3.007   0.233  23.440  0.00  0.00    +0.027 A 
BRANCH  19   1
ATOM      1  S   UNL     1      -3.517  -2.265  24.406  0.00  0.00    -0.006 S 
ATOM      5  O   UNL     1      -3.617  -2.784  25.763  0.00  0.00    -0.170 OA
ATOM      6  O   UNL     1      -4.451  -2.721  23.386  0.00  0.00    -0.170 OA
ATOM     23  C   UNL     1      -1.869  -2.620  23.837  0.00  0.00    +0.200 C 
ENDBRANCH  19   1
ENDBRANCH  14  15
ENDBRANCH   7  14
TORSDOF 7
ENDMDL
MODEL 4
REMARK VINA RESULT:      -3.7      1.680      4.329
REMARK  Name = 75536507
REMARK  9 active torsions:
REMARK  status: ('A' for Active; 'I' for Inactive)
REMARK    1  A    between atoms: S_1  and  C_19
REMARK    2  A    between atoms: S_1  and  C_23
REMARK    3  A    between atoms: O_3  and  C_10
REMARK    4  A    between atoms: N_7  and  C_9
REMARK    5  A    between atoms: N_7  and  C_14
REMARK    6  A    between atoms: N_8  and  C_13
REMARK    7  A    between atoms: C_11  and  C_13
REMARK    8  A    between atoms: C_14  and  C_15
REMARK    9  A    between atoms: C_18  and  C_22
REMARK                            x       y       z     vdW  Elec       q    Type
REMARK                         _______ _______ _______ _____ _____    ______ ____
ROOT
ATOM      7  N   UNL     1      -4.009  -2.697  24.933  0.00  0.00    -0.305 NA
ATOM     24  H   UNL     1      -4.642  -2.426  25.686  0.00  0.00    +0.123 HD
ENDROOT
BRANCH   7   9
ATOM      2  O   UNL     1      -1.120  -0.867  26.172  0.00  0.00    -0.371 OA
ATOM      9  C   UNL     1      -2.638  -2.513  25.378  0.00  0.00    +0.111 C 
ATOM     10  C   UNL     1      -1.678  -2.144  24.261  0.00  0.00    +0.164 C 
ATOM     11  C   UNL     1      -0.525  -1.543  25.052  0.00  0.00    +0.165 C 
ATOM     12  C   UNL     1      -2.474  -1.329  26.318  0.00  0.00    +0.181 C 
BRANCH  10   3
ATOM      3  O   UNL     1      -1.269  -3.264  23.501  0.00  0.00    -0.388 OA
ATOM     25  H   UNL     1      -1.006  -2.955  22.618  0.00  0.00    +0.210 HD
ENDBRANCH  10   3
BRANCH  11  13
ATOM     13  C   UNL     1       0.311  -0.565  24.246  0.00  0.00    +0.138 C 
BRANCH  13   8
ATOM      4  O   UNL     1       1.769   1.890  23.716  0.00  0.00    -0.276 OA
ATOM      8  N   UNL     1      -0.162   0.780  24.404  0.00  0.00    -0.313 N 
ATOM     18  C   UNL     1       0.610   1.903  24.125  0.00  0.00    +0.210 C 
ATOM     22  C   UNL     1      -0.136   3.189  24.355  0.00  0.00    +0.109 C 
ATOM     26  H   UNL     1      -1.111   0.910  24.742  0.00  0.00    +0.149 HD
ENDBRANCH  13   8
ENDBRANCH  11  13
ENDBRANCH   7   9
BRANCH   7  14
ATOM     14  C   UNL     1      -4.294  -1.881  23.759  0.00  0.00    +0.116 C 
BRANCH  14  15
ATOM     15  C   UNL     1      -4.316  -0.412  24.088  0.00  0.00    -0.033 A 
ATOM     16  C   UNL     1      -3.453   0.464  23.428  0.00  0.00    +0.007 A 
ATOM     17  C   UNL     1      -5.197   0.074  25.054  0.00  0.00    +0.007 A 
ATOM     19  C   UNL     1      -4.354   2.310  24.698  0.00  0.00    +0.088 A 
ATOM     20  C   UNL     1      -3.473   1.825  23.732  0.00  0.00    +0.027 A 
ATOM     21  C   UNL     1      -5.216   1.434  25.359  0.00  0.00    +0.027 A 
BRANCH  19   1
ATOM      1  S   UNL     1      -4.376   4.013  25.083  0.00  0.00    -0.006 S 
ATOM      5  O   UNL     1      -3.952   4.767  23.912  0.00  0.00    -0.170 OA
ATOM      6  O   UNL     1      -5.655   4.312  25.712  0.00  0.00    -0.170 OA
ATOM     23  C   UNL     1      -3.104   4.205  26.312  0.00  0.00    +0.200 C 
ENDBRANCH  19   1
ENDBRANCH  14  15
ENDBRANCH   7  14
TORSDOF 7
ENDMDL
MODEL 5
REMARK VINA RESULT:      -3.5      2.219      3.649
REMARK  Name = 75536507
REMARK  9 active torsions:
REMARK  status: ('A' for Active; 'I' for Inactive)
REMARK    1  A    between atoms: S_1  and  C_19
REMARK    2  A    between atoms: S_1  and  C_23
REMARK    3  A    between atoms: O_3  and  C_10
REMARK    4  A    between atoms: N_7  and  C_9
REMARK    5  A    between atoms: N_7  and  C_14
REMARK    6  A    between atoms: N_8  and  C_13
REMARK    7  A    between atoms: C_11  and  C_13
REMARK    8  A    between atoms: C_14  and  C_15
REMARK    9  A    between atoms: C_18  and  C_22
REMARK                            x       y       z     vdW  Elec       q    Type
REMARK                         _______ _______ _______ _____ _____    ______ ____
ROOT
ATOM      7  N   UNL     1       0.057  -1.552  25.063  0.00  0.00    -0.305 NA
ATOM     24  H   UNL     1       0.695  -2.335  24.913  0.00  0.00    +0.123 HD
ENDROOT
BRANCH   7   9
ATOM      2  O   UNL     1      -3.227  -2.518  23.832  0.00  0.00    -0.371 OA
ATOM      9  C   UNL     1      -1.302  -2.058  25.147  0.00  0.00    +0.111 C 
ATOM     10  C   UNL     1      -2.340  -0.978  25.394  0.00  0.00    +0.164 C 
ATOM     11  C   UNL     1      -3.610  -1.682  24.938  0.00  0.00    +0.165 C 
ATOM     12  C   UNL     1      -1.795  -2.655  23.839  0.00  0.00    +0.181 C 
BRANCH  10   3
ATOM      3  O   UNL     1      -2.412  -0.590  26.752  0.00  0.00    -0.388 OA
ATOM     25  H   UNL     1      -1.882   0.217  26.868  0.00  0.00    +0.210 HD
ENDBRANCH  10   3
BRANCH  11  13
ATOM     13  C   UNL     1      -4.705  -0.725  24.502  0.00  0.00    +0.138 C 
BRANCH  13   8
ATOM      4  O   UNL     1      -6.643   1.437  24.478  0.00  0.00    -0.276 OA
ATOM      8  N   UNL     1      -4.648   0.505  25.239  0.00  0.00    -0.313 N 
ATOM     18  C   UNL     1      -5.627   1.490  25.166  0.00  0.00    +0.210 C 
ATOM     22  C   UNL     1      -5.333   2.664  26.059  0.00  0.00    +0.109 C 
ATOM     26  H   UNL     1      -3.844   0.656  25.842  0.00  0.00    +0.149 HD
ENDBRANCH  13   8
ENDBRANCH  11  13
ENDBRANCH   7   9
BRANCH   7  14
ATOM     14  C   UNL     1       0.200  -0.610  23.960  0.00  0.00    +0.116 C 
BRANCH  14  15
ATOM     15  C   UNL     1      -0.416   0.726  24.278  0.00  0.00    -0.033 A 
ATOM     16  C   UNL     1       0.031   1.456  25.380  0.00  0.00    +0.007 A 
ATOM     17  C   UNL     1      -1.437   1.234  23.474  0.00  0.00    +0.007 A 
ATOM     19  C   UNL     1      -1.560   3.201  24.871  0.00  0.00    +0.088 A 
ATOM     20  C   UNL     1      -0.539   2.694  25.676  0.00  0.00    +0.027 A 
ATOM     21  C   UNL     1      -2.008   2.471  23.770  0.00  0.00    +0.027 A 
BRANCH  19   1
ATOM      1  S   UNL     1      -2.278   4.748  25.243  0.00  0.00    -0.006 S 
ATOM      5  O   UNL     1      -2.913   4.672  26.552  0.00  0.00    -0.170 OA
ATOM      6  O   UNL     1      -1.282   5.778  24.981  0.00  0.00    -0.170 OA
ATOM     23  C   UNL     1      -3.581   4.930  24.046  0.00  0.00    +0.200 C 
ENDBRANCH  19   1
ENDBRANCH  14  15
ENDBRANCH   7  14
TORSDOF 7
ENDMDL
MODEL 6
REMARK VINA RESULT:      -2.8      1.728      4.226
REMARK  Name = 75536507
REMARK  9 active torsions:
REMARK  status: ('A' for Active; 'I' for Inactive)
REMARK    1  A    between atoms: S_1  and  C_19
REMARK    2  A    between atoms: S_1  and  C_23
REMARK    3  A    between atoms: O_3  and  C_10
REMARK    4  A    between atoms: N_7  and  C_9
REMARK    5  A    between atoms: N_7  and  C_14
REMARK    6  A    between atoms: N_8  and  C_13
REMARK    7  A    between atoms: C_11  and  C_13
REMARK    8  A    between atoms: C_14  and  C_15
REMARK    9  A    between atoms: C_18  and  C_22
REMARK                            x       y       z     vdW  Elec       q    Type
REMARK                         _______ _______ _______ _____ _____    ______ ____
ROOT
ATOM      7  N   UNL     1      -0.931  -2.276  24.884  0.00  0.00    -0.305 NA
ATOM     24  H   UNL     1      -1.404  -2.626  25.718  0.00  0.00    +0.123 HD
ENDROOT
BRANCH   7   9
ATOM      2  O   UNL     1      -0.555   1.152  26.041  0.00  0.00    -0.371 OA
ATOM      9  C   UNL     1      -0.222  -1.052  25.219  0.00  0.00    +0.111 C 
ATOM     10  C   UNL     1      -0.118  -0.072  24.065  0.00  0.00    +0.164 C 
ATOM     11  C   UNL     1       0.177   1.224  24.806  0.00  0.00    +0.165 C 
ATOM     12  C   UNL     1      -0.948  -0.214  26.260  0.00  0.00    +0.181 C 
BRANCH  10   3
ATOM      3  O   UNL     1       0.912  -0.407  23.156  0.00  0.00    -0.388 OA
ATOM     25  H   UNL     1       1.333  -1.229  23.459  0.00  0.00    +0.210 HD
ENDBRANCH  10   3
BRANCH  11  13
ATOM     13  C   UNL     1      -0.237   2.465  24.035  0.00  0.00    +0.138 C 
BRANCH  13   8
ATOM      4  O   UNL     1      -0.268   5.305  24.636  0.00  0.00    -0.276 OA
ATOM      8  N   UNL     1      -1.256   3.197  24.732  0.00  0.00    -0.313 N 
ATOM     18  C   UNL     1      -1.187   4.564  24.976  0.00  0.00    +0.210 C 
ATOM     22  C   UNL     1      -2.397   5.083  25.704  0.00  0.00    +0.109 C 
ATOM     26  H   UNL     1      -2.065   2.680  25.063  0.00  0.00    +0.149 HD
ENDBRANCH  13   8
ENDBRANCH  11  13
ENDBRANCH   7   9
BRANCH   7  14
ATOM     14  C   UNL     1      -1.922  -2.041  23.842  0.00  0.00    +0.116 C 
BRANCH  14  15
ATOM     15  C   UNL     1      -2.938  -1.009  24.255  0.00  0.00    -0.033 A 
ATOM     16  C   UNL     1      -3.093   0.157  23.504  0.00  0.00    +0.007 A 
ATOM     17  C   UNL     1      -3.722  -1.218  25.390  0.00  0.00    +0.007 A 
ATOM     19  C   UNL     1      -4.818   0.904  25.021  0.00  0.00    +0.088 A 
ATOM     20  C   UNL     1      -4.034   1.113  23.886  0.00  0.00    +0.027 A 
ATOM     21  C   UNL     1      -4.662  -0.261  25.773  0.00  0.00    +0.027 A 
BRANCH  19   1
ATOM      1  S   UNL     1      -5.992   2.103  25.503  0.00  0.00    -0.006 S 
ATOM      5  O   UNL     1      -7.124   2.049  24.588  0.00  0.00    -0.170 OA
ATOM      6  O   UNL     1      -6.213   1.962  26.936  0.00  0.00    -0.170 OA
ATOM     23  C   UNL     1      -5.176   3.659  25.226  0.00  0.00    +0.200 C 
ENDBRANCH  19   1
ENDBRANCH  14  15
ENDBRANCH   7  14
TORSDOF 7
ENDMDL
MODEL 7
REMARK VINA RESULT:      -2.6      2.462      5.065
REMARK  Name = 75536507
REMARK  9 active torsions:
REMARK  status: ('A' for Active; 'I' for Inactive)
REMARK    1  A    between atoms: S_1  and  C_19
REMARK    2  A    between atoms: S_1  and  C_23
REMARK    3  A    between atoms: O_3  and  C_10
REMARK    4  A    between atoms: N_7  and  C_9
REMARK    5  A    between atoms: N_7  and  C_14
REMARK    6  A    between atoms: N_8  and  C_13
REMARK    7  A    between atoms: C_11  and  C_13
REMARK    8  A    between atoms: C_14  and  C_15
REMARK    9  A    between atoms: C_18  and  C_22
REMARK                            x       y       z     vdW  Elec       q    Type
REMARK                         _______ _______ _______ _____ _____    ______ ____
ROOT
ATOM      7  N   UNL     1       0.914   2.409  25.260  0.00  0.00    -0.305 NA
ATOM     24  H   UNL     1       0.971   1.646  25.936  0.00  0.00    +0.123 HD
ENDROOT
BRANCH   7   9
ATOM      2  O   UNL     1      -2.310   3.561  26.489  0.00  0.00    -0.371 OA
ATOM      9  C   UNL     1      -0.071   3.375  25.718  0.00  0.00    +0.111 C 
ATOM     10  C   UNL     1      -0.932   3.942  24.605  0.00  0.00    +0.164 C 
ATOM     11  C   UNL     1      -2.120   4.473  25.395  0.00  0.00    +0.165 C 
ATOM     12  C   UNL     1      -1.122   2.762  26.629  0.00  0.00    +0.181 C 
BRANCH  10   3
ATOM      3  O   UNL     1      -0.281   4.966  23.879  0.00  0.00    -0.388 OA
ATOM     25  H   UNL     1      -0.370   4.773  22.930  0.00  0.00    +0.210 HD
ENDBRANCH  10   3
BRANCH  11  13
ATOM     13  C   UNL     1      -3.395   4.564  24.575  0.00  0.00    +0.138 C 
BRANCH  13   8
ATOM      4  O   UNL     1      -5.931   3.943  25.845  0.00  0.00    -0.276 OA
ATOM      8  N   UNL     1      -4.095   3.312  24.556  0.00  0.00    -0.313 N 
ATOM     18  C   UNL     1      -5.311   3.103  25.196  0.00  0.00    +0.210 C 
ATOM     22  C   UNL     1      -5.837   1.707  24.998  0.00  0.00    +0.109 C 
ATOM     26  H   UNL     1      -3.669   2.541  24.049  0.00  0.00    +0.149 HD
ENDBRANCH  13   8
ENDBRANCH  11  13
ENDBRANCH   7   9
BRANCH   7  14
ATOM     14  C   UNL     1       0.547   1.861  23.960  0.00  0.00    +0.116 C 
BRANCH  14  15
ATOM     15  C   UNL     1      -0.410   0.706  24.087  0.00  0.00    -0.033 A 
ATOM     16  C   UNL     1       0.067  -0.562  24.425  0.00  0.00    +0.007 A 
ATOM     17  C   UNL     1      -1.773   0.901  23.864  0.00  0.00    +0.007 A 
ATOM     19  C   UNL     1      -2.182  -1.436  24.320  0.00  0.00    +0.088 A 
ATOM     20  C   UNL     1      -0.819  -1.632  24.543  0.00  0.00    +0.027 A 
ATOM     21  C   UNL     1      -2.659  -0.169  23.981  0.00  0.00    +0.027 A 
BRANCH  19   1
ATOM      1  S   UNL     1      -3.292  -2.776  24.463  0.00  0.00    -0.006 S 
ATOM      5  O   UNL     1      -2.816  -3.875  23.633  0.00  0.00    -0.170 OA
ATOM      6  O   UNL     1      -3.546  -2.998  25.879  0.00  0.00    -0.170 OA
ATOM     23  C   UNL     1      -4.798  -2.184  23.723  0.00  0.00    +0.200 C 
ENDBRANCH  19   1
ENDBRANCH  14  15
ENDBRANCH   7  14
TORSDOF 7
ENDMDL
MODEL 8
REMARK VINA RESULT:      -2.2      2.535      4.861
REMARK  Name = 75536507
REMARK  9 active torsions:
REMARK  status: ('A' for Active; 'I' for Inactive)
REMARK    1  A    between atoms: S_1  and  C_19
REMARK    2  A    between atoms: S_1  and  C_23
REMARK    3  A    between atoms: O_3  and  C_10
REMARK    4  A    between atoms: N_7  and  C_9
REMARK    5  A    between atoms: N_7  and  C_14
REMARK    6  A    between atoms: N_8  and  C_13
REMARK    7  A    between atoms: C_11  and  C_13
REMARK    8  A    between atoms: C_14  and  C_15
REMARK    9  A    between atoms: C_18  and  C_22
REMARK                            x       y       z     vdW  Elec       q    Type
REMARK                         _______ _______ _______ _____ _____    ______ ____
ROOT
ATOM      7  N   UNL     1      -0.121  -1.086  24.569  0.00  0.00    -0.305 NA
ATOM     24  H   UNL     1      -0.202  -0.520  25.414  0.00  0.00    +0.123 HD
ENDROOT
BRANCH   7   9
ATOM      2  O   UNL     1       1.902  -0.216  21.674  0.00  0.00    -0.371 OA
ATOM      9  C   UNL     1       0.363  -0.250  23.483  0.00  0.00    +0.111 C 
ATOM     10  C   UNL     1       1.553   0.612  23.862  0.00  0.00    +0.164 C 
ATOM     11  C   UNL     1       2.121   0.947  22.490  0.00  0.00    +0.165 C 
ATOM     12  C   UNL     1       0.931  -1.054  22.325  0.00  0.00    +0.181 C 
BRANCH  10   3
ATOM      3  O   UNL     1       1.180   1.775  24.576  0.00  0.00    -0.388 OA
ATOM     25  H   UNL     1       1.970   2.329  24.694  0.00  0.00    +0.210 HD
ENDBRANCH  10   3
BRANCH  11  13
ATOM     13  C   UNL     1       3.602   1.283  22.518  0.00  0.00    +0.138 C 
BRANCH  13   8
ATOM      4  O   UNL     1       6.062  -0.257  22.469  0.00  0.00    -0.276 OA
ATOM      8  N   UNL     1       4.259   0.656  23.628  0.00  0.00    -0.313 N 
ATOM     18  C   UNL     1       5.441  -0.067  23.512  0.00  0.00    +0.210 C 
ATOM     22  C   UNL     1       5.927  -0.597  24.833  0.00  0.00    +0.109 C 
ATOM     26  H   UNL     1       3.829   0.748  24.544  0.00  0.00    +0.149 HD
ENDBRANCH  13   8
ENDBRANCH  11  13
ENDBRANCH   7   9
BRANCH   7  14
ATOM     14  C   UNL     1      -1.426  -1.654  24.255  0.00  0.00    +0.116 C 
BRANCH  14  15
ATOM     15  C   UNL     1      -2.545  -0.698  24.570  0.00  0.00    -0.033 A 
ATOM     16  C   UNL     1      -2.257   0.595  25.006  0.00  0.00    +0.007 A 
ATOM     17  C   UNL     1      -3.872  -1.107  24.428  0.00  0.00    +0.007 A 
ATOM     19  C   UNL     1      -4.620   1.073  25.156  0.00  0.00    +0.088 A 
ATOM     20  C   UNL     1      -3.293   1.481  25.298  0.00  0.00    +0.027 A 
ATOM     21  C   UNL     1      -4.909  -0.221  24.721  0.00  0.00    +0.027 A 
BRANCH  19   1
ATOM      1  S   UNL     1      -5.919   2.179  25.526  0.00  0.00    -0.006 S 
ATOM      5  O   UNL     1      -6.966   2.030  24.524  0.00  0.00    -0.170 OA
ATOM      6  O   UNL     1      -6.242   2.034  26.938  0.00  0.00    -0.170 OA
ATOM     23  C   UNL     1      -5.205   3.792  25.291  0.00  0.00    +0.200 C 
ENDBRANCH  19   1
ENDBRANCH  14  15
ENDBRANCH   7  14
TORSDOF 7
ENDMDL
MODEL 9
REMARK VINA RESULT:      -0.9      1.651      4.182
REMARK  Name = 75536507
REMARK  9 active torsions:
REMARK  status: ('A' for Active; 'I' for Inactive)
REMARK    1  A    between atoms: S_1  and  C_19
REMARK    2  A    between atoms: S_1  and  C_23
REMARK    3  A    between atoms: O_3  and  C_10
REMARK    4  A    between atoms: N_7  and  C_9
REMARK    5  A    between atoms: N_7  and  C_14
REMARK    6  A    between atoms: N_8  and  C_13
REMARK    7  A    between atoms: C_11  and  C_13
REMARK    8  A    between atoms: C_14  and  C_15
REMARK    9  A    between atoms: C_18  and  C_22
REMARK                            x       y       z     vdW  Elec       q    Type
REMARK                         _______ _______ _______ _____ _____    ______ ____
ROOT
ATOM      7  N   UNL     1      -2.130  -2.394  23.692  0.00  0.00    -0.305 NA
ATOM     24  H   UNL     1      -1.986  -3.403  23.640  0.00  0.00    +0.123 HD
ENDROOT
BRANCH   7   9
ATOM      2  O   UNL     1      -1.387  -0.622  26.781  0.00  0.00    -0.371 OA
ATOM      9  C   UNL     1      -1.294  -1.849  24.749  0.00  0.00    +0.111 C 
ATOM     10  C   UNL     1      -0.834  -0.426  24.489  0.00  0.00    +0.164 C 
ATOM     11  C   UNL     1      -0.456   0.020  25.895  0.00  0.00    +0.165 C 
ATOM     12  C   UNL     1      -2.035  -1.690  26.067  0.00  0.00    +0.181 C 
BRANCH  10   3
ATOM      3  O   UNL     1       0.265  -0.361  23.602  0.00  0.00    -0.388 OA
ATOM     25  H   UNL     1       0.906   0.280  23.954  0.00  0.00    +0.210 HD
ENDBRANCH  10   3
BRANCH  11  13
ATOM     13  C   UNL     1      -0.520   1.526  26.085  0.00  0.00    +0.138 C 
BRANCH  13   8
ATOM      4  O   UNL     1      -0.933   4.348  25.544  0.00  0.00    -0.276 OA
ATOM      8  N   UNL     1      -0.292   2.218  24.849  0.00  0.00    -0.313 N 
ATOM     18  C   UNL     1      -0.519   3.580  24.680  0.00  0.00    +0.210 C 
ATOM     22  C   UNL     1      -0.175   4.055  23.294  0.00  0.00    +0.109 C 
ATOM     26  H   UNL     1       0.051   1.677  24.061  0.00  0.00    +0.149 HD
ENDBRANCH  13   8
ENDBRANCH  11  13
ENDBRANCH   7   9
BRANCH   7  14
ATOM     14  C   UNL     1      -3.541  -2.132  23.949  0.00  0.00    +0.116 C 
BRANCH  14  15
ATOM     15  C   UNL     1      -3.794  -0.682  24.267  0.00  0.00    -0.033 A 
ATOM     16  C   UNL     1      -4.481  -0.332  25.430  0.00  0.00    +0.007 A 
ATOM     17  C   UNL     1      -3.345   0.311  23.396  0.00  0.00    +0.007 A 
ATOM     19  C   UNL     1      -4.266   2.004  24.853  0.00  0.00    +0.088 A 
ATOM     20  C   UNL     1      -4.716   1.011  25.724  0.00  0.00    +0.027 A 
ATOM     21  C   UNL     1      -3.581   1.654  23.689  0.00  0.00    +0.027 A 
BRANCH  19   1
ATOM      1  S   UNL     1      -4.564   3.685  25.218  0.00  0.00    -0.006 S 
ATOM      5  O   UNL     1      -5.998   3.888  25.376  0.00  0.00    -0.170 OA
ATOM      6  O   UNL     1      -3.656   4.079  26.287  0.00  0.00    -0.170 OA
ATOM     23  C   UNL     1      -4.078   4.551  23.741  0.00  0.00    +0.200 C 
ENDBRANCH  19   1
ENDBRANCH  14  15
ENDBRANCH   7  14
TORSDOF 7
ENDMDL
MODEL 10
REMARK VINA RESULT:      -0.5      2.296      3.833
REMARK  Name = 75536507
REMARK  9 active torsions:
REMARK  status: ('A' for Active; 'I' for Inactive)
REMARK    1  A    between atoms: S_1  and  C_19
REMARK    2  A    between atoms: S_1  and  C_23
REMARK    3  A    between atoms: O_3  and  C_10
REMARK    4  A    between atoms: N_7  and  C_9
REMARK    5  A    between atoms: N_7  and  C_14
REMARK    6  A    between atoms: N_8  and  C_13
REMARK    7  A    between atoms: C_11  and  C_13
REMARK    8  A    between atoms: C_14  and  C_15
REMARK    9  A    between atoms: C_18  and  C_22
REMARK                            x       y       z     vdW  Elec       q    Type
REMARK                         _______ _______ _______ _____ _____    ______ ____
ROOT
ATOM      7  N   UNL     1      -0.284   4.677  24.706  0.00  0.00    -0.305 NA
ATOM     24  H   UNL     1       0.034   4.891  23.760  0.00  0.00    +0.123 HD
ENDROOT
BRANCH   7   9
ATOM      2  O   UNL     1       0.640   1.232  25.420  0.00  0.00    -0.371 OA
ATOM      9  C   UNL     1      -0.479   3.242  24.828  0.00  0.00    +0.111 C 
ATOM     10  C   UNL     1      -0.143   2.472  23.564  0.00  0.00    +0.164 C 
ATOM     11  C   UNL     1       0.051   1.068  24.119  0.00  0.00    +0.165 C 
ATOM     12  C   UNL     1       0.464   2.599  25.832  0.00  0.00    +0.181 C 
BRANCH  10   3
ATOM      3  O   UNL     1      -1.179   2.521  22.603  0.00  0.00    -0.388 OA
ATOM     25  H   UNL     1      -0.823   2.913  21.788  0.00  0.00    +0.210 HD
ENDBRANCH  10   3
BRANCH  11  13
ATOM     13  C   UNL     1       0.947   0.199  23.255  0.00  0.00    +0.138 C 
BRANCH  13   8
ATOM      4  O   UNL     1       3.506  -1.169  23.370  0.00  0.00    -0.276 OA
ATOM      8  N   UNL     1       2.252   0.778  23.108  0.00  0.00    -0.313 N 
ATOM     18  C   UNL     1       3.430   0.042  23.178  0.00  0.00    +0.210 C 
ATOM     22  C   UNL     1       4.655   0.891  22.967  0.00  0.00    +0.109 C 
ATOM     26  H   UNL     1       2.308   1.779  22.947  0.00  0.00    +0.149 HD
ENDBRANCH  13   8
ENDBRANCH  11  13
ENDBRANCH   7   9
BRANCH   7  14
ATOM     14  C   UNL     1      -1.523   5.400  24.962  0.00  0.00    +0.116 C 
BRANCH  14  15
ATOM     15  C   UNL     1      -2.702   4.472  25.075  0.00  0.00    -0.033 A 
ATOM     16  C   UNL     1      -3.146   4.056  26.331  0.00  0.00    +0.007 A 
ATOM     17  C   UNL     1      -3.351   4.025  23.924  0.00  0.00    +0.007 A 
ATOM     19  C   UNL     1      -4.887   2.749  25.285  0.00  0.00    +0.088 A 
ATOM     20  C   UNL     1      -4.238   3.196  26.436  0.00  0.00    +0.027 A 
ATOM     21  C   UNL     1      -4.443   3.164  24.028  0.00  0.00    +0.027 A 
BRANCH  19   1
ATOM      1  S   UNL     1      -6.252   1.668  25.415  0.00  0.00    -0.006 S 
ATOM      5  O   UNL     1      -6.682   1.616  26.806  0.00  0.00    -0.170 OA
ATOM      6  O   UNL     1      -7.207   2.027  24.376  0.00  0.00    -0.170 OA
ATOM     23  C   UNL     1      -5.587   0.066  25.018  0.00  0.00    +0.200 C 
ENDBRANCH  19   1
ENDBRANCH  14  15
ENDBRANCH   7  14
TORSDOF 7
ENDMDL
