MODEL 1
REMARK VINA RESULT:      -3.3      0.000      0.000
REMARK  Name = 45783476
REMARK  9 active torsions:
REMARK  status: ('A' for Active; 'I' for Inactive)
REMARK    1  A    between atoms: O_4  and  C_29
REMARK    2  A    between atoms: O_4  and  C_30
REMARK    3  A    between atoms: N_5  and  C_14
REMARK    4  A    between atoms: N_9  and  C_27
REMARK    5  A    between atoms: N_9  and  C_28
REMARK    6  A    between atoms: C_10  and  C_15
REMARK    7  A    between atoms: C_14  and  C_16
REMARK    8  A    between atoms: C_19  and  C_22
REMARK    9  A    between atoms: C_28  and  C_29
REMARK                            x       y       z     vdW  Elec       q    Type
REMARK                         _______ _______ _______ _____ _____    ______ ____
ROOT
ATOM      3  O   UNL     1      -2.394   3.718  24.735  0.00  0.00    -0.336 OA
ATOM      6  N   UNL     1      -2.329   1.665  23.844  0.00  0.00    -0.190 NA
ATOM      7  N   UNL     1      -1.038   3.407  24.572  0.00  0.00    -0.056 NA
ATOM     15  C   UNL     1      -3.085   2.639  24.282  0.00  0.00    +0.245 A 
ATOM     19  C   UNL     1      -1.082   2.182  24.041  0.00  0.00    +0.204 A 
ENDROOT
BRANCH  19  22
ATOM      8  N   UNL     1       2.511   1.384  23.509  0.00  0.00    -0.240 NA
ATOM     22  C   UNL     1       0.102   1.446  23.699  0.00  0.00    +0.041 A 
ATOM     24  C   UNL     1       0.024   0.136  23.242  0.00  0.00    +0.016 A 
ATOM     25  C   UNL     1       1.357   2.020  23.815  0.00  0.00    +0.124 A 
ATOM     26  C   UNL     1       1.188  -0.552  22.917  0.00  0.00    +0.044 A 
ATOM     27  C   UNL     1       2.395   0.110  23.067  0.00  0.00    +0.119 A 
BRANCH  27   9
ATOM      9  N   UNL     1       3.573  -0.603  22.735  0.00  0.00    -0.327 N 
ATOM     31  H   UNL     1       3.887  -0.535  21.774  0.00  0.00    +0.148 HD
BRANCH   9  28
ATOM     28  C   UNL     1       4.293  -1.387  23.686  0.00  0.00    +0.131 C 
BRANCH  28  29
ATOM     29  C   UNL     1       5.367  -0.543  24.348  0.00  0.00    +0.178 C 
BRANCH  29   4
ATOM      4  O   UNL     1       6.058   0.209  23.357  0.00  0.00    -0.381 OA
ATOM     30  C   UNL     1       7.238  -0.456  22.927  0.00  0.00    +0.194 C 
ENDBRANCH  29   4
ENDBRANCH  28  29
ENDBRANCH   9  28
ENDBRANCH  27   9
ENDBRANCH  19  22
BRANCH  15  10
ATOM      5  N   UNL     1      -5.184   1.703  25.235  0.00  0.00    -0.287 NA
ATOM     10  C   UNL     1      -4.595   2.727  24.350  0.00  0.00    +0.146 C 
ATOM     11  C   UNL     1      -5.086   4.069  24.925  0.00  0.00    +0.030 C 
ATOM     12  C   UNL     1      -5.992   3.695  26.091  0.00  0.00    +0.017 C 
ATOM     13  C   UNL     1      -6.419   2.276  25.769  0.00  0.00    +0.085 C 
BRANCH   5  14
ATOM     14  C   UNL     1      -5.416   0.429  24.564  0.00  0.00    +0.120 C 
BRANCH  14  16
ATOM      1  F   UNL     1      -1.273  -0.889  26.783  0.00  0.00    -0.202 F 
ATOM      2  F   UNL     1      -1.054  -3.086  25.171  0.00  0.00    -0.202 F 
ATOM     16  C   UNL     1      -4.250  -0.510  24.726  0.00  0.00    -0.030 A 
ATOM     17  C   UNL     1      -3.283  -0.259  25.698  0.00  0.00    +0.046 A 
ATOM     18  C   UNL     1      -4.139  -1.631  23.903  0.00  0.00    +0.008 A 
ATOM     20  C   UNL     1      -2.202  -1.130  25.849  0.00  0.00    +0.159 A 
ATOM     21  C   UNL     1      -3.059  -2.502  24.054  0.00  0.00    +0.041 A 
ATOM     23  C   UNL     1      -2.091  -2.251  25.026  0.00  0.00    +0.158 A 
ENDBRANCH  14  16
ENDBRANCH   5  14
ENDBRANCH  15  10
TORSDOF 8
ENDMDL
MODEL 2
REMARK VINA RESULT:       0.1      1.463      2.153
REMARK  Name = 45783476
REMARK  9 active torsions:
REMARK  status: ('A' for Active; 'I' for Inactive)
REMARK    1  A    between atoms: O_4  and  C_29
REMARK    2  A    between atoms: O_4  and  C_30
REMARK    3  A    between atoms: N_5  and  C_14
REMARK    4  A    between atoms: N_9  and  C_27
REMARK    5  A    between atoms: N_9  and  C_28
REMARK    6  A    between atoms: C_10  and  C_15
REMARK    7  A    between atoms: C_14  and  C_16
REMARK    8  A    between atoms: C_19  and  C_22
REMARK    9  A    between atoms: C_28  and  C_29
REMARK                            x       y       z     vdW  Elec       q    Type
REMARK                         _______ _______ _______ _____ _____    ______ ____
ROOT
ATOM      3  O   UNL     1      -3.468   1.684  22.282  0.00  0.00    -0.336 OA
ATOM      6  N   UNL     1      -2.015   2.028  23.951  0.00  0.00    -0.190 NA
ATOM      7  N   UNL     1      -2.235   1.193  21.833  0.00  0.00    -0.056 NA
ATOM     15  C   UNL     1      -3.249   2.157  23.537  0.00  0.00    +0.245 A 
ATOM     19  C   UNL     1      -1.430   1.431  22.872  0.00  0.00    +0.204 A 
ENDROOT
BRANCH  19  22
ATOM      8  N   UNL     1       1.721  -0.387  22.102  0.00  0.00    -0.240 NA
ATOM     22  C   UNL     1      -0.037   1.087  22.864  0.00  0.00    +0.041 A 
ATOM     24  C   UNL     1       0.891   1.843  23.570  0.00  0.00    +0.016 A 
ATOM     25  C   UNL     1       0.424  -0.008  22.152  0.00  0.00    +0.124 A 
ATOM     26  C   UNL     1       2.235   1.485  23.544  0.00  0.00    +0.044 A 
ATOM     27  C   UNL     1       2.595   0.372  22.802  0.00  0.00    +0.119 A 
BRANCH  27   9
ATOM      9  N   UNL     1       3.968   0.021  22.783  0.00  0.00    -0.327 N 
ATOM     31  H   UNL     1       4.197  -0.885  22.390  0.00  0.00    +0.148 HD
BRANCH   9  28
ATOM     28  C   UNL     1       4.989   0.879  23.290  0.00  0.00    +0.131 C 
BRANCH  28  29
ATOM     29  C   UNL     1       6.085   0.054  23.940  0.00  0.00    +0.178 C 
BRANCH  29   4
ATOM      4  O   UNL     1       5.500  -0.933  24.781  0.00  0.00    -0.381 OA
ATOM     30  C   UNL     1       4.998  -2.028  24.028  0.00  0.00    +0.194 C 
ENDBRANCH  29   4
ENDBRANCH  28  29
ENDBRANCH   9  28
ENDBRANCH  27   9
ENDBRANCH  19  22
BRANCH  15  10
ATOM      5  N   UNL     1      -4.630   2.193  25.607  0.00  0.00    -0.287 NA
ATOM     10  C   UNL     1      -4.445   2.750  24.252  0.00  0.00    +0.146 C 
ATOM     11  C   UNL     1      -4.315   4.269  24.469  0.00  0.00    +0.030 C 
ATOM     12  C   UNL     1      -4.501   4.475  25.966  0.00  0.00    +0.017 C 
ATOM     13  C   UNL     1      -5.267   3.242  26.403  0.00  0.00    +0.085 C 
BRANCH   5  14
ATOM     14  C   UNL     1      -5.398   0.954  25.619  0.00  0.00    +0.120 C 
BRANCH  14  16
ATOM      1  F   UNL     1      -4.489  -2.887  22.748  0.00  0.00    -0.202 F 
ATOM      2  F   UNL     1      -2.239  -3.485  24.179  0.00  0.00    -0.202 F 
ATOM     16  C   UNL     1      -4.553  -0.233  25.235  0.00  0.00    -0.030 A 
ATOM     17  C   UNL     1      -4.920  -1.026  24.148  0.00  0.00    +0.046 A 
ATOM     18  C   UNL     1      -3.405  -0.537  25.965  0.00  0.00    +0.008 A 
ATOM     20  C   UNL     1      -4.138  -2.125  23.791  0.00  0.00    +0.159 A 
ATOM     21  C   UNL     1      -2.622  -1.635  25.608  0.00  0.00    +0.041 A 
ATOM     23  C   UNL     1      -2.988  -2.429  24.522  0.00  0.00    +0.158 A 
ENDBRANCH  14  16
ENDBRANCH   5  14
ENDBRANCH  15  10
TORSDOF 8
ENDMDL
MODEL 3
REMARK VINA RESULT:       0.3      2.321      3.839
REMARK  Name = 45783476
REMARK  9 active torsions:
REMARK  status: ('A' for Active; 'I' for Inactive)
REMARK    1  A    between atoms: O_4  and  C_29
REMARK    2  A    between atoms: O_4  and  C_30
REMARK    3  A    between atoms: N_5  and  C_14
REMARK    4  A    between atoms: N_9  and  C_27
REMARK    5  A    between atoms: N_9  and  C_28
REMARK    6  A    between atoms: C_10  and  C_15
REMARK    7  A    between atoms: C_14  and  C_16
REMARK    8  A    between atoms: C_19  and  C_22
REMARK    9  A    between atoms: C_28  and  C_29
REMARK                            x       y       z     vdW  Elec       q    Type
REMARK                         _______ _______ _______ _____ _____    ______ ____
ROOT
ATOM      3  O   UNL     1      -3.493   1.623  23.036  0.00  0.00    -0.336 OA
ATOM      6  N   UNL     1      -2.012   0.888  24.548  0.00  0.00    -0.190 NA
ATOM      7  N   UNL     1      -2.262   1.545  22.370  0.00  0.00    -0.056 NA
ATOM     15  C   UNL     1      -3.256   1.219  24.312  0.00  0.00    +0.245 A 
ATOM     19  C   UNL     1      -1.441   1.103  23.327  0.00  0.00    +0.204 A 
ENDROOT
BRANCH  19  22
ATOM      8  N   UNL     1       1.682  -0.468  22.062  0.00  0.00    -0.240 NA
ATOM     22  C   UNL     1      -0.044   0.870  23.098  0.00  0.00    +0.041 A 
ATOM     24  C   UNL     1       0.922   1.701  23.652  0.00  0.00    +0.016 A 
ATOM     25  C   UNL     1       0.384  -0.192  22.317  0.00  0.00    +0.124 A 
ATOM     26  C   UNL     1       2.269   1.450  23.412  0.00  0.00    +0.044 A 
ATOM     27  C   UNL     1       2.594   0.362  22.618  0.00  0.00    +0.119 A 
BRANCH  27   9
ATOM      9  N   UNL     1       3.969   0.119  22.380  0.00  0.00    -0.327 N 
ATOM     31  H   UNL     1       4.191  -0.586  21.688  0.00  0.00    +0.148 HD
BRANCH   9  28
ATOM     28  C   UNL     1       5.005   0.816  23.073  0.00  0.00    +0.131 C 
BRANCH  28  29
ATOM     29  C   UNL     1       6.007  -0.174  23.640  0.00  0.00    +0.178 C 
BRANCH  29   4
ATOM      4  O   UNL     1       5.363  -1.005  24.599  0.00  0.00    -0.381 OA
ATOM     30  C   UNL     1       4.672  -2.079  23.977  0.00  0.00    +0.194 C 
ENDBRANCH  29   4
ENDBRANCH  28  29
ENDBRANCH   9  28
ENDBRANCH  27   9
ENDBRANCH  19  22
BRANCH  15  10
ATOM      5  N   UNL     1      -5.081   2.539  25.368  0.00  0.00    -0.287 NA
ATOM     10  C   UNL     1      -4.446   1.212  25.249  0.00  0.00    +0.146 C 
ATOM     11  C   UNL     1      -5.575   0.281  24.770  0.00  0.00    +0.030 C 
ATOM     12  C   UNL     1      -6.817   1.159  24.708  0.00  0.00    +0.017 C 
ATOM     13  C   UNL     1      -6.495   2.298  25.656  0.00  0.00    +0.085 C 
BRANCH   5  14
ATOM     14  C   UNL     1      -4.455   3.388  26.375  0.00  0.00    +0.120 C 
BRANCH  14  16
ATOM      1  F   UNL     1       0.423   3.348  26.206  0.00  0.00    -0.202 F 
ATOM      2  F   UNL     1       0.430   5.533  24.563  0.00  0.00    -0.202 F 
ATOM     16  C   UNL     1      -3.150   3.961  25.891  0.00  0.00    -0.030 A 
ATOM     17  C   UNL     1      -1.945   3.378  26.280  0.00  0.00    +0.046 A 
ATOM     18  C   UNL     1      -3.146   5.076  25.052  0.00  0.00    +0.008 A 
ATOM     20  C   UNL     1      -0.734   3.908  25.832  0.00  0.00    +0.159 A 
ATOM     21  C   UNL     1      -1.937   5.607  24.603  0.00  0.00    +0.041 A 
ATOM     23  C   UNL     1      -0.731   5.023  24.993  0.00  0.00    +0.158 A 
ENDBRANCH  14  16
ENDBRANCH   5  14
ENDBRANCH  15  10
TORSDOF 8
ENDMDL
