MODEL 1
REMARK VINA RESULT:       5.8      0.000      0.000
REMARK  Name = 40777157
REMARK  6 active torsions:
REMARK  status: ('A' for Active; 'I' for Inactive)
REMARK    1  A    between atoms: N_7  and  C_18
REMARK    2  A    between atoms: C_12  and  C_19
REMARK    3  A    between atoms: C_13  and  C_18
REMARK    4  A    between atoms: C_21  and  C_24
REMARK    5  A    between atoms: C_23  and  C_25
REMARK    6  A    between atoms: C_34  and  C_35
REMARK                            x       y       z     vdW  Elec       q    Type
REMARK                         _______ _______ _______ _____ _____    ______ ____
ROOT
ATOM      6  N   UNL     1      -4.631   3.349  26.062  0.00  0.00    -0.297 NA
ATOM     11  C   UNL     1      -5.262   1.717  24.134  0.00  0.00    +0.002 C 
ATOM     12  C   UNL     1      -4.505   0.961  25.260  0.00  0.00    +0.055 C 
ATOM     13  C   UNL     1      -4.212   3.921  24.754  0.00  0.00    +0.074 C 
ATOM     14  C   UNL     1      -4.388   2.882  23.625  0.00  0.00    +0.024 C 
ATOM     15  C   UNL     1      -6.517   2.339  24.780  0.00  0.00    +0.019 C 
ATOM     16  C   UNL     1      -3.989   2.027  26.269  0.00  0.00    +0.094 C 
ATOM     17  C   UNL     1      -6.099   3.150  26.020  0.00  0.00    +0.085 C 
ENDROOT
BRANCH  12  19
ATOM      8  N   UNL     1      -3.760  -1.332  24.850  0.00  0.00    -0.237 NA
ATOM     10  N   UNL     1      -1.512  -1.848  24.151  0.00  0.00    -0.232 NA
ATOM     19  C   UNL     1      -3.419  -0.027  24.859  0.00  0.00    +0.050 A 
ATOM     20  C   UNL     1      -2.162   0.439  24.532  0.00  0.00    +0.052 A 
ATOM     21  C   UNL     1      -1.239  -0.527  24.183  0.00  0.00    +0.075 A 
ATOM     23  C   UNL     1      -2.773  -2.176  24.492  0.00  0.00    +0.127 A 
ATOM     25  C   UNL     1      -3.112  -3.628  24.471  0.00  0.00    +0.088 C 
BRANCH  21  24
ATOM     24  C   UNL     1       0.112  -0.169  23.820  0.00  0.00    +0.000 A 
ATOM     30  C   UNL     1       1.036  -1.165  23.504  0.00  0.00    +0.010 A 
ATOM     31  C   UNL     1       0.492   1.172  23.788  0.00  0.00    +0.010 A 
ATOM     32  C   UNL     1       2.341  -0.819  23.155  0.00  0.00    +0.013 A 
ATOM     33  C   UNL     1       1.797   1.518  23.437  0.00  0.00    +0.013 A 
ATOM     34  C   UNL     1       2.722   0.522  23.122  0.00  0.00    +0.055 A 
BRANCH  34  35
ATOM      1  F   UNL     1       5.018   0.731  23.762  0.00  0.00    -0.166 F 
ATOM      2  F   UNL     1       4.228   2.198  22.365  0.00  0.00    -0.166 F 
ATOM      3  F   UNL     1       4.618   0.163  21.707  0.00  0.00    -0.166 F 
ATOM     35  C   UNL     1       4.117   0.893  22.748  0.00  0.00    +0.417 C 
ENDBRANCH  34  35
ENDBRANCH  21  24
ENDBRANCH  12  19
BRANCH  13  18
ATOM     18  C   UNL     1      -2.790   4.484  24.794  0.00  0.00    +0.124 C 
BRANCH  18   7
ATOM      4  O   UNL     1      -0.003   4.099  24.738  0.00  0.00    -0.253 OA
ATOM      5  O   UNL     1       1.416   2.320  29.131  0.00  0.00    -0.377 OA
ATOM      7  N   UNL     1      -2.007   3.837  25.823  0.00  0.00    -0.298 N 
ATOM      9  N   UNL     1      -0.010   3.032  26.797  0.00  0.00    -0.281 N 
ATOM     22  C   UNL     1      -0.629   3.687  25.719  0.00  0.00    +0.302 C 
ATOM     26  C   UNL     1       1.440   2.823  26.768  0.00  0.00    +0.137 C 
ATOM     27  C   UNL     1      -0.693   2.380  27.924  0.00  0.00    +0.137 C 
ATOM     28  C   UNL     1       2.058   3.107  28.128  0.00  0.00    +0.179 C 
ATOM     29  C   UNL     1       0.033   2.661  29.235  0.00  0.00    +0.179 C 
ATOM     36  H   UNL     1      -2.520   3.500  26.624  0.00  0.00    +0.150 HD
ENDBRANCH  18   7
ENDBRANCH  13  18
TORSDOF 5
ENDMDL
MODEL 2
REMARK VINA RESULT:       8.7      2.692      4.336
REMARK  Name = 40777157
REMARK  6 active torsions:
REMARK  status: ('A' for Active; 'I' for Inactive)
REMARK    1  A    between atoms: N_7  and  C_18
REMARK    2  A    between atoms: C_12  and  C_19
REMARK    3  A    between atoms: C_13  and  C_18
REMARK    4  A    between atoms: C_21  and  C_24
REMARK    5  A    between atoms: C_23  and  C_25
REMARK    6  A    between atoms: C_34  and  C_35
REMARK                            x       y       z     vdW  Elec       q    Type
REMARK                         _______ _______ _______ _____ _____    ______ ____
ROOT
ATOM      6  N   UNL     1      -3.717   4.512  24.307  0.00  0.00    -0.297 NA
ATOM     11  C   UNL     1      -1.384   4.062  25.373  0.00  0.00    +0.002 C 
ATOM     12  C   UNL     1      -1.424   3.538  23.911  0.00  0.00    +0.055 C 
ATOM     13  C   UNL     1      -3.882   3.858  25.632  0.00  0.00    +0.074 C 
ATOM     14  C   UNL     1      -2.516   3.396  26.184  0.00  0.00    +0.024 C 
ATOM     15  C   UNL     1      -1.696   5.572  25.313  0.00  0.00    +0.019 C 
ATOM     16  C   UNL     1      -2.894   3.657  23.415  0.00  0.00    +0.094 C 
ATOM     17  C   UNL     1      -2.996   5.789  24.518  0.00  0.00    +0.085 C 
ENDROOT
BRANCH  12  19
ATOM      8  N   UNL     1      -1.697   1.170  23.357  0.00  0.00    -0.237 NA
ATOM     10  N   UNL     1       0.183  -0.314  23.098  0.00  0.00    -0.232 NA
ATOM     19  C   UNL     1      -0.828   2.167  23.622  0.00  0.00    +0.050 A 
ATOM     20  C   UNL     1       0.543   2.003  23.643  0.00  0.00    +0.052 A 
ATOM     21  C   UNL     1       0.996   0.728  23.371  0.00  0.00    +0.075 A 
ATOM     23  C   UNL     1      -1.133  -0.027  23.108  0.00  0.00    +0.127 A 
ATOM     25  C   UNL     1      -2.063  -1.154  22.813  0.00  0.00    +0.088 C 
BRANCH  21  24
ATOM     24  C   UNL     1       2.407   0.425  23.363  0.00  0.00    +0.000 A 
ATOM     30  C   UNL     1       2.850  -0.845  23.731  0.00  0.00    +0.010 A 
ATOM     31  C   UNL     1       3.327   1.404  22.988  0.00  0.00    +0.010 A 
ATOM     32  C   UNL     1       4.214  -1.137  23.724  0.00  0.00    +0.013 A 
ATOM     33  C   UNL     1       4.691   1.112  22.979  0.00  0.00    +0.013 A 
ATOM     34  C   UNL     1       5.134  -0.159  23.349  0.00  0.00    +0.055 A 
BRANCH  34  35
ATOM      1  F   UNL     1       7.032  -1.008  22.165  0.00  0.00    -0.166 F 
ATOM      2  F   UNL     1       6.943  -1.368  24.307  0.00  0.00    -0.166 F 
ATOM      3  F   UNL     1       7.387   0.622  23.552  0.00  0.00    -0.166 F 
ATOM     35  C   UNL     1       6.593  -0.470  23.341  0.00  0.00    +0.417 C 
ENDBRANCH  34  35
ENDBRANCH  21  24
ENDBRANCH  12  19
BRANCH  13  18
ATOM     18  C   UNL     1      -4.897   2.713  25.595  0.00  0.00    +0.124 C 
BRANCH  18   7
ATOM      4  O   UNL     1      -5.646   0.312  24.334  0.00  0.00    -0.253 OA
ATOM      5  O   UNL     1      -2.198  -3.102  25.301  0.00  0.00    -0.377 OA
ATOM      7  N   UNL     1      -4.240   1.435  25.756  0.00  0.00    -0.298 N 
ATOM      9  N   UNL     1      -3.937  -0.875  25.359  0.00  0.00    -0.281 N 
ATOM     22  C   UNL     1      -4.673   0.292  25.095  0.00  0.00    +0.302 C 
ATOM     26  C   UNL     1      -4.329  -2.129  24.710  0.00  0.00    +0.137 C 
ATOM     27  C   UNL     1      -2.869  -1.019  26.359  0.00  0.00    +0.137 C 
ATOM     28  C   UNL     1      -3.109  -2.893  24.222  0.00  0.00    +0.179 C 
ATOM     29  C   UNL     1      -1.719  -1.856  25.809  0.00  0.00    +0.179 C 
ATOM     36  H   UNL     1      -3.446   1.421  26.379  0.00  0.00    +0.150 HD
ENDBRANCH  18   7
ENDBRANCH  13  18
TORSDOF 5
ENDMDL
MODEL 3
REMARK VINA RESULT:       9.3      2.090      4.144
REMARK  Name = 40777157
REMARK  6 active torsions:
REMARK  status: ('A' for Active; 'I' for Inactive)
REMARK    1  A    between atoms: N_7  and  C_18
REMARK    2  A    between atoms: C_12  and  C_19
REMARK    3  A    between atoms: C_13  and  C_18
REMARK    4  A    between atoms: C_21  and  C_24
REMARK    5  A    between atoms: C_23  and  C_25
REMARK    6  A    between atoms: C_34  and  C_35
REMARK                            x       y       z     vdW  Elec       q    Type
REMARK                         _______ _______ _______ _____ _____    ______ ____
ROOT
ATOM      6  N   UNL     1      -3.815  -1.601  26.167  0.00  0.00    -0.297 NA
ATOM     11  C   UNL     1      -3.016  -2.335  23.800  0.00  0.00    +0.002 C 
ATOM     12  C   UNL     1      -1.838  -1.721  24.605  0.00  0.00    +0.055 C 
ATOM     13  C   UNL     1      -4.735  -1.062  25.131  0.00  0.00    +0.074 C 
ATOM     14  C   UNL     1      -4.166  -1.309  23.717  0.00  0.00    +0.024 C 
ATOM     15  C   UNL     1      -3.537  -3.535  24.618  0.00  0.00    +0.019 C 
ATOM     16  C   UNL     1      -2.431  -1.128  25.915  0.00  0.00    +0.094 C 
ATOM     17  C   UNL     1      -3.826  -3.079  26.059  0.00  0.00    +0.085 C 
ENDROOT
BRANCH  12  19
ATOM      8  N   UNL     1      -1.504   0.255  23.203  0.00  0.00    -0.237 NA
ATOM     10  N   UNL     1       0.690   1.045  22.597  0.00  0.00    -0.232 NA
ATOM     19  C   UNL     1      -0.914  -0.741  23.895  0.00  0.00    +0.050 A 
ATOM     20  C   UNL     1       0.453  -0.908  23.983  0.00  0.00    +0.052 A 
ATOM     21  C   UNL     1       1.213   0.025  23.307  0.00  0.00    +0.075 A 
ATOM     23  C   UNL     1      -0.655   1.100  22.587  0.00  0.00    +0.127 A 
ATOM     25  C   UNL     1      -1.271   2.214  21.810  0.00  0.00    +0.088 C 
BRANCH  21  24
ATOM     24  C   UNL     1       2.655  -0.040  23.320  0.00  0.00    +0.000 A 
ATOM     30  C   UNL     1       3.298  -1.188  23.781  0.00  0.00    +0.010 A 
ATOM     31  C   UNL     1       3.405   1.048  22.873  0.00  0.00    +0.010 A 
ATOM     32  C   UNL     1       4.691  -1.250  23.794  0.00  0.00    +0.013 A 
ATOM     33  C   UNL     1       4.799   0.985  22.885  0.00  0.00    +0.013 A 
ATOM     34  C   UNL     1       5.442  -0.164  23.347  0.00  0.00    +0.055 A 
BRANCH  34  35
ATOM      1  F   UNL     1       7.464  -0.817  22.249  0.00  0.00    -0.166 F 
ATOM      2  F   UNL     1       7.415  -0.942  24.418  0.00  0.00    -0.166 F 
ATOM      3  F   UNL     1       7.532   0.996  23.438  0.00  0.00    -0.166 F 
ATOM     35  C   UNL     1       6.931  -0.229  23.360  0.00  0.00    +0.417 C 
ENDBRANCH  34  35
ENDBRANCH  21  24
ENDBRANCH  12  19
BRANCH  13  18
ATOM     18  C   UNL     1      -5.070   0.414  25.359  0.00  0.00    +0.124 C 
BRANCH  18   7
ATOM      4  O   UNL     1      -4.973   3.079  24.462  0.00  0.00    -0.253 OA
ATOM      5  O   UNL     1      -0.417   4.832  25.268  0.00  0.00    -0.377 OA
ATOM      7  N   UNL     1      -3.881   1.232  25.275  0.00  0.00    -0.298 N 
ATOM      9  N   UNL     1      -2.680   3.209  24.789  0.00  0.00    -0.281 N 
ATOM     22  C   UNL     1      -3.918   2.545  24.820  0.00  0.00    +0.302 C 
ATOM     26  C   UNL     1      -2.624   4.594  24.316  0.00  0.00    +0.137 C 
ATOM     27  C   UNL     1      -1.366   2.604  25.049  0.00  0.00    +0.137 C 
ATOM     28  C   UNL     1      -1.710   5.433  25.194  0.00  0.00    +0.179 C 
ATOM     29  C   UNL     1      -0.492   3.542  25.876  0.00  0.00    +0.179 C 
ATOM     36  H   UNL     1      -3.020   0.794  25.566  0.00  0.00    +0.150 HD
ENDBRANCH  18   7
ENDBRANCH  13  18
TORSDOF 5
ENDMDL
