MODEL 1
REMARK VINA RESULT:      11.9      0.000      0.000
REMARK  Name = 11883066
REMARK  10 active torsions:
REMARK  status: ('A' for Active; 'I' for Inactive)
REMARK    1  A    between atoms: O_2  and  C_15
REMARK    2  A    between atoms: O_3  and  C_20
REMARK    3  A    between atoms: N_8  and  C_26
REMARK    4  A    between atoms: C_10  and  C_18
REMARK    5  A    between atoms: C_12  and  C_20
REMARK    6  A    between atoms: C_12  and  C_21
REMARK    7  A    between atoms: C_13  and  C_23
REMARK    8  A    between atoms: C_23  and  C_24
REMARK    9  A    between atoms: C_26  and  C_28
REMARK   10  A    between atoms: C_27  and  C_29
REMARK                            x       y       z     vdW  Elec       q    Type
REMARK                         _______ _______ _______ _____ _____    ______ ____
ROOT
ATOM      1  S   UNL     1       0.504   2.036  26.018  0.00  0.00    -0.057 S 
ATOM      5  O   UNL     1       2.353   0.689  22.002  0.00  0.00    -0.266 OA
ATOM      7  N   UNL     1       0.084   1.775  23.480  0.00  0.00    -0.229 NA
ATOM      9  N   UNL     1       2.249   1.103  24.299  0.00  0.00    -0.258 N 
ATOM     10  C   UNL     1      -3.577   2.808  24.110  0.00  0.00    -0.019 C 
ATOM     11  C   UNL     1      -3.185   3.737  25.343  0.00  0.00    +0.011 C 
ATOM     12  C   UNL     1      -4.371   4.393  26.149  0.00  0.00    +0.021 C 
ATOM     13  C   UNL     1      -2.276   2.621  23.202  0.00  0.00    +0.054 C 
ATOM     14  C   UNL     1      -4.669   3.511  23.262  0.00  0.00    +0.010 C 
ATOM     15  C   UNL     1      -5.392   5.007  25.150  0.00  0.00    +0.123 C 
ATOM     16  C   UNL     1      -2.111   3.061  26.245  0.00  0.00    +0.049 C 
ATOM     17  C   UNL     1      -5.847   4.025  24.077  0.00  0.00    +0.032 C 
ATOM     18  C   UNL     1      -4.104   1.419  24.548  0.00  0.00    +0.012 C 
ATOM     19  C   UNL     1      -1.070   2.286  24.042  0.00  0.00    +0.058 A 
ATOM     21  C   UNL     1      -3.811   5.559  27.014  0.00  0.00    +0.016 C 
ATOM     22  C   UNL     1      -1.012   2.509  25.403  0.00  0.00    +0.015 A 
ATOM     25  C   UNL     1       0.978   1.597  24.427  0.00  0.00    +0.165 A 
ATOM     27  C   UNL     1       2.882   0.673  23.111  0.00  0.00    +0.285 C 
ATOM     41  H   UNL     1       2.775   1.040  25.167  0.00  0.00    +0.157 HD
ENDROOT
BRANCH  27  29
ATOM      6  O   UNL     1       4.378  -1.152  23.677  0.00  0.00    -0.458 OA
ATOM     29  C   UNL     1       4.246   0.143  23.287  0.00  0.00    +0.189 A 
ATOM     32  C   UNL     1       5.480   0.727  23.126  0.00  0.00    +0.054 A 
ATOM     35  C   UNL     1       6.433  -0.273  23.437  0.00  0.00    +0.042 A 
ATOM     37  C   UNL     1       5.712  -1.397  23.767  0.00  0.00    +0.196 A 
ENDBRANCH  27  29
BRANCH  15   2
ATOM      2  O   UNL     1      -6.541   5.496  25.843  0.00  0.00    -0.391 OA
ATOM     38  H   UNL     1      -6.909   4.758  26.358  0.00  0.00    +0.210 HD
ENDBRANCH  15   2
BRANCH  12  20
ATOM     20  C   UNL     1      -5.074   3.442  27.142  0.00  0.00    +0.165 C 
BRANCH  20   3
ATOM      3  O   UNL     1      -6.171   2.856  26.475  0.00  0.00    -0.394 OA
ATOM     39  H   UNL     1      -6.978   3.144  26.937  0.00  0.00    +0.209 HD
ENDBRANCH  20   3
ENDBRANCH  12  20
BRANCH  13  23
ATOM     23  C   UNL     1      -2.445   1.629  22.042  0.00  0.00    +0.106 C 
BRANCH  23  24
ATOM      4  O   UNL     1      -3.497  -0.479  22.592  0.00  0.00    -0.276 OA
ATOM      8  N   UNL     1      -1.202  -0.237  22.866  0.00  0.00    -0.311 N 
ATOM     24  C   UNL     1      -2.473   0.196  22.521  0.00  0.00    +0.214 C 
ATOM     40  H   UNL     1      -0.421   0.409  22.789  0.00  0.00    +0.149 HD
BRANCH   8  26
ATOM     26  C   UNL     1      -0.927  -1.566  23.360  0.00  0.00    +0.139 C 
BRANCH  26  28
ATOM     28  C   UNL     1      -1.776  -1.911  24.549  0.00  0.00    -0.030 A 
ATOM     30  C   UNL     1      -1.711  -1.130  25.703  0.00  0.00    +0.005 A 
ATOM     31  C   UNL     1      -2.631  -3.012  24.500  0.00  0.00    +0.005 A 
ATOM     33  C   UNL     1      -2.501  -1.450  26.807  0.00  0.00    +0.000 A 
ATOM     34  C   UNL     1      -3.421  -3.332  25.605  0.00  0.00    +0.000 A 
ATOM     36  C   UNL     1      -3.355  -2.551  26.759  0.00  0.00    +0.000 A 
ENDBRANCH  26  28
ENDBRANCH   8  26
ENDBRANCH  23  24
ENDBRANCH  13  23
TORSDOF 8
ENDMDL
MODEL 2
REMARK VINA RESULT:      14.0      2.060      4.870
REMARK  Name = 11883066
REMARK  10 active torsions:
REMARK  status: ('A' for Active; 'I' for Inactive)
REMARK    1  A    between atoms: O_2  and  C_15
REMARK    2  A    between atoms: O_3  and  C_20
REMARK    3  A    between atoms: N_8  and  C_26
REMARK    4  A    between atoms: C_10  and  C_18
REMARK    5  A    between atoms: C_12  and  C_20
REMARK    6  A    between atoms: C_12  and  C_21
REMARK    7  A    between atoms: C_13  and  C_23
REMARK    8  A    between atoms: C_23  and  C_24
REMARK    9  A    between atoms: C_26  and  C_28
REMARK   10  A    between atoms: C_27  and  C_29
REMARK                            x       y       z     vdW  Elec       q    Type
REMARK                         _______ _______ _______ _____ _____    ______ ____
ROOT
ATOM      1  S   UNL     1       1.939  -1.751  23.493  0.00  0.00    -0.057 S 
ATOM      5  O   UNL     1       4.950   1.754  23.597  0.00  0.00    -0.266 OA
ATOM      7  N   UNL     1       2.194   0.811  23.741  0.00  0.00    -0.229 NA
ATOM      9  N   UNL     1       4.218  -0.458  23.426  0.00  0.00    -0.258 N 
ATOM     10  C   UNL     1      -1.654   1.067  23.704  0.00  0.00    -0.019 C 
ATOM     11  C   UNL     1      -1.834  -0.362  24.385  0.00  0.00    +0.011 C 
ATOM     12  C   UNL     1      -3.307  -0.902  24.536  0.00  0.00    +0.021 C 
ATOM     13  C   UNL     1      -0.185   1.594  24.047  0.00  0.00    +0.054 C 
ATOM     14  C   UNL     1      -2.683   2.058  24.308  0.00  0.00    +0.010 C 
ATOM     15  C   UNL     1      -4.211   0.228  25.108  0.00  0.00    +0.123 C 
ATOM     16  C   UNL     1      -0.842  -1.404  23.790  0.00  0.00    +0.049 C 
ATOM     17  C   UNL     1      -4.110   1.531  24.325  0.00  0.00    +0.032 C 
ATOM     18  C   UNL     1      -1.842   1.029  22.168  0.00  0.00    +0.012 C 
ATOM     19  C   UNL     1       0.845   0.517  23.820  0.00  0.00    +0.058 A 
ATOM     21  C   UNL     1      -3.317  -2.068  25.566  0.00  0.00    +0.016 C 
ATOM     22  C   UNL     1       0.530  -0.823  23.726  0.00  0.00    +0.015 A 
ATOM     25  C   UNL     1       2.864  -0.306  23.562  0.00  0.00    +0.165 A 
ATOM     27  C   UNL     1       5.199   0.560  23.447  0.00  0.00    +0.285 C 
ATOM     41  H   UNL     1       4.531  -1.415  23.289  0.00  0.00    +0.157 HD
ENDROOT
BRANCH  27  29
ATOM      6  O   UNL     1       6.772  -0.977  22.421  0.00  0.00    -0.458 OA
ATOM     29  C   UNL     1       6.581   0.100  23.228  0.00  0.00    +0.189 A 
ATOM     32  C   UNL     1       7.785   0.567  23.701  0.00  0.00    +0.054 A 
ATOM     35  C   UNL     1       8.779  -0.276  23.149  0.00  0.00    +0.042 A 
ATOM     37  C   UNL     1       8.112  -1.198  22.379  0.00  0.00    +0.196 A 
ENDBRANCH  27  29
BRANCH  15   2
ATOM      2  O   UNL     1      -5.577  -0.187  25.136  0.00  0.00    -0.391 OA
ATOM     38  H   UNL     1      -5.791  -0.434  26.052  0.00  0.00    +0.210 HD
ENDBRANCH  15   2
BRANCH  12  20
ATOM     20  C   UNL     1      -3.911  -1.488  23.241  0.00  0.00    +0.165 C 
BRANCH  20   3
ATOM      3  O   UNL     1      -4.644  -2.641  23.590  0.00  0.00    -0.394 OA
ATOM     39  H   UNL     1      -4.914  -3.075  22.761  0.00  0.00    +0.209 HD
ENDBRANCH  20   3
ENDBRANCH  12  20
BRANCH  13  23
ATOM     23  C   UNL     1       0.204   2.901  23.343  0.00  0.00    +0.106 C 
BRANCH  23  24
ATOM      4  O   UNL     1      -0.462   5.224  23.463  0.00  0.00    -0.276 OA
ATOM      8  N   UNL     1      -1.081   3.764  25.162  0.00  0.00    -0.311 N 
ATOM     24  C   UNL     1      -0.470   4.103  23.965  0.00  0.00    +0.214 C 
ATOM     40  H   UNL     1      -1.012   2.808  25.501  0.00  0.00    +0.149 HD
BRANCH   8  26
ATOM     26  C   UNL     1      -1.801   4.715  25.979  0.00  0.00    +0.139 C 
BRANCH  26  28
ATOM     28  C   UNL     1      -3.286   4.515  25.899  0.00  0.00    -0.030 A 
ATOM     30  C   UNL     1      -4.019   5.130  24.884  0.00  0.00    +0.005 A 
ATOM     31  C   UNL     1      -3.934   3.714  26.839  0.00  0.00    +0.005 A 
ATOM     33  C   UNL     1      -5.399   4.943  24.808  0.00  0.00    +0.000 A 
ATOM     34  C   UNL     1      -5.315   3.528  26.764  0.00  0.00    +0.000 A 
ATOM     36  C   UNL     1      -6.047   4.143  25.749  0.00  0.00    +0.000 A 
ENDBRANCH  26  28
ENDBRANCH   8  26
ENDBRANCH  23  24
ENDBRANCH  13  23
TORSDOF 8
ENDMDL
MODEL 3
REMARK VINA RESULT:      14.6      2.650      4.219
REMARK  Name = 11883066
REMARK  10 active torsions:
REMARK  status: ('A' for Active; 'I' for Inactive)
REMARK    1  A    between atoms: O_2  and  C_15
REMARK    2  A    between atoms: O_3  and  C_20
REMARK    3  A    between atoms: N_8  and  C_26
REMARK    4  A    between atoms: C_10  and  C_18
REMARK    5  A    between atoms: C_12  and  C_20
REMARK    6  A    between atoms: C_12  and  C_21
REMARK    7  A    between atoms: C_13  and  C_23
REMARK    8  A    between atoms: C_23  and  C_24
REMARK    9  A    between atoms: C_26  and  C_28
REMARK   10  A    between atoms: C_27  and  C_29
REMARK                            x       y       z     vdW  Elec       q    Type
REMARK                         _______ _______ _______ _____ _____    ______ ____
ROOT
ATOM      1  S   UNL     1      -0.714  -0.970  24.053  0.00  0.00    -0.057 S 
ATOM      5  O   UNL     1       2.986   1.781  23.723  0.00  0.00    -0.266 OA
ATOM      7  N   UNL     1       0.126   1.472  24.207  0.00  0.00    -0.229 NA
ATOM      9  N   UNL     1       1.770  -0.214  23.692  0.00  0.00    -0.258 N 
ATOM     10  C   UNL     1      -3.548   2.573  24.608  0.00  0.00    -0.019 C 
ATOM     11  C   UNL     1      -3.956   1.219  25.339  0.00  0.00    +0.011 C 
ATOM     12  C   UNL     1      -5.484   1.018  25.672  0.00  0.00    +0.021 C 
ATOM     13  C   UNL     1      -1.969   2.761  24.766  0.00  0.00    +0.054 C 
ATOM     14  C   UNL     1      -4.255   3.767  25.301  0.00  0.00    +0.010 C 
ATOM     15  C   UNL     1      -6.043   2.319  26.317  0.00  0.00    +0.123 C 
ATOM     16  C   UNL     1      -3.295  -0.016  24.660  0.00  0.00    +0.049 C 
ATOM     17  C   UNL     1      -5.751   3.569  25.495  0.00  0.00    +0.032 C 
ATOM     18  C   UNL     1      -3.919   2.580  23.105  0.00  0.00    +0.012 C 
ATOM     19  C   UNL     1      -1.235   1.484  24.448  0.00  0.00    +0.058 A 
ATOM     21  C   UNL     1      -5.629  -0.118  26.725  0.00  0.00    +0.016 C 
ATOM     22  C   UNL     1      -1.847   0.247  24.424  0.00  0.00    +0.015 A 
ATOM     25  C   UNL     1       0.508   0.234  23.979  0.00  0.00    +0.165 A 
ATOM     27  C   UNL     1       2.946   0.561  23.575  0.00  0.00    +0.285 C 
ATOM     41  H   UNL     1       1.846  -1.216  23.543  0.00  0.00    +0.157 HD
ENDROOT
BRANCH  27  29
ATOM      6  O   UNL     1       4.297  -1.450  23.706  0.00  0.00    -0.458 OA
ATOM     29  C   UNL     1       4.157  -0.193  23.209  0.00  0.00    +0.189 A 
ATOM     32  C   UNL     1       5.235   0.138  22.421  0.00  0.00    +0.054 A 
ATOM     35  C   UNL     1       6.093  -0.989  22.434  0.00  0.00    +0.042 A 
ATOM     37  C   UNL     1       5.478  -1.927  23.230  0.00  0.00    +0.196 A 
ENDBRANCH  27  29
BRANCH  15   2
ATOM      2  O   UNL     1      -7.454   2.217  26.512  0.00  0.00    -0.391 OA
ATOM     38  H   UNL     1      -7.602   1.856  27.403  0.00  0.00    +0.210 HD
ENDBRANCH  15   2
BRANCH  12  20
ATOM     20  C   UNL     1      -6.351   0.583  24.470  0.00  0.00    +0.165 C 
BRANCH  20   3
ATOM      3  O   UNL     1      -7.329   1.576  24.261  0.00  0.00    -0.394 OA
ATOM     39  H   UNL     1      -7.084   2.059  23.452  0.00  0.00    +0.209 HD
ENDBRANCH  20   3
ENDBRANCH  12  20
BRANCH  13  23
ATOM     23  C   UNL     1      -1.388   3.951  23.990  0.00  0.00    +0.106 C 
BRANCH  23  24
ATOM      4  O   UNL     1      -0.024   5.837  24.650  0.00  0.00    -0.276 OA
ATOM      8  N   UNL     1       0.392   3.744  25.569  0.00  0.00    -0.311 N 
ATOM     24  C   UNL     1      -0.281   4.641  24.754  0.00  0.00    +0.214 C 
ATOM     40  H   UNL     1       0.113   2.766  25.568  0.00  0.00    +0.149 HD
BRANCH   8  26
ATOM     26  C   UNL     1       1.501   4.123  26.414  0.00  0.00    +0.139 C 
BRANCH  26  28
ATOM     28  C   UNL     1       1.531   3.334  27.691  0.00  0.00    -0.030 A 
ATOM     30  C   UNL     1       0.393   2.648  28.114  0.00  0.00    +0.005 A 
ATOM     31  C   UNL     1       2.698   3.287  28.454  0.00  0.00    +0.005 A 
ATOM     33  C   UNL     1       0.421   1.914  29.300  0.00  0.00    +0.000 A 
ATOM     34  C   UNL     1       2.726   2.553  29.641  0.00  0.00    +0.000 A 
ATOM     36  C   UNL     1       1.587   1.867  30.064  0.00  0.00    +0.000 A 
ENDBRANCH  26  28
ENDBRANCH   8  26
ENDBRANCH  23  24
ENDBRANCH  13  23
TORSDOF 8
ENDMDL
MODEL 4
REMARK VINA RESULT:      15.6      2.806      4.841
REMARK  Name = 11883066
REMARK  10 active torsions:
REMARK  status: ('A' for Active; 'I' for Inactive)
REMARK    1  A    between atoms: O_2  and  C_15
REMARK    2  A    between atoms: O_3  and  C_20
REMARK    3  A    between atoms: N_8  and  C_26
REMARK    4  A    between atoms: C_10  and  C_18
REMARK    5  A    between atoms: C_12  and  C_20
REMARK    6  A    between atoms: C_12  and  C_21
REMARK    7  A    between atoms: C_13  and  C_23
REMARK    8  A    between atoms: C_23  and  C_24
REMARK    9  A    between atoms: C_26  and  C_28
REMARK   10  A    between atoms: C_27  and  C_29
REMARK                            x       y       z     vdW  Elec       q    Type
REMARK                         _______ _______ _______ _____ _____    ______ ____
ROOT
ATOM      1  S   UNL     1       1.178  -1.638  23.471  0.00  0.00    -0.057 S 
ATOM      5  O   UNL     1       4.382   1.689  23.637  0.00  0.00    -0.266 OA
ATOM      7  N   UNL     1       1.587   0.887  23.858  0.00  0.00    -0.229 NA
ATOM      9  N   UNL     1       3.521  -0.466  23.371  0.00  0.00    -0.258 N 
ATOM     10  C   UNL     1      -2.239   1.348  24.021  0.00  0.00    -0.019 C 
ATOM     11  C   UNL     1      -2.467  -0.108  24.624  0.00  0.00    +0.011 C 
ATOM     12  C   UNL     1      -3.961  -0.577  24.813  0.00  0.00    +0.021 C 
ATOM     13  C   UNL     1      -0.729   1.774  24.323  0.00  0.00    +0.054 C 
ATOM     14  C   UNL     1      -3.182   2.354  24.730  0.00  0.00    +0.010 C 
ATOM     15  C   UNL     1      -4.773   0.561  25.493  0.00  0.00    +0.123 C 
ATOM     16  C   UNL     1      -1.563  -1.163  23.921  0.00  0.00    +0.049 C 
ATOM     17  C   UNL     1      -4.635   1.903  24.785  0.00  0.00    +0.032 C 
ATOM     18  C   UNL     1      -2.497   1.415  22.496  0.00  0.00    +0.012 C 
ATOM     19  C   UNL     1       0.229   0.661  23.983  0.00  0.00    +0.058 A 
ATOM     21  C   UNL     1      -3.990  -1.803  25.771  0.00  0.00    +0.016 C 
ATOM     22  C   UNL     1      -0.165  -0.653  23.826  0.00  0.00    +0.015 A 
ATOM     25  C   UNL     1       2.185  -0.251  23.581  0.00  0.00    +0.165 A 
ATOM     27  C   UNL     1       4.557   0.495  23.406  0.00  0.00    +0.285 C 
ATOM     41  H   UNL     1       3.774  -1.428  23.163  0.00  0.00    +0.157 HD
ENDROOT
BRANCH  27  29
ATOM      6  O   UNL     1       6.959   0.521  23.749  0.00  0.00    -0.458 OA
ATOM     29  C   UNL     1       5.900  -0.023  23.093  0.00  0.00    +0.189 A 
ATOM     32  C   UNL     1       6.322  -1.001  22.223  0.00  0.00    +0.054 A 
ATOM     35  C   UNL     1       7.730  -1.063  22.353  0.00  0.00    +0.042 A 
ATOM     37  C   UNL     1       8.069  -0.118  23.292  0.00  0.00    +0.196 A 
ENDBRANCH  27  29
BRANCH  15   2
ATOM      2  O   UNL     1      -6.157   0.218  25.562  0.00  0.00    -0.391 OA
ATOM     38  H   UNL     1      -6.394  -0.219  24.727  0.00  0.00    +0.210 HD
ENDBRANCH  15   2
BRANCH  12  20
ATOM     20  C   UNL     1      -4.654  -1.050  23.516  0.00  0.00    +0.165 C 
BRANCH  20   3
ATOM      3  O   UNL     1      -4.682  -2.460  23.531  0.00  0.00    -0.394 OA
ATOM     39  H   UNL     1      -4.549  -2.762  22.615  0.00  0.00    +0.209 HD
ENDBRANCH  20   3
ENDBRANCH  12  20
BRANCH  13  23
ATOM     23  C   UNL     1      -0.299   3.100  23.680  0.00  0.00    +0.106 C 
BRANCH  23  24
ATOM      4  O   UNL     1      -0.095   5.344  24.559  0.00  0.00    -0.276 OA
ATOM      8  N   UNL     1       0.628   3.542  25.836  0.00  0.00    -0.311 N 
ATOM     24  C   UNL     1       0.074   4.138  24.713  0.00  0.00    +0.214 C 
ATOM     40  H   UNL     1       0.743   2.532  25.856  0.00  0.00    +0.149 HD
BRANCH   8  26
ATOM     26  C   UNL     1       1.082   4.291  26.986  0.00  0.00    +0.139 C 
BRANCH  26  28
ATOM     28  C   UNL     1       1.490   3.394  28.117  0.00  0.00    -0.030 A 
ATOM     30  C   UNL     1       2.832   3.055  28.289  0.00  0.00    +0.005 A 
ATOM     31  C   UNL     1       0.528   2.899  28.997  0.00  0.00    +0.005 A 
ATOM     33  C   UNL     1       3.212   2.222  29.341  0.00  0.00    +0.000 A 
ATOM     34  C   UNL     1       0.908   2.065  30.050  0.00  0.00    +0.000 A 
ATOM     36  C   UNL     1       2.250   1.726  30.221  0.00  0.00    +0.000 A 
ENDBRANCH  26  28
ENDBRANCH   8  26
ENDBRANCH  23  24
ENDBRANCH  13  23
TORSDOF 8
ENDMDL
