MODEL 1
REMARK VINA RESULT:      -4.5      0.000      0.000
REMARK  Name = 75537065
REMARK  3 active torsions:
REMARK  status: ('A' for Active; 'I' for Inactive)
REMARK    1  A    between atoms: N_2  and  C_6
REMARK    2  A    between atoms: N_4  and  C_16
REMARK    3  A    between atoms: C_16  and  C_17
REMARK                            x       y       z     vdW  Elec       q    Type
REMARK                         _______ _______ _______ _____ _____    ______ ____
ROOT
ATOM      1  O   UNL     1      -0.264  -1.782  23.711  0.00  0.00    -0.252 OA
ATOM      2  N   UNL     1      -2.587   2.472  25.205  0.00  0.00    -0.296 NA
ATOM      3  N   UNL     1      -0.908   0.330  24.514  0.00  0.00    -0.278 N 
ATOM      4  N   UNL     1       0.897   0.203  23.183  0.00  0.00    -0.279 N 
ATOM      7  C   UNL     1      -0.373   1.676  24.498  0.00  0.00    +0.109 C 
ATOM      8  C   UNL     1      -1.489   2.688  24.242  0.00  0.00    +0.108 C 
ATOM     12  C   UNL     1      -3.151   1.115  25.067  0.00  0.00    +0.104 C 
ATOM     13  C   UNL     1      -2.084   0.043  25.309  0.00  0.00    +0.125 C 
ATOM     14  C   UNL     1       0.706   1.624  23.417  0.00  0.00    +0.133 C 
ATOM     15  C   UNL     1      -0.109  -0.570  23.795  0.00  0.00    +0.305 C 
ENDROOT
BRANCH   2   6
ATOM      6  C   UNL     1      -3.636   3.452  24.962  0.00  0.00    +0.057 C 
ATOM      9  C   UNL     1      -4.276   3.856  26.309  0.00  0.00    +0.019 C 
ATOM     10  C   UNL     1      -4.955   2.717  24.641  0.00  0.00    +0.019 C 
ATOM     11  C   UNL     1      -5.643   3.713  25.602  0.00  0.00    +0.003 C 
ENDBRANCH   2   6
BRANCH   4  16
ATOM     16  C   UNL     1       1.926  -0.296  22.297  0.00  0.00    +0.146 C 
BRANCH  16  17
ATOM      5  N   UNL     1       4.982  -1.420  24.219  0.00  0.00    -0.263 NA
ATOM     17  C   UNL     1       3.282  -0.271  22.941  0.00  0.00    -0.012 A 
ATOM     18  C   UNL     1       4.085   0.863  22.878  0.00  0.00    +0.008 A 
ATOM     19  C   UNL     1       3.773  -1.376  23.618  0.00  0.00    +0.115 A 
ATOM     20  C   UNL     1       5.336   0.856  23.484  0.00  0.00    +0.020 A 
ATOM     21  C   UNL     1       5.735  -0.299  24.137  0.00  0.00    +0.111 A 
ENDBRANCH  16  17
ENDBRANCH   4  16
TORSDOF 3
ENDMDL
MODEL 2
REMARK VINA RESULT:      -4.4     15.026     17.297
REMARK  Name = 75537065
REMARK  3 active torsions:
REMARK  status: ('A' for Active; 'I' for Inactive)
REMARK    1  A    between atoms: N_2  and  C_6
REMARK    2  A    between atoms: N_4  and  C_16
REMARK    3  A    between atoms: C_16  and  C_17
REMARK                            x       y       z     vdW  Elec       q    Type
REMARK                         _______ _______ _______ _____ _____    ______ ____
ROOT
ATOM      1  O   UNL     1      -3.720 -10.285  16.377  0.00  0.00    -0.252 OA
ATOM      2  N   UNL     1      -5.377 -10.350  11.583  0.00  0.00    -0.296 NA
ATOM      3  N   UNL     1      -4.814 -10.606  14.323  0.00  0.00    -0.278 N 
ATOM      4  N   UNL     1      -6.069 -10.265  16.154  0.00  0.00    -0.279 N 
ATOM      7  C   UNL     1      -6.178 -10.779  13.866  0.00  0.00    +0.109 C 
ATOM      8  C   UNL     1      -6.410  -9.994  12.576  0.00  0.00    +0.108 C 
ATOM     12  C   UNL     1      -4.027 -10.027  12.087  0.00  0.00    +0.104 C 
ATOM     13  C   UNL     1      -3.724 -10.781  13.385  0.00  0.00    +0.125 C 
ATOM     14  C   UNL     1      -7.019 -10.322  15.057  0.00  0.00    +0.133 C 
ATOM     15  C   UNL     1      -4.739 -10.378  15.704  0.00  0.00    +0.305 C 
ENDROOT
BRANCH   2   6
ATOM      6  C   UNL     1      -5.618  -9.608  10.355  0.00  0.00    +0.057 C 
ATOM      9  C   UNL     1      -4.609 -10.065   9.278  0.00  0.00    +0.019 C 
ATOM     10  C   UNL     1      -4.846  -8.272  10.406  0.00  0.00    +0.019 C 
ATOM     11  C   UNL     1      -4.412  -8.567   8.952  0.00  0.00    +0.003 C 
ENDBRANCH   2   6
BRANCH   4  16
ATOM     16  C   UNL     1      -6.480  -9.976  17.510  0.00  0.00    +0.146 C 
BRANCH  16  17
ATOM      5  N   UNL     1     -10.132 -10.537  18.318  0.00  0.00    -0.263 NA
ATOM     17  C   UNL     1      -7.961  -9.744  17.610  0.00  0.00    -0.012 A 
ATOM     18  C   UNL     1      -8.538  -8.579  17.116  0.00  0.00    +0.008 A 
ATOM     19  C   UNL     1      -8.794 -10.683  18.196  0.00  0.00    +0.115 A 
ATOM     20  C   UNL     1      -9.912  -8.392  17.223  0.00  0.00    +0.020 A 
ATOM     21  C   UNL     1     -10.658  -9.392  17.826  0.00  0.00    +0.111 A 
ENDBRANCH  16  17
ENDBRANCH   4  16
TORSDOF 3
ENDMDL
MODEL 3
REMARK VINA RESULT:      -3.5     16.049     17.962
REMARK  Name = 75537065
REMARK  3 active torsions:
REMARK  status: ('A' for Active; 'I' for Inactive)
REMARK    1  A    between atoms: N_2  and  C_6
REMARK    2  A    between atoms: N_4  and  C_16
REMARK    3  A    between atoms: C_16  and  C_17
REMARK                            x       y       z     vdW  Elec       q    Type
REMARK                         _______ _______ _______ _____ _____    ______ ____
ROOT
ATOM      1  O   UNL     1      -4.189 -10.368  14.703  0.00  0.00    -0.252 OA
ATOM      2  N   UNL     1      -6.864 -10.031  10.406  0.00  0.00    -0.296 NA
ATOM      3  N   UNL     1      -5.752 -10.452  12.951  0.00  0.00    -0.278 N 
ATOM      4  N   UNL     1      -6.493  -9.965  15.015  0.00  0.00    -0.279 N 
ATOM      7  C   UNL     1      -7.193 -10.391  12.815  0.00  0.00    +0.109 C 
ATOM      8  C   UNL     1      -7.577  -9.543  11.603  0.00  0.00    +0.108 C 
ATOM     12  C   UNL     1      -5.402  -9.943  10.590  0.00  0.00    +0.104 C 
ATOM     13  C   UNL     1      -4.943 -10.773  11.793  0.00  0.00    +0.125 C 
ATOM     14  C   UNL     1      -7.661  -9.839  14.160  0.00  0.00    +0.133 C 
ATOM     15  C   UNL     1      -5.334 -10.277  14.277  0.00  0.00    +0.305 C 
ENDROOT
BRANCH   2   6
ATOM      6  C   UNL     1      -7.250  -9.226   9.257  0.00  0.00    +0.057 C 
ATOM      9  C   UNL     1      -8.474  -8.361   9.630  0.00  0.00    +0.019 C 
ATOM     10  C   UNL     1      -8.197 -10.046   8.354  0.00  0.00    +0.019 C 
ATOM     11  C   UNL     1      -9.071  -8.775   8.265  0.00  0.00    +0.003 C 
ENDBRANCH   2   6
BRANCH   4  16
ATOM     16  C   UNL     1      -6.539  -9.653  16.426  0.00  0.00    +0.146 C 
BRANCH  16  17
ATOM      5  N   UNL     1     -10.003  -8.436  17.331  0.00  0.00    -0.263 NA
ATOM     17  C   UNL     1      -7.945  -9.647  16.954  0.00  0.00    -0.012 A 
ATOM     18  C   UNL     1      -8.496 -10.781  17.539  0.00  0.00    +0.008 A 
ATOM     19  C   UNL     1      -8.733  -8.510  16.876  0.00  0.00    +0.115 A 
ATOM     20  C   UNL     1      -9.800 -10.745  18.020  0.00  0.00    +0.020 A 
ATOM     21  C   UNL     1     -10.505  -9.559  17.894  0.00  0.00    +0.111 A 
ENDBRANCH  16  17
ENDBRANCH   4  16
TORSDOF 3
ENDMDL
MODEL 4
REMARK VINA RESULT:      -3.1     16.942     18.452
REMARK  Name = 75537065
REMARK  3 active torsions:
REMARK  status: ('A' for Active; 'I' for Inactive)
REMARK    1  A    between atoms: N_2  and  C_6
REMARK    2  A    between atoms: N_4  and  C_16
REMARK    3  A    between atoms: C_16  and  C_17
REMARK                            x       y       z     vdW  Elec       q    Type
REMARK                         _______ _______ _______ _____ _____    ______ ____
ROOT
ATOM      1  O   UNL     1      -4.080  -9.661  11.468  0.00  0.00    -0.252 OA
ATOM      2  N   UNL     1      -8.235  -8.900   8.661  0.00  0.00    -0.296 NA
ATOM      3  N   UNL     1      -6.124  -9.737  10.313  0.00  0.00    -0.278 N 
ATOM      4  N   UNL     1      -6.075 -10.463  12.439  0.00  0.00    -0.279 N 
ATOM      7  C   UNL     1      -7.453 -10.266  10.548  0.00  0.00    +0.109 C 
ATOM      8  C   UNL     1      -8.511  -9.277  10.061  0.00  0.00    +0.108 C 
ATOM     12  C   UNL     1      -6.910  -8.259   8.538  0.00  0.00    +0.104 C 
ATOM     13  C   UNL     1      -5.795  -9.196   9.010  0.00  0.00    +0.125 C 
ATOM     14  C   UNL     1      -7.473 -10.540  12.050  0.00  0.00    +0.133 C 
ATOM     15  C   UNL     1      -5.274  -9.924  11.412  0.00  0.00    +0.305 C 
ENDROOT
BRANCH   2   6
ATOM      6  C   UNL     1      -9.259  -7.971   8.204  0.00  0.00    +0.057 C 
ATOM      9  C   UNL     1      -8.687  -6.536   8.223  0.00  0.00    +0.019 C 
ATOM     10  C   UNL     1     -10.141  -7.556   9.401  0.00  0.00    +0.019 C 
ATOM     11  C   UNL     1     -10.022  -6.108   8.875  0.00  0.00    +0.003 C 
ENDBRANCH   2   6
BRANCH   4  16
ATOM     16  C   UNL     1      -5.634 -10.774  13.780  0.00  0.00    +0.146 C 
BRANCH  16  17
ATOM      5  N   UNL     1      -8.963 -10.463  15.547  0.00  0.00    -0.263 NA
ATOM     17  C   UNL     1      -6.662 -10.401  14.810  0.00  0.00    -0.012 A 
ATOM     18  C   UNL     1      -6.310  -9.676  15.943  0.00  0.00    +0.008 A 
ATOM     19  C   UNL     1      -7.989 -10.767  14.660  0.00  0.00    +0.115 A 
ATOM     20  C   UNL     1      -7.284  -9.345  16.879  0.00  0.00    +0.020 A 
ATOM     21  C   UNL     1      -8.584  -9.758  16.637  0.00  0.00    +0.111 A 
ENDBRANCH  16  17
ENDBRANCH   4  16
TORSDOF 3
ENDMDL
MODEL 5
REMARK VINA RESULT:      -2.3      1.473      1.893
REMARK  Name = 75537065
REMARK  3 active torsions:
REMARK  status: ('A' for Active; 'I' for Inactive)
REMARK    1  A    between atoms: N_2  and  C_6
REMARK    2  A    between atoms: N_4  and  C_16
REMARK    3  A    between atoms: C_16  and  C_17
REMARK                            x       y       z     vdW  Elec       q    Type
REMARK                         _______ _______ _______ _____ _____    ______ ____
ROOT
ATOM      1  O   UNL     1       1.266   1.623  25.096  0.00  0.00    -0.252 OA
ATOM      2  N   UNL     1      -3.399   3.416  24.230  0.00  0.00    -0.296 NA
ATOM      3  N   UNL     1      -0.789   2.378  24.245  0.00  0.00    -0.278 N 
ATOM      4  N   UNL     1       0.082   0.488  23.399  0.00  0.00    -0.279 N 
ATOM      7  C   UNL     1      -1.683   2.018  23.163  0.00  0.00    +0.109 C 
ATOM      8  C   UNL     1      -3.137   2.094  23.627  0.00  0.00    +0.108 C 
ATOM     12  C   UNL     1      -2.526   3.645  25.399  0.00  0.00    +0.104 C 
ATOM     13  C   UNL     1      -1.047   3.582  25.008  0.00  0.00    +0.125 C 
ATOM     14  C   UNL     1      -1.211   0.624  22.753  0.00  0.00    +0.133 C 
ATOM     15  C   UNL     1       0.309   1.513  24.340  0.00  0.00    +0.305 C 
ENDROOT
BRANCH   2   6
ATOM      6  C   UNL     1      -4.790   3.481  24.653  0.00  0.00    +0.057 C 
ATOM      9  C   UNL     1      -4.855   3.427  26.196  0.00  0.00    +0.019 C 
ATOM     10  C   UNL     1      -5.391   2.060  24.651  0.00  0.00    +0.019 C 
ATOM     11  C   UNL     1      -6.009   2.413  26.023  0.00  0.00    +0.003 C 
ENDBRANCH   2   6
BRANCH   4  16
ATOM     16  C   UNL     1       0.933  -0.660  23.178  0.00  0.00    +0.146 C 
BRANCH  16  17
ATOM      5  N   UNL     1       4.672  -0.835  23.719  0.00  0.00    -0.263 NA
ATOM     17  C   UNL     1       2.387  -0.285  23.151  0.00  0.00    -0.012 A 
ATOM     18  C   UNL     1       2.810   0.904  22.569  0.00  0.00    +0.008 A 
ATOM     19  C   UNL     1       3.349  -1.113  23.708  0.00  0.00    +0.115 A 
ATOM     20  C   UNL     1       4.163   1.225  22.560  0.00  0.00    +0.020 A 
ATOM     21  C   UNL     1       5.045   0.330  23.143  0.00  0.00    +0.111 A 
ENDBRANCH  16  17
ENDBRANCH   4  16
TORSDOF 3
ENDMDL
MODEL 6
REMARK VINA RESULT:      -2.1      1.427      7.541
REMARK  Name = 75537065
REMARK  3 active torsions:
REMARK  status: ('A' for Active; 'I' for Inactive)
REMARK    1  A    between atoms: N_2  and  C_6
REMARK    2  A    between atoms: N_4  and  C_16
REMARK    3  A    between atoms: C_16  and  C_17
REMARK                            x       y       z     vdW  Elec       q    Type
REMARK                         _______ _______ _______ _____ _____    ______ ____
ROOT
ATOM      1  O   UNL     1      -1.658  -0.052  26.005  0.00  0.00    -0.252 OA
ATOM      2  N   UNL     1       2.138  -0.055  22.640  0.00  0.00    -0.296 NA
ATOM      3  N   UNL     1      -0.172   0.246  24.210  0.00  0.00    -0.278 N 
ATOM      4  N   UNL     1      -1.182   2.060  25.066  0.00  0.00    -0.279 N 
ATOM      7  C   UNL     1       0.234   1.332  23.341  0.00  0.00    +0.109 C 
ATOM      8  C   UNL     1       1.744   1.289  23.107  0.00  0.00    +0.108 C 
ATOM     12  C   UNL     1       1.794  -1.084  23.641  0.00  0.00    +0.104 C 
ATOM     13  C   UNL     1       0.290  -1.099  23.928  0.00  0.00    +0.125 C 
ATOM     14  C   UNL     1      -0.268   2.580  24.064  0.00  0.00    +0.133 C 
ATOM     15  C   UNL     1      -1.080   0.660  25.193  0.00  0.00    +0.305 C 
ENDROOT
BRANCH   2   6
ATOM      6  C   UNL     1       3.574  -0.078  22.405  0.00  0.00    +0.057 C 
ATOM      9  C   UNL     1       4.266  -0.826  23.566  0.00  0.00    +0.019 C 
ATOM     10  C   UNL     1       4.203   1.217  22.961  0.00  0.00    +0.019 C 
ATOM     11  C   UNL     1       5.305   0.319  23.566  0.00  0.00    +0.003 C 
ENDBRANCH   2   6
BRANCH   4  16
ATOM     16  C   UNL     1      -1.972   2.930  25.909  0.00  0.00    +0.146 C 
BRANCH  16  17
ATOM      5  N   UNL     1      -5.666   3.729  25.782  0.00  0.00    -0.263 NA
ATOM     17  C   UNL     1      -3.442   2.791  25.638  0.00  0.00    -0.012 A 
ATOM     18  C   UNL     1      -3.953   1.654  25.021  0.00  0.00    +0.008 A 
ATOM     19  C   UNL     1      -4.332   3.790  25.996  0.00  0.00    +0.115 A 
ATOM     20  C   UNL     1      -5.320   1.554  24.784  0.00  0.00    +0.020 A 
ATOM     21  C   UNL     1      -6.126   2.609  25.180  0.00  0.00    +0.111 A 
ENDBRANCH  16  17
ENDBRANCH   4  16
TORSDOF 3
ENDMDL
MODEL 7
REMARK VINA RESULT:      -1.8     16.709     18.081
REMARK  Name = 75537065
REMARK  3 active torsions:
REMARK  status: ('A' for Active; 'I' for Inactive)
REMARK    1  A    between atoms: N_2  and  C_6
REMARK    2  A    between atoms: N_4  and  C_16
REMARK    3  A    between atoms: C_16  and  C_17
REMARK                            x       y       z     vdW  Elec       q    Type
REMARK                         _______ _______ _______ _____ _____    ______ ____
ROOT
ATOM      1  O   UNL     1      -3.321  -8.209  10.890  0.00  0.00    -0.252 OA
ATOM      2  N   UNL     1      -7.743  -8.483   8.419  0.00  0.00    -0.296 NA
ATOM      3  N   UNL     1      -5.251  -8.784   9.679  0.00  0.00    -0.278 N 
ATOM      4  N   UNL     1      -4.529 -10.200  11.266  0.00  0.00    -0.279 N 
ATOM      7  C   UNL     1      -6.123  -9.935   9.563  0.00  0.00    +0.109 C 
ATOM      8  C   UNL     1      -7.583  -9.489   9.488  0.00  0.00    +0.108 C 
ATOM     12  C   UNL     1      -6.907  -7.294   8.683  0.00  0.00    +0.104 C 
ATOM     13  C   UNL     1      -5.425  -7.667   8.773  0.00  0.00    +0.125 C 
ATOM     14  C   UNL     1      -5.772 -10.780  10.786  0.00  0.00    +0.133 C 
ATOM     15  C   UNL     1      -4.248  -8.970  10.640  0.00  0.00    +0.305 C 
ENDROOT
BRANCH   2   6
ATOM      6  C   UNL     1      -9.139  -8.078   8.347  0.00  0.00    +0.057 C 
ATOM      9  C   UNL     1      -9.248  -6.570   8.663  0.00  0.00    +0.019 C 
ATOM     10  C   UNL     1      -9.816  -8.338   9.710  0.00  0.00    +0.019 C 
ATOM     11  C   UNL     1     -10.450  -6.936   9.563  0.00  0.00    +0.003 C 
ENDBRANCH   2   6
BRANCH   4  16
ATOM     16  C   UNL     1      -3.785 -10.781  12.362  0.00  0.00    +0.146 C 
BRANCH  16  17
ATOM      5  N   UNL     1      -4.259 -10.264  16.078  0.00  0.00    -0.263 NA
ATOM     17  C   UNL     1      -4.456 -10.543  13.684  0.00  0.00    -0.012 A 
ATOM     18  C   UNL     1      -5.834 -10.384  13.771  0.00  0.00    +0.008 A 
ATOM     19  C   UNL     1      -3.720 -10.475  14.856  0.00  0.00    +0.115 A 
ATOM     20  C   UNL     1      -6.426 -10.165  15.010  0.00  0.00    +0.020 A 
ATOM     21  C   UNL     1      -5.603 -10.114  16.123  0.00  0.00    +0.111 A 
ENDBRANCH  16  17
ENDBRANCH   4  16
TORSDOF 3
ENDMDL
MODEL 8
REMARK VINA RESULT:      -0.9      2.003      7.854
REMARK  Name = 75537065
REMARK  3 active torsions:
REMARK  status: ('A' for Active; 'I' for Inactive)
REMARK    1  A    between atoms: N_2  and  C_6
REMARK    2  A    between atoms: N_4  and  C_16
REMARK    3  A    between atoms: C_16  and  C_17
REMARK                            x       y       z     vdW  Elec       q    Type
REMARK                         _______ _______ _______ _____ _____    ______ ____
ROOT
ATOM      1  O   UNL     1      -1.618   3.850  24.674  0.00  0.00    -0.252 OA
ATOM      2  N   UNL     1       1.819   0.300  23.527  0.00  0.00    -0.296 NA
ATOM      3  N   UNL     1      -0.370   1.906  24.247  0.00  0.00    -0.278 N 
ATOM      4  N   UNL     1      -2.478   2.007  23.478  0.00  0.00    -0.279 N 
ATOM      7  C   UNL     1      -0.616   0.593  23.686  0.00  0.00    +0.109 C 
ATOM      8  C   UNL     1       0.547   0.173  22.788  0.00  0.00    +0.108 C 
ATOM     12  C   UNL     1       2.043   1.696  23.955  0.00  0.00    +0.104 C 
ATOM     13  C   UNL     1       0.911   2.187  24.862  0.00  0.00    +0.125 C 
ATOM     14  C   UNL     1      -1.956   0.750  22.970  0.00  0.00    +0.133 C 
ATOM     15  C   UNL     1      -1.504   2.728  24.197  0.00  0.00    +0.305 C 
ENDROOT
BRANCH   2   6
ATOM      6  C   UNL     1       2.916  -0.117  22.667  0.00  0.00    +0.057 C 
ATOM      9  C   UNL     1       3.956  -0.891  23.508  0.00  0.00    +0.019 C 
ATOM     10  C   UNL     1       3.952   1.023  22.571  0.00  0.00    +0.019 C 
ATOM     11  C   UNL     1       5.035  -0.059  22.778  0.00  0.00    +0.003 C 
ENDBRANCH   2   6
BRANCH   4  16
ATOM     16  C   UNL     1      -3.800   2.483  23.134  0.00  0.00    +0.146 C 
BRANCH  16  17
ATOM      5  N   UNL     1      -5.842   3.691  26.079  0.00  0.00    -0.263 NA
ATOM     17  C   UNL     1      -4.727   2.469  24.315  0.00  0.00    -0.012 A 
ATOM     18  C   UNL     1      -5.320   1.288  24.747  0.00  0.00    +0.008 A 
ATOM     19  C   UNL     1      -5.018   3.633  25.009  0.00  0.00    +0.115 A 
ATOM     20  C   UNL     1      -6.174   1.307  25.844  0.00  0.00    +0.020 A 
ATOM     21  C   UNL     1      -6.401   2.522  26.470  0.00  0.00    +0.111 A 
ENDBRANCH  16  17
ENDBRANCH   4  16
TORSDOF 3
ENDMDL
MODEL 9
REMARK VINA RESULT:      -0.8     16.596     18.025
REMARK  Name = 75537065
REMARK  3 active torsions:
REMARK  status: ('A' for Active; 'I' for Inactive)
REMARK    1  A    between atoms: N_2  and  C_6
REMARK    2  A    between atoms: N_4  and  C_16
REMARK    3  A    between atoms: C_16  and  C_17
REMARK                            x       y       z     vdW  Elec       q    Type
REMARK                         _______ _______ _______ _____ _____    ______ ____
ROOT
ATOM      1  O   UNL     1      -3.161  -7.466  11.176  0.00  0.00    -0.252 OA
ATOM      2  N   UNL     1      -7.029  -9.455   8.567  0.00  0.00    -0.296 NA
ATOM      3  N   UNL     1      -4.618  -8.632   9.749  0.00  0.00    -0.278 N 
ATOM      4  N   UNL     1      -2.965  -9.778  10.748  0.00  0.00    -0.279 N 
ATOM      7  C   UNL     1      -4.705  -9.962   9.183  0.00  0.00    +0.109 C 
ATOM      8  C   UNL     1      -6.151 -10.456   9.205  0.00  0.00    +0.108 C 
ATOM     12  C   UNL     1      -6.968  -8.165   9.283  0.00  0.00    +0.104 C 
ATOM     13  C   UNL     1      -5.541  -7.608   9.302  0.00  0.00    +0.125 C 
ATOM     14  C   UNL     1      -3.734 -10.781  10.032  0.00  0.00    +0.133 C 
ATOM     15  C   UNL     1      -3.532  -8.495  10.624  0.00  0.00    +0.305 C 
ENDROOT
BRANCH   2   6
ATOM      6  C   UNL     1      -8.400  -9.943   8.580  0.00  0.00    +0.057 C 
ATOM      9  C   UNL     1      -9.318  -8.866   9.200  0.00  0.00    +0.019 C 
ATOM     10  C   UNL     1      -8.634 -10.773   9.860  0.00  0.00    +0.019 C 
ATOM     11  C   UNL     1      -9.971 -10.012  10.005  0.00  0.00    +0.003 C 
ENDBRANCH   2   6
BRANCH   4  16
ATOM     16  C   UNL     1      -1.845 -10.130  11.592  0.00  0.00    +0.146 C 
BRANCH  16  17
ATOM      5  N   UNL     1      -4.042 -10.765  14.605  0.00  0.00    -0.263 NA
ATOM     17  C   UNL     1      -2.265 -10.357  13.016  0.00  0.00    -0.012 A 
ATOM     18  C   UNL     1      -1.331 -10.372  14.045  0.00  0.00    +0.008 A 
ATOM     19  C   UNL     1      -3.596 -10.557  13.345  0.00  0.00    +0.115 A 
ATOM     20  C   UNL     1      -1.750 -10.584  15.355  0.00  0.00    +0.020 A 
ATOM     21  C   UNL     1      -3.104 -10.773  15.579  0.00  0.00    +0.111 A 
ENDBRANCH  16  17
ENDBRANCH   4  16
TORSDOF 3
ENDMDL
