MODEL 1
REMARK VINA RESULT:      -3.4      0.000      0.000
REMARK  Name = 45784037
REMARK  12 active torsions:
REMARK  status: ('A' for Active; 'I' for Inactive)
REMARK    1  A    between atoms: O_3  and  C_27
REMARK    2  A    between atoms: O_3  and  C_28
REMARK    3  A    between atoms: N_4  and  C_13
REMARK    4  A    between atoms: N_5  and  C_25
REMARK    5  A    between atoms: C_8  and  C_12
REMARK    6  A    between atoms: C_9  and  C_13
REMARK    7  A    between atoms: C_11  and  C_16
REMARK    8  A    between atoms: C_12  and  C_17
REMARK    9  A    between atoms: C_12  and  C_18
REMARK   10  A    between atoms: C_15  and  C_21
REMARK   11  A    between atoms: C_16  and  C_24
REMARK   12  A    between atoms: C_26  and  C_27
REMARK                            x       y       z     vdW  Elec       q    Type
REMARK                         _______ _______ _______ _____ _____    ______ ____
ROOT
ATOM      8  C   UNL     1      -3.765   3.223  25.672  0.00  0.00    +0.000 C 
ATOM      9  C   UNL     1      -3.772   3.223  24.123  0.00  0.00    +0.029 C 
ATOM     10  C   UNL     1      -2.759   4.256  26.204  0.00  0.00    +0.012 C 
ATOM     11  C   UNL     1      -1.326   3.982  25.709  0.00  0.00    +0.024 C 
ATOM     14  C   UNL     1      -2.393   3.380  23.526  0.00  0.00    -0.023 C 
ATOM     15  C   UNL     1      -1.288   3.705  24.220  0.00  0.00    -0.073 C 
ATOM     21  C   UNL     1       0.043   3.854  23.537  0.00  0.00    +0.039 C 
ENDROOT
BRANCH   8  12
ATOM     12  C   UNL     1      -5.155   3.509  26.246  0.00  0.00    -0.013 C 
ATOM     17  C   UNL     1      -6.002   2.240  26.248  0.00  0.00    +0.007 C 
ATOM     18  C   UNL     1      -5.842   4.616  25.451  0.00  0.00    +0.007 C 
ENDBRANCH   8  12
BRANCH   9  13
ATOM     13  C   UNL     1      -4.425   1.951  23.572  0.00  0.00    +0.092 C 
BRANCH  13   4
ATOM      4  N   UNL     1      -3.784   0.760  24.126  0.00  0.00    -0.299 NA
ATOM      5  N   UNL     1      -3.720  -2.048  24.811  0.00  0.00    -0.303 NA
ATOM     19  C   UNL     1      -3.622  -0.272  23.095  0.00  0.00    +0.100 C 
ATOM     20  C   UNL     1      -4.553   0.234  25.261  0.00  0.00    +0.100 C 
ATOM     22  C   UNL     1      -2.952  -1.522  23.676  0.00  0.00    +0.099 C 
ATOM     23  C   UNL     1      -3.884  -1.015  25.842  0.00  0.00    +0.099 C 
ATOM     25  C   UNL     1      -3.078  -3.238  25.366  0.00  0.00    +0.105 C 
ENDBRANCH  13   4
ENDBRANCH   9  13
BRANCH  11  16
ATOM     16  C   UNL     1      -0.679   2.838  26.497  0.00  0.00    +0.105 C 
BRANCH  16  24
ATOM      2  O   UNL     1       0.155   1.719  24.497  0.00  0.00    -0.421 OA
ATOM      6  N   UNL     1      -1.006   0.390  25.872  0.00  0.00    -0.112 NA
ATOM      7  N   UNL     1      -0.597  -0.367  24.790  0.00  0.00    -0.109 NA
ATOM     24  C   UNL     1      -0.544   1.600  25.658  0.00  0.00    +0.218 A 
ATOM     26  C   UNL     1       0.077   0.448  24.013  0.00  0.00    +0.254 A 
BRANCH  26  27
ATOM     27  C   UNL     1       0.742   0.184  22.732  0.00  0.00    +0.326 C 
BRANCH  27   3
ATOM      3  O   UNL     1       1.669  -0.896  22.868  0.00  0.00    -0.483 OA
BRANCH   3  28
ATOM      1  F   UNL     1       6.902   0.473  23.841  0.00  0.00    -0.205 F 
ATOM     28  C   UNL     1       2.971  -0.556  23.110  0.00  0.00    +0.121 A 
ATOM     29  C   UNL     1       3.447   0.697  22.722  0.00  0.00    +0.048 A 
ATOM     30  C   UNL     1       3.822  -1.460  23.744  0.00  0.00    +0.048 A 
ATOM     31  C   UNL     1       4.775   1.044  22.969  0.00  0.00    +0.042 A 
ATOM     32  C   UNL     1       5.150  -1.113  23.992  0.00  0.00    +0.042 A 
ATOM     33  C   UNL     1       5.626   0.140  23.604  0.00  0.00    +0.124 A 
ENDBRANCH   3  28
ENDBRANCH  27   3
ENDBRANCH  26  27
ENDBRANCH  16  24
ENDBRANCH  11  16
TORSDOF 8
ENDMDL
MODEL 2
REMARK VINA RESULT:      -3.1      2.777      7.309
REMARK  Name = 45784037
REMARK  12 active torsions:
REMARK  status: ('A' for Active; 'I' for Inactive)
REMARK    1  A    between atoms: O_3  and  C_27
REMARK    2  A    between atoms: O_3  and  C_28
REMARK    3  A    between atoms: N_4  and  C_13
REMARK    4  A    between atoms: N_5  and  C_25
REMARK    5  A    between atoms: C_8  and  C_12
REMARK    6  A    between atoms: C_9  and  C_13
REMARK    7  A    between atoms: C_11  and  C_16
REMARK    8  A    between atoms: C_12  and  C_17
REMARK    9  A    between atoms: C_12  and  C_18
REMARK   10  A    between atoms: C_15  and  C_21
REMARK   11  A    between atoms: C_16  and  C_24
REMARK   12  A    between atoms: C_26  and  C_27
REMARK                            x       y       z     vdW  Elec       q    Type
REMARK                         _______ _______ _______ _____ _____    ______ ____
ROOT
ATOM      8  C   UNL     1      -0.451   0.715  24.243  0.00  0.00    +0.000 C 
ATOM      9  C   UNL     1       0.435  -0.490  23.839  0.00  0.00    +0.029 C 
ATOM     10  C   UNL     1      -1.404   0.323  25.382  0.00  0.00    +0.012 C 
ATOM     11  C   UNL     1      -2.324  -0.851  24.993  0.00  0.00    +0.024 C 
ATOM     14  C   UNL     1      -0.316  -1.801  23.839  0.00  0.00    -0.023 C 
ATOM     15  C   UNL     1      -1.552  -1.978  24.338  0.00  0.00    -0.073 C 
ATOM     21  C   UNL     1      -2.217  -3.325  24.308  0.00  0.00    +0.039 C 
ENDROOT
BRANCH   8  12
ATOM     12  C   UNL     1       0.391   1.923  24.664  0.00  0.00    -0.013 C 
ATOM     17  C   UNL     1       0.123   2.276  26.124  0.00  0.00    +0.007 C 
ATOM     18  C   UNL     1       0.100   3.116  23.758  0.00  0.00    +0.007 C 
ENDBRANCH   8  12
BRANCH   9  13
ATOM     13  C   UNL     1       1.077  -0.269  22.464  0.00  0.00    +0.092 C 
BRANCH  13   4
ATOM      4  N   UNL     1       2.532  -0.380  22.550  0.00  0.00    -0.299 NA
ATOM      5  N   UNL     1       5.064  -0.060  23.908  0.00  0.00    -0.303 NA
ATOM     19  C   UNL     1       2.923  -1.267  23.652  0.00  0.00    +0.100 C 
ATOM     20  C   UNL     1       3.147   0.943  22.714  0.00  0.00    +0.100 C 
ATOM     22  C   UNL     1       4.448  -1.383  23.744  0.00  0.00    +0.099 C 
ATOM     23  C   UNL     1       4.672   0.828  22.807  0.00  0.00    +0.099 C 
ATOM     25  C   UNL     1       6.519  -0.171  23.992  0.00  0.00    +0.105 C 
ENDBRANCH  13   4
ENDBRANCH   9  13
BRANCH  11  16
ATOM     16  C   UNL     1      -3.473  -0.377  24.096  0.00  0.00    +0.105 C 
BRANCH  16  24
ATOM      2  O   UNL     1      -4.954   1.549  24.316  0.00  0.00    -0.421 OA
ATOM      6  N   UNL     1      -5.036   0.129  26.044  0.00  0.00    -0.112 NA
ATOM      7  N   UNL     1      -5.916   1.163  26.298  0.00  0.00    -0.109 NA
ATOM     24  C   UNL     1      -4.497   0.396  24.877  0.00  0.00    +0.218 A 
ATOM     26  C   UNL     1      -5.835   1.968  25.265  0.00  0.00    +0.254 A 
BRANCH  26  27
ATOM     27  C   UNL     1      -6.549   3.223  24.998  0.00  0.00    +0.326 C 
BRANCH  27   3
ATOM      3  O   UNL     1      -5.977   4.291  25.760  0.00  0.00    -0.483 OA
BRANCH   3  28
ATOM      1  F   UNL     1      -0.603   5.200  25.054  0.00  0.00    -0.205 F 
ATOM     28  C   UNL     1      -4.641   4.516  25.584  0.00  0.00    +0.121 A 
ATOM     29  C   UNL     1      -4.173   5.021  24.371  0.00  0.00    +0.048 A 
ATOM     30  C   UNL     1      -3.746   4.243  26.618  0.00  0.00    +0.048 A 
ATOM     31  C   UNL     1      -2.808   5.252  24.192  0.00  0.00    +0.042 A 
ATOM     32  C   UNL     1      -2.381   4.474  26.439  0.00  0.00    +0.042 A 
ATOM     33  C   UNL     1      -1.913   4.979  25.226  0.00  0.00    +0.124 A 
ENDBRANCH   3  28
ENDBRANCH  27   3
ENDBRANCH  26  27
ENDBRANCH  16  24
ENDBRANCH  11  16
TORSDOF 8
ENDMDL
MODEL 3
REMARK VINA RESULT:      -2.7      2.728      7.359
REMARK  Name = 45784037
REMARK  12 active torsions:
REMARK  status: ('A' for Active; 'I' for Inactive)
REMARK    1  A    between atoms: O_3  and  C_27
REMARK    2  A    between atoms: O_3  and  C_28
REMARK    3  A    between atoms: N_4  and  C_13
REMARK    4  A    between atoms: N_5  and  C_25
REMARK    5  A    between atoms: C_8  and  C_12
REMARK    6  A    between atoms: C_9  and  C_13
REMARK    7  A    between atoms: C_11  and  C_16
REMARK    8  A    between atoms: C_12  and  C_17
REMARK    9  A    between atoms: C_12  and  C_18
REMARK   10  A    between atoms: C_15  and  C_21
REMARK   11  A    between atoms: C_16  and  C_24
REMARK   12  A    between atoms: C_26  and  C_27
REMARK                            x       y       z     vdW  Elec       q    Type
REMARK                         _______ _______ _______ _____ _____    ______ ____
ROOT
ATOM      8  C   UNL     1      -0.636   0.544  24.489  0.00  0.00    +0.000 C 
ATOM      9  C   UNL     1       0.193  -0.756  24.329  0.00  0.00    +0.029 C 
ATOM     10  C   UNL     1      -1.807   0.318  25.457  0.00  0.00    +0.012 C 
ATOM     11  C   UNL     1      -2.748  -0.805  24.980  0.00  0.00    +0.024 C 
ATOM     14  C   UNL     1      -0.665  -1.999  24.273  0.00  0.00    -0.023 C 
ATOM     15  C   UNL     1      -1.980  -2.037  24.548  0.00  0.00    -0.073 C 
ATOM     21  C   UNL     1      -2.751  -3.326  24.480  0.00  0.00    +0.039 C 
ENDROOT
BRANCH   8  12
ATOM     12  C   UNL     1       0.227   1.710  24.981  0.00  0.00    -0.013 C 
ATOM     17  C   UNL     1      -0.261   2.195  26.343  0.00  0.00    +0.007 C 
ATOM     18  C   UNL     1       0.213   2.848  23.965  0.00  0.00    +0.007 C 
ENDBRANCH   8  12
BRANCH   9  13
ATOM     13  C   UNL     1       1.085  -0.695  23.084  0.00  0.00    +0.092 C 
BRANCH  13   4
ATOM      4  N   UNL     1       2.455  -0.340  23.447  0.00  0.00    -0.299 NA
ATOM      5  N   UNL     1       5.307  -0.270  22.982  0.00  0.00    -0.303 NA
ATOM     19  C   UNL     1       3.041   0.562  22.449  0.00  0.00    +0.100 C 
ATOM     20  C   UNL     1       3.282  -1.543  23.600  0.00  0.00    +0.100 C 
ATOM     22  C   UNL     1       4.479   0.934  22.829  0.00  0.00    +0.099 C 
ATOM     23  C   UNL     1       4.719  -1.173  23.979  0.00  0.00    +0.099 C 
ATOM     25  C   UNL     1       6.677   0.086  23.347  0.00  0.00    +0.105 C 
ENDBRANCH  13   4
ENDBRANCH   9  13
BRANCH  11  16
ATOM     16  C   UNL     1      -3.672  -0.312  23.860  0.00  0.00    +0.105 C 
BRANCH  16  24
ATOM      2  O   UNL     1      -4.603   1.467  25.245  0.00  0.00    -0.421 OA
ATOM      6  N   UNL     1      -6.141   0.212  24.213  0.00  0.00    -0.112 NA
ATOM      7  N   UNL     1      -6.801   1.172  24.956  0.00  0.00    -0.109 NA
ATOM     24  C   UNL     1      -4.860   0.422  24.412  0.00  0.00    +0.218 A 
ATOM     26  C   UNL     1      -5.866   1.882  25.542  0.00  0.00    +0.254 A 
BRANCH  26  27
ATOM     27  C   UNL     1      -5.991   3.032  26.444  0.00  0.00    +0.326 C 
BRANCH  27   3
ATOM      3  O   UNL     1      -5.708   4.246  25.742  0.00  0.00    -0.483 OA
BRANCH   3  28
ATOM      1  F   UNL     1      -0.409   5.349  24.792  0.00  0.00    -0.205 F 
ATOM     28  C   UNL     1      -4.391   4.521  25.506  0.00  0.00    +0.121 A 
ATOM     29  C   UNL     1      -3.457   4.393  26.535  0.00  0.00    +0.048 A 
ATOM     30  C   UNL     1      -3.980   4.928  24.237  0.00  0.00    +0.048 A 
ATOM     31  C   UNL     1      -2.111   4.673  26.293  0.00  0.00    +0.042 A 
ATOM     32  C   UNL     1      -2.634   5.207  23.996  0.00  0.00    +0.042 A 
ATOM     33  C   UNL     1      -1.700   5.080  25.024  0.00  0.00    +0.124 A 
ENDBRANCH   3  28
ENDBRANCH  27   3
ENDBRANCH  26  27
ENDBRANCH  16  24
ENDBRANCH  11  16
TORSDOF 8
ENDMDL
MODEL 4
REMARK VINA RESULT:      -2.3      1.449      3.896
REMARK  Name = 45784037
REMARK  12 active torsions:
REMARK  status: ('A' for Active; 'I' for Inactive)
REMARK    1  A    between atoms: O_3  and  C_27
REMARK    2  A    between atoms: O_3  and  C_28
REMARK    3  A    between atoms: N_4  and  C_13
REMARK    4  A    between atoms: N_5  and  C_25
REMARK    5  A    between atoms: C_8  and  C_12
REMARK    6  A    between atoms: C_9  and  C_13
REMARK    7  A    between atoms: C_11  and  C_16
REMARK    8  A    between atoms: C_12  and  C_17
REMARK    9  A    between atoms: C_12  and  C_18
REMARK   10  A    between atoms: C_15  and  C_21
REMARK   11  A    between atoms: C_16  and  C_24
REMARK   12  A    between atoms: C_26  and  C_27
REMARK                            x       y       z     vdW  Elec       q    Type
REMARK                         _______ _______ _______ _____ _____    ______ ____
ROOT
ATOM      8  C   UNL     1      -3.374   2.259  23.516  0.00  0.00    +0.000 C 
ATOM      9  C   UNL     1      -4.434   3.319  23.909  0.00  0.00    +0.029 C 
ATOM     10  C   UNL     1      -3.989   0.851  23.536  0.00  0.00    +0.012 C 
ATOM     11  C   UNL     1      -4.557   0.484  24.919  0.00  0.00    +0.024 C 
ATOM     14  C   UNL     1      -5.345   2.857  25.023  0.00  0.00    -0.023 C 
ATOM     15  C   UNL     1      -5.404   1.600  25.495  0.00  0.00    -0.073 C 
ATOM     21  C   UNL     1      -6.354   1.228  26.599  0.00  0.00    +0.039 C 
ENDROOT
BRANCH   8  12
ATOM     12  C   UNL     1      -2.772   2.544  22.137  0.00  0.00    -0.013 C 
ATOM     17  C   UNL     1      -3.759   3.326  21.276  0.00  0.00    +0.007 C 
ATOM     18  C   UNL     1      -2.372   1.240  21.452  0.00  0.00    +0.007 C 
ENDBRANCH   8  12
BRANCH   9  13
ATOM     13  C   UNL     1      -3.773   4.644  24.305  0.00  0.00    +0.092 C 
BRANCH  13   4
ATOM      4  N   UNL     1      -2.585   4.404  25.121  0.00  0.00    -0.299 NA
ATOM      5  N   UNL     1      -0.505   2.717  26.210  0.00  0.00    -0.303 NA
ATOM     19  C   UNL     1      -1.467   3.941  24.291  0.00  0.00    +0.100 C 
ATOM     20  C   UNL     1      -2.870   3.433  26.185  0.00  0.00    +0.100 C 
ATOM     22  C   UNL     1      -0.221   3.688  25.146  0.00  0.00    +0.099 C 
ATOM     23  C   UNL     1      -1.624   3.179  27.040  0.00  0.00    +0.099 C 
ATOM     25  C   UNL     1       0.684   2.479  27.027  0.00  0.00    +0.105 C 
ENDBRANCH  13   4
ENDBRANCH   9  13
BRANCH  11  16
ATOM     16  C   UNL     1      -3.437   0.087  25.888  0.00  0.00    +0.105 C 
BRANCH  16  24
ATOM      2  O   UNL     1      -1.414   0.568  24.613  0.00  0.00    -0.421 OA
ATOM      6  N   UNL     1      -1.791  -1.612  24.943  0.00  0.00    -0.112 NA
ATOM      7  N   UNL     1      -0.624  -1.486  24.214  0.00  0.00    -0.109 NA
ATOM     24  C   UNL     1      -2.217  -0.389  25.153  0.00  0.00    +0.218 A 
ATOM     26  C   UNL     1      -0.442  -0.198  24.044  0.00  0.00    +0.254 A 
BRANCH  26  27
ATOM     27  C   UNL     1       0.637   0.511  23.347  0.00  0.00    +0.326 C 
BRANCH  27   3
ATOM      3  O   UNL     1       1.505  -0.422  22.697  0.00  0.00    -0.483 OA
BRANCH   3  28
ATOM      1  F   UNL     1       6.858  -0.027  23.877  0.00  0.00    -0.205 F 
ATOM     28  C   UNL     1       2.836  -0.324  22.991  0.00  0.00    +0.121 A 
ATOM     29  C   UNL     1       3.488  -1.377  23.632  0.00  0.00    +0.048 A 
ATOM     30  C   UNL     1       3.542   0.829  22.648  0.00  0.00    +0.048 A 
ATOM     31  C   UNL     1       4.847  -1.277  23.932  0.00  0.00    +0.042 A 
ATOM     32  C   UNL     1       4.901   0.929  22.947  0.00  0.00    +0.042 A 
ATOM     33  C   UNL     1       5.553  -0.124  23.589  0.00  0.00    +0.124 A 
ENDBRANCH   3  28
ENDBRANCH  27   3
ENDBRANCH  26  27
ENDBRANCH  16  24
ENDBRANCH  11  16
TORSDOF 8
ENDMDL
MODEL 5
REMARK VINA RESULT:      -1.0      3.206      7.569
REMARK  Name = 45784037
REMARK  12 active torsions:
REMARK  status: ('A' for Active; 'I' for Inactive)
REMARK    1  A    between atoms: O_3  and  C_27
REMARK    2  A    between atoms: O_3  and  C_28
REMARK    3  A    between atoms: N_4  and  C_13
REMARK    4  A    between atoms: N_5  and  C_25
REMARK    5  A    between atoms: C_8  and  C_12
REMARK    6  A    between atoms: C_9  and  C_13
REMARK    7  A    between atoms: C_11  and  C_16
REMARK    8  A    between atoms: C_12  and  C_17
REMARK    9  A    between atoms: C_12  and  C_18
REMARK   10  A    between atoms: C_15  and  C_21
REMARK   11  A    between atoms: C_16  and  C_24
REMARK   12  A    between atoms: C_26  and  C_27
REMARK                            x       y       z     vdW  Elec       q    Type
REMARK                         _______ _______ _______ _____ _____    ______ ____
ROOT
ATOM      8  C   UNL     1      -0.686   0.834  24.642  0.00  0.00    +0.000 C 
ATOM      9  C   UNL     1       0.257  -0.272  24.103  0.00  0.00    +0.029 C 
ATOM     10  C   UNL     1      -1.523   0.301  25.815  0.00  0.00    +0.012 C 
ATOM     11  C   UNL     1      -2.377  -0.916  25.414  0.00  0.00    +0.024 C 
ATOM     14  C   UNL     1      -0.392  -1.636  24.070  0.00  0.00    -0.023 C 
ATOM     15  C   UNL     1      -1.573  -1.939  24.638  0.00  0.00    -0.073 C 
ATOM     21  C   UNL     1      -2.136  -3.331  24.566  0.00  0.00    +0.039 C 
ENDROOT
BRANCH   8  12
ATOM     12  C   UNL     1       0.092   2.078  25.082  0.00  0.00    -0.013 C 
ATOM     17  C   UNL     1      -0.133   2.349  26.567  0.00  0.00    +0.007 C 
ATOM     18  C   UNL     1      -0.318   3.285  24.244  0.00  0.00    +0.007 C 
ENDBRANCH   8  12
BRANCH   9  13
ATOM     13  C   UNL     1       0.780   0.079  22.706  0.00  0.00    +0.092 C 
BRANCH  13   4
ATOM      4  N   UNL     1       2.226  -0.117  22.632  0.00  0.00    -0.299 NA
ATOM      5  N   UNL     1       4.899  -0.016  23.730  0.00  0.00    -0.303 NA
ATOM     19  C   UNL     1       2.673  -1.086  23.639  0.00  0.00    +0.100 C 
ATOM     20  C   UNL     1       2.935   1.158  22.798  0.00  0.00    +0.100 C 
ATOM     22  C   UNL     1       4.190  -1.292  23.563  0.00  0.00    +0.099 C 
ATOM     23  C   UNL     1       4.451   0.954  22.723  0.00  0.00    +0.099 C 
ATOM     25  C   UNL     1       6.345  -0.213  23.654  0.00  0.00    +0.105 C 
ENDBRANCH  13   4
ENDBRANCH   9  13
BRANCH  11  16
ATOM     16  C   UNL     1      -3.621  -0.484  24.628  0.00  0.00    +0.105 C 
BRANCH  16  24
ATOM      2  O   UNL     1      -3.774   1.859  23.965  0.00  0.00    -0.421 OA
ATOM      6  N   UNL     1      -2.622   0.577  22.538  0.00  0.00    -0.112 NA
ATOM      7  N   UNL     1      -2.629   1.867  22.043  0.00  0.00    -0.109 NA
ATOM     24  C   UNL     1      -3.302   0.619  23.660  0.00  0.00    +0.218 A 
ATOM     26  C   UNL     1      -3.312   2.581  22.907  0.00  0.00    +0.254 A 
BRANCH  26  27
ATOM     27  C   UNL     1      -3.634   4.013  22.891  0.00  0.00    +0.326 C 
BRANCH  27   3
ATOM      3  O   UNL     1      -3.935   4.468  24.213  0.00  0.00    -0.483 OA
BRANCH   3  28
ATOM      1  F   UNL     1      -7.070   1.163  27.288  0.00  0.00    -0.205 F 
ATOM     28  C   UNL     1      -4.715   3.647  24.978  0.00  0.00    +0.121 A 
ATOM     29  C   UNL     1      -5.808   2.994  24.408  0.00  0.00    +0.048 A 
ATOM     30  C   UNL     1      -4.417   3.460  26.328  0.00  0.00    +0.048 A 
ATOM     31  C   UNL     1      -6.604   2.155  25.188  0.00  0.00    +0.042 A 
ATOM     32  C   UNL     1      -5.212   2.621  27.108  0.00  0.00    +0.042 A 
ATOM     33  C   UNL     1      -6.305   1.968  26.538  0.00  0.00    +0.124 A 
ENDBRANCH   3  28
ENDBRANCH  27   3
ENDBRANCH  26  27
ENDBRANCH  16  24
ENDBRANCH  11  16
TORSDOF 8
ENDMDL
MODEL 6
REMARK VINA RESULT:      -0.1      1.420      3.242
REMARK  Name = 45784037
REMARK  12 active torsions:
REMARK  status: ('A' for Active; 'I' for Inactive)
REMARK    1  A    between atoms: O_3  and  C_27
REMARK    2  A    between atoms: O_3  and  C_28
REMARK    3  A    between atoms: N_4  and  C_13
REMARK    4  A    between atoms: N_5  and  C_25
REMARK    5  A    between atoms: C_8  and  C_12
REMARK    6  A    between atoms: C_9  and  C_13
REMARK    7  A    between atoms: C_11  and  C_16
REMARK    8  A    between atoms: C_12  and  C_17
REMARK    9  A    between atoms: C_12  and  C_18
REMARK   10  A    between atoms: C_15  and  C_21
REMARK   11  A    between atoms: C_16  and  C_24
REMARK   12  A    between atoms: C_26  and  C_27
REMARK                            x       y       z     vdW  Elec       q    Type
REMARK                         _______ _______ _______ _____ _____    ______ ____
ROOT
ATOM      8  C   UNL     1      -2.063   3.254  25.173  0.00  0.00    +0.000 C 
ATOM      9  C   UNL     1      -2.732   2.286  26.181  0.00  0.00    +0.029 C 
ATOM     10  C   UNL     1      -3.090   4.261  24.632  0.00  0.00    +0.012 C 
ATOM     11  C   UNL     1      -4.272   3.566  23.930  0.00  0.00    +0.024 C 
ATOM     14  C   UNL     1      -4.122   1.866  25.762  0.00  0.00    -0.023 C 
ATOM     15  C   UNL     1      -4.819   2.416  24.752  0.00  0.00    -0.073 C 
ATOM     21  C   UNL     1      -6.205   1.943  24.415  0.00  0.00    +0.039 C 
ENDROOT
BRANCH   8  12
ATOM     12  C   UNL     1      -0.884   4.003  25.803  0.00  0.00    -0.013 C 
ATOM     17  C   UNL     1      -0.447   5.158  24.907  0.00  0.00    +0.007 C 
ATOM     18  C   UNL     1       0.278   3.047  26.057  0.00  0.00    +0.007 C 
ENDBRANCH   8  12
BRANCH   9  13
ATOM     13  C   UNL     1      -1.869   1.040  26.409  0.00  0.00    +0.092 C 
BRANCH  13   4
ATOM      4  N   UNL     1      -2.242  -0.024  25.479  0.00  0.00    -0.299 NA
ATOM      5  N   UNL     1      -3.058  -2.724  24.847  0.00  0.00    -0.303 NA
ATOM     19  C   UNL     1      -3.611  -0.486  25.737  0.00  0.00    +0.100 C 
ATOM     20  C   UNL     1      -1.298  -1.145  25.564  0.00  0.00    +0.100 C 
ATOM     22  C   UNL     1      -4.002  -1.602  24.763  0.00  0.00    +0.099 C 
ATOM     23  C   UNL     1      -1.688  -2.262  24.591  0.00  0.00    +0.099 C 
ATOM     25  C   UNL     1      -3.430  -3.787  23.915  0.00  0.00    +0.105 C 
ENDBRANCH  13   4
ENDBRANCH   9  13
BRANCH  11  16
ATOM     16  C   UNL     1      -3.881   3.098  22.524  0.00  0.00    +0.105 C 
BRANCH  16  24
ATOM      2  O   UNL     1      -1.587   2.398  22.972  0.00  0.00    -0.421 OA
ATOM      6  N   UNL     1      -2.931   0.745  22.288  0.00  0.00    -0.112 NA
ATOM      7  N   UNL     1      -1.674   0.213  22.504  0.00  0.00    -0.109 NA
ATOM     24  C   UNL     1      -2.833   2.023  22.574  0.00  0.00    +0.218 A 
ATOM     26  C   UNL     1      -0.922   1.213  22.901  0.00  0.00    +0.254 A 
BRANCH  26  27
ATOM     27  C   UNL     1       0.498   1.225  23.273  0.00  0.00    +0.326 C 
BRANCH  27   3
ATOM      3  O   UNL     1       1.155   0.062  22.763  0.00  0.00    -0.483 OA
BRANCH   3  28
ATOM      1  F   UNL     1       6.559  -0.307  23.689  0.00  0.00    -0.205 F 
ATOM     28  C   UNL     1       2.499  -0.030  22.993  0.00  0.00    +0.121 A 
ATOM     29  C   UNL     1       3.038  -1.207  23.514  0.00  0.00    +0.048 A 
ATOM     30  C   UNL     1       3.331   1.052  22.708  0.00  0.00    +0.048 A 
ATOM     31  C   UNL     1       4.410  -1.300  23.748  0.00  0.00    +0.042 A 
ATOM     32  C   UNL     1       4.703   0.959  22.942  0.00  0.00    +0.042 A 
ATOM     33  C   UNL     1       5.242  -0.218  23.463  0.00  0.00    +0.124 A 
ENDBRANCH   3  28
ENDBRANCH  27   3
ENDBRANCH  26  27
ENDBRANCH  16  24
ENDBRANCH  11  16
TORSDOF 8
ENDMDL
MODEL 7
REMARK VINA RESULT:      -0.1      2.782      5.905
REMARK  Name = 45784037
REMARK  12 active torsions:
REMARK  status: ('A' for Active; 'I' for Inactive)
REMARK    1  A    between atoms: O_3  and  C_27
REMARK    2  A    between atoms: O_3  and  C_28
REMARK    3  A    between atoms: N_4  and  C_13
REMARK    4  A    between atoms: N_5  and  C_25
REMARK    5  A    between atoms: C_8  and  C_12
REMARK    6  A    between atoms: C_9  and  C_13
REMARK    7  A    between atoms: C_11  and  C_16
REMARK    8  A    between atoms: C_12  and  C_17
REMARK    9  A    between atoms: C_12  and  C_18
REMARK   10  A    between atoms: C_15  and  C_21
REMARK   11  A    between atoms: C_16  and  C_24
REMARK   12  A    between atoms: C_26  and  C_27
REMARK                            x       y       z     vdW  Elec       q    Type
REMARK                         _______ _______ _______ _____ _____    ______ ____
ROOT
ATOM      8  C   UNL     1      -2.617   2.605  23.521  0.00  0.00    +0.000 C 
ATOM      9  C   UNL     1      -1.077   2.595  23.347  0.00  0.00    +0.029 C 
ATOM     10  C   UNL     1      -3.149   4.046  23.509  0.00  0.00    +0.012 C 
ATOM     11  C   UNL     1      -2.526   4.906  24.625  0.00  0.00    +0.024 C 
ATOM     14  C   UNL     1      -0.390   3.709  24.103  0.00  0.00    -0.023 C 
ATOM     15  C   UNL     1      -1.021   4.741  24.691  0.00  0.00    -0.073 C 
ATOM     21  C   UNL     1      -0.253   5.814  25.411  0.00  0.00    +0.039 C 
ENDROOT
BRANCH   8  12
ATOM     12  C   UNL     1      -3.315   1.785  22.433  0.00  0.00    -0.013 C 
ATOM     17  C   UNL     1      -3.202   0.293  22.735  0.00  0.00    +0.007 C 
ATOM     18  C   UNL     1      -2.724   2.105  21.063  0.00  0.00    +0.007 C 
ENDBRANCH   8  12
BRANCH   9  13
ATOM     13  C   UNL     1      -0.480   1.248  23.770  0.00  0.00    +0.092 C 
BRANCH  13   4
ATOM      4  N   UNL     1       0.809   1.027  23.120  0.00  0.00    -0.299 NA
ATOM      5  N   UNL     1       3.557   0.126  23.085  0.00  0.00    -0.303 NA
ATOM     19  C   UNL     1       1.142  -0.402  23.093  0.00  0.00    +0.100 C 
ATOM     20  C   UNL     1       1.870   1.788  23.793  0.00  0.00    +0.100 C 
ATOM     22  C   UNL     1       2.495  -0.634  22.412  0.00  0.00    +0.099 C 
ATOM     23  C   UNL     1       3.223   1.556  23.114  0.00  0.00    +0.099 C 
ATOM     25  C   UNL     1       4.846  -0.093  22.433  0.00  0.00    +0.105 C 
ENDBRANCH  13   4
ENDBRANCH   9  13
BRANCH  11  16
ATOM     16  C   UNL     1      -3.172   4.601  25.982  0.00  0.00    +0.105 C 
BRANCH  16  24
ATOM      2  O   UNL     1      -4.103   2.359  25.739  0.00  0.00    -0.421 OA
ATOM      6  N   UNL     1      -5.636   3.988  25.779  0.00  0.00    -0.112 NA
ATOM      7  N   UNL     1      -6.297   2.782  25.639  0.00  0.00    -0.109 NA
ATOM     24  C   UNL     1      -4.358   3.693  25.833  0.00  0.00    +0.218 A 
ATOM     26  C   UNL     1      -5.364   1.860  25.620  0.00  0.00    +0.254 A 
BRANCH  26  27
ATOM     27  C   UNL     1      -5.490   0.403  25.495  0.00  0.00    +0.326 C 
BRANCH  27   3
ATOM      3  O   UNL     1      -4.489  -0.251  26.281  0.00  0.00    -0.483 OA
BRANCH   3  28
ATOM      1  F   UNL     1      -1.050  -3.586  23.587  0.00  0.00    -0.205 F 
ATOM     28  C   UNL     1      -3.634  -1.080  25.610  0.00  0.00    +0.121 A 
ATOM     29  C   UNL     1      -2.258  -0.981  25.821  0.00  0.00    +0.048 A 
ATOM     30  C   UNL     1      -4.137  -2.026  24.717  0.00  0.00    +0.048 A 
ATOM     31  C   UNL     1      -1.386  -1.827  25.137  0.00  0.00    +0.042 A 
ATOM     32  C   UNL     1      -3.264  -2.873  24.034  0.00  0.00    +0.042 A 
ATOM     33  C   UNL     1      -1.888  -2.774  24.244  0.00  0.00    +0.124 A 
ENDBRANCH   3  28
ENDBRANCH  27   3
ENDBRANCH  26  27
ENDBRANCH  16  24
ENDBRANCH  11  16
TORSDOF 8
ENDMDL
