MODEL 1
REMARK VINA RESULT:      -2.8      0.000      0.000
REMARK  Name = 71693633
REMARK  8 active torsions:
REMARK  status: ('A' for Active; 'I' for Inactive)
REMARK    1  A    between atoms: O_2  and  C_10
REMARK    2  A    between atoms: N_5  and  C_13
REMARK    3  A    between atoms: N_6  and  C_18
REMARK    4  A    between atoms: C_7  and  C_10
REMARK    5  A    between atoms: C_8  and  C_9
REMARK    6  A    between atoms: C_19  and  C_20
REMARK    7  A    between atoms: C_19  and  C_21
REMARK    8  A    between atoms: C_21  and  C_22
REMARK                            x       y       z     vdW  Elec       q    Type
REMARK                         _______ _______ _______ _____ _____    ______ ____
ROOT
ATOM      9  C   UNL     1      -5.482 -10.384  13.381  0.00  0.00    -0.017 A 
ATOM     14  C   UNL     1      -6.809  -9.957  13.440  0.00  0.00    +0.008 A 
ATOM     15  C   UNL     1      -4.826 -10.456  12.153  0.00  0.00    +0.008 A 
ATOM     16  C   UNL     1      -7.479  -9.603  12.268  0.00  0.00    +0.023 A 
ATOM     17  C   UNL     1      -5.496 -10.102  10.982  0.00  0.00    +0.023 A 
ATOM     18  C   UNL     1      -6.823  -9.675  11.040  0.00  0.00    +0.033 A 
ENDROOT
BRANCH   9   8
ATOM      1  O   UNL     1      -3.425 -10.256  14.545  0.00  0.00    -0.361 OA
ATOM      3  O   UNL     1      -2.309 -10.607  17.910  0.00  0.00    -0.273 OA
ATOM      5  N   UNL     1      -4.487 -10.394  17.106  0.00  0.00    -0.295 N 
ATOM      7  C   UNL     1      -5.381 -10.194  15.938  0.00  0.00    +0.134 C 
ATOM      8  C   UNL     1      -4.754 -10.768  14.652  0.00  0.00    +0.171 C 
ATOM     11  C   UNL     1      -2.602 -10.780  15.559  0.00  0.00    +0.256 C 
ATOM     12  C   UNL     1      -3.108 -10.565  16.971  0.00  0.00    +0.242 C 
ATOM     13  C   UNL     1      -5.036 -10.165  18.439  0.00  0.00    +0.132 C 
BRANCH   7  10
ATOM     10  C   UNL     1      -6.782 -10.781  16.164  0.00  0.00    +0.181 C 
BRANCH  10   2
ATOM      2  O   UNL     1      -7.650  -9.725  16.521  0.00  0.00    -0.393 OA
ATOM     28  H   UNL     1      -7.220  -8.895  16.254  0.00  0.00    +0.209 HD
ENDBRANCH  10   2
ENDBRANCH   7  10
ENDBRANCH   9   8
BRANCH  18   6
ATOM      4  O   UNL     1      -9.588 -10.372  10.088  0.00  0.00    -0.275 OA
ATOM      6  N   UNL     1      -7.493  -9.320   9.869  0.00  0.00    -0.285 N 
ATOM     20  C   UNL     1      -8.794  -9.663   9.477  0.00  0.00    +0.218 C 
ATOM     29  H   UNL     1      -6.964  -8.734   9.226  0.00  0.00    +0.155 HD
BRANCH  20  19
ATOM     19  C   UNL     1      -9.168  -9.080   8.124  0.00  0.00    +0.101 C 
BRANCH  19  21
ATOM     21  C   UNL     1     -10.278  -8.035   8.246  0.00  0.00    +0.044 C 
BRANCH  21  22
ATOM     22  C   UNL     1      -9.760  -6.626   8.407  0.00  0.00    -0.047 A 
ATOM     23  C   UNL     1     -10.647  -5.584   8.680  0.00  0.00    +0.003 A 
ATOM     24  C   UNL     1      -8.395  -6.367   8.284  0.00  0.00    +0.003 A 
ATOM     25  C   UNL     1     -10.168  -4.283   8.829  0.00  0.00    +0.000 A 
ATOM     26  C   UNL     1      -7.917  -5.065   8.434  0.00  0.00    +0.000 A 
ATOM     27  C   UNL     1      -8.803  -4.023   8.707  0.00  0.00    +0.000 A 
ENDBRANCH  21  22
ENDBRANCH  19  21
ENDBRANCH  20  19
ENDBRANCH  18   6
TORSDOF 7
ENDMDL
