MODEL 1
REMARK VINA RESULT:      -0.1      0.000      0.000
REMARK  Name = 25391126
REMARK  6 active torsions:
REMARK  status: ('A' for Active; 'I' for Inactive)
REMARK    1  A    between atoms: N_7  and  C_21
REMARK    2  A    between atoms: C_10  and  C_14
REMARK    3  A    between atoms: C_11  and  C_20
REMARK    4  A    between atoms: C_21  and  C_22
REMARK    5  A    between atoms: C_21  and  C_24
REMARK    6  A    between atoms: C_22  and  C_23
REMARK                            x       y       z     vdW  Elec       q    Type
REMARK                         _______ _______ _______ _____ _____    ______ ____
ROOT
ATOM      2  O   UNL     1      -4.514   0.136  26.135  0.00  0.00    -0.274 OA
ATOM      7  N   UNL     1      -3.394  -0.146  24.113  0.00  0.00    -0.302 N 
ATOM     20  C   UNL     1      -4.310   0.448  24.964  0.00  0.00    +0.235 C 
ATOM     34  H   UNL     1      -3.353   0.147  23.142  0.00  0.00    +0.150 HD
ENDROOT
BRANCH  20  11
ATOM      1  O   UNL     1      -2.982   3.044  23.074  0.00  0.00    -0.275 OA
ATOM      4  N   UNL     1      -4.483   2.818  24.837  0.00  0.00    -0.287 N 
ATOM      6  N   UNL     1      -6.966   1.807  25.881  0.00  0.00    -0.312 NA
ATOM     11  C   UNL     1      -5.051   1.575  24.304  0.00  0.00    +0.176 C 
ATOM     14  C   UNL     1      -3.405   3.413  24.173  0.00  0.00    +0.219 C 
ATOM     15  C   UNL     1      -4.992   3.253  26.145  0.00  0.00    +0.123 C 
ATOM     16  C   UNL     1      -6.562   1.468  24.514  0.00  0.00    +0.113 C 
ATOM     19  C   UNL     1      -6.510   3.150  26.230  0.00  0.00    +0.100 C 
ATOM     33  H   UNL     1      -6.550   1.136  26.527  0.00  0.00    +0.122 HD
BRANCH  14  10
ATOM      5  N   UNL     1      -0.012   3.864  25.664  0.00  0.00    -0.316 NA
ATOM     10  C   UNL     1      -2.744   4.572  24.864  0.00  0.00    +0.078 C 
ATOM     12  C   UNL     1      -1.512   5.039  24.087  0.00  0.00    +0.028 C 
ATOM     13  C   UNL     1      -2.377   4.210  26.305  0.00  0.00    +0.028 C 
ATOM     17  C   UNL     1      -0.325   4.088  24.254  0.00  0.00    +0.081 C 
ATOM     18  C   UNL     1      -1.154   3.294  26.378  0.00  0.00    +0.081 C 
ATOM     32  H   UNL     1       0.782   3.230  25.737  0.00  0.00    +0.122 HD
ENDBRANCH  14  10
ENDBRANCH  20  11
BRANCH   7  21
ATOM     21  C   UNL     1      -2.537  -1.239  24.512  0.00  0.00    +0.163 C 
BRANCH  21  24
ATOM      3  O   UNL     1      -3.308  -3.395  25.329  0.00  0.00    -0.274 OA
ATOM      9  N   UNL     1      -4.286  -2.523  23.443  0.00  0.00    -0.328 N 
ATOM     24  C   UNL     1      -3.384  -2.504  24.486  0.00  0.00    +0.231 C 
ATOM     36  H   UNL     1      -4.353  -1.768  22.767  0.00  0.00    +0.145 HD
ATOM     37  H   UNL     1      -4.921  -3.304  23.318  0.00  0.00    +0.145 HD
ENDBRANCH  21  24
BRANCH  21  22
ATOM     22  C   UNL     1      -1.323  -1.391  23.589  0.00  0.00    +0.069 C 
BRANCH  22  23
ATOM      8  N   UNL     1       0.907   1.268  24.820  0.00  0.00    -0.360 N 
ATOM     23  C   UNL     1      -0.246  -0.371  23.868  0.00  0.00    -0.020 A 
ATOM     25  C   UNL     1       0.932  -0.152  23.100  0.00  0.00    +0.003 A 
ATOM     26  C   UNL     1      -0.233   0.517  24.919  0.00  0.00    +0.087 A 
ATOM     27  C   UNL     1       1.638   0.882  23.719  0.00  0.00    +0.047 A 
ATOM     28  C   UNL     1       1.466  -0.736  21.935  0.00  0.00    +0.010 A 
ATOM     29  C   UNL     1       2.857   1.363  23.228  0.00  0.00    +0.026 A 
ATOM     30  C   UNL     1       2.686  -0.265  21.433  0.00  0.00    +0.001 A 
ATOM     31  C   UNL     1       3.368   0.768  22.072  0.00  0.00    +0.002 A 
ATOM     35  H   UNL     1       1.175   2.003  25.461  0.00  0.00    +0.165 HD
ENDBRANCH  22  23
ENDBRANCH  21  22
ENDBRANCH   7  21
TORSDOF 6
ENDMDL
MODEL 2
REMARK VINA RESULT:       0.1      1.809      5.044
REMARK  Name = 25391126
REMARK  6 active torsions:
REMARK  status: ('A' for Active; 'I' for Inactive)
REMARK    1  A    between atoms: N_7  and  C_21
REMARK    2  A    between atoms: C_10  and  C_14
REMARK    3  A    between atoms: C_11  and  C_20
REMARK    4  A    between atoms: C_21  and  C_22
REMARK    5  A    between atoms: C_21  and  C_24
REMARK    6  A    between atoms: C_22  and  C_23
REMARK                            x       y       z     vdW  Elec       q    Type
REMARK                         _______ _______ _______ _____ _____    ______ ____
ROOT
ATOM      2  O   UNL     1      -3.816   3.470  25.810  0.00  0.00    -0.274 OA
ATOM      7  N   UNL     1      -3.940   1.577  24.459  0.00  0.00    -0.302 N 
ATOM     20  C   UNL     1      -3.452   2.818  24.834  0.00  0.00    +0.235 C 
ATOM     34  H   UNL     1      -3.616   1.155  23.595  0.00  0.00    +0.150 HD
ENDROOT
BRANCH  20  11
ATOM      1  O   UNL     1      -1.590   0.955  22.568  0.00  0.00    -0.275 OA
ATOM      4  N   UNL     1      -1.169   2.531  24.226  0.00  0.00    -0.287 N 
ATOM      6  N   UNL     1      -1.478   5.196  25.267  0.00  0.00    -0.312 NA
ATOM     11  C   UNL     1      -2.373   3.308  23.911  0.00  0.00    +0.176 C 
ATOM     14  C   UNL     1      -0.930   1.338  23.538  0.00  0.00    +0.219 C 
ATOM     15  C   UNL     1      -0.386   2.993  25.382  0.00  0.00    +0.123 C 
ATOM     16  C   UNL     1      -2.162   4.818  24.028  0.00  0.00    +0.113 C 
ATOM     19  C   UNL     1      -0.195   4.505  25.374  0.00  0.00    +0.100 C 
ATOM     33  H   UNL     1      -2.063   4.939  26.062  0.00  0.00    +0.122 HD
BRANCH  14  10
ATOM      5  N   UNL     1       2.394   0.474  22.074  0.00  0.00    -0.316 NA
ATOM     10  C   UNL     1       0.210   0.492  24.032  0.00  0.00    +0.078 C 
ATOM     12  C   UNL     1       1.477   1.333  24.204  0.00  0.00    +0.028 C 
ATOM     13  C   UNL     1       0.461  -0.688  23.091  0.00  0.00    +0.028 C 
ATOM     17  C   UNL     1       2.133   1.675  22.866  0.00  0.00    +0.081 C 
ATOM     18  C   UNL     1       1.160  -0.261  21.800  0.00  0.00    +0.081 C 
ATOM     32  H   UNL     1       2.832   0.738  21.194  0.00  0.00    +0.122 HD
ENDBRANCH  14  10
ENDBRANCH  20  11
BRANCH   7  21
ATOM     21  C   UNL     1      -4.967   0.877  25.195  0.00  0.00    +0.163 C 
BRANCH  21  24
ATOM      3  O   UNL     1      -6.937   2.080  24.435  0.00  0.00    -0.274 OA
ATOM      9  N   UNL     1      -6.258   2.349  26.613  0.00  0.00    -0.328 N 
ATOM     24  C   UNL     1      -6.144   1.830  25.340  0.00  0.00    +0.231 C 
ATOM     36  H   UNL     1      -5.608   2.115  27.356  0.00  0.00    +0.145 HD
ATOM     37  H   UNL     1      -7.009   2.989  26.849  0.00  0.00    +0.145 HD
ENDBRANCH  21  24
BRANCH  21  22
ATOM     22  C   UNL     1      -5.407  -0.412  24.491  0.00  0.00    +0.069 C 
BRANCH  22  23
ATOM      8  N   UNL     1      -3.090  -3.152  23.664  0.00  0.00    -0.360 N 
ATOM     23  C   UNL     1      -4.286  -1.410  24.345  0.00  0.00    -0.020 A 
ATOM     25  C   UNL     1      -3.048  -1.403  25.048  0.00  0.00    +0.003 A 
ATOM     26  C   UNL     1      -4.282  -2.498  23.502  0.00  0.00    +0.087 A 
ATOM     27  C   UNL     1      -2.316  -2.506  24.602  0.00  0.00    +0.047 A 
ATOM     28  C   UNL     1      -2.479  -0.561  26.023  0.00  0.00    +0.010 A 
ATOM     29  C   UNL     1      -1.038  -2.810  25.085  0.00  0.00    +0.026 A 
ATOM     30  C   UNL     1      -1.201  -0.852  26.515  0.00  0.00    +0.001 A 
ATOM     31  C   UNL     1      -0.494  -1.961  26.051  0.00  0.00    +0.002 A 
ATOM     35  H   UNL     1      -2.817  -3.989  23.168  0.00  0.00    +0.165 HD
ENDBRANCH  22  23
ENDBRANCH  21  22
ENDBRANCH   7  21
TORSDOF 6
ENDMDL
MODEL 3
REMARK VINA RESULT:       0.1      1.906      5.275
REMARK  Name = 25391126
REMARK  6 active torsions:
REMARK  status: ('A' for Active; 'I' for Inactive)
REMARK    1  A    between atoms: N_7  and  C_21
REMARK    2  A    between atoms: C_10  and  C_14
REMARK    3  A    between atoms: C_11  and  C_20
REMARK    4  A    between atoms: C_21  and  C_22
REMARK    5  A    between atoms: C_21  and  C_24
REMARK    6  A    between atoms: C_22  and  C_23
REMARK                            x       y       z     vdW  Elec       q    Type
REMARK                         _______ _______ _______ _____ _____    ______ ____
ROOT
ATOM      2  O   UNL     1      -0.136  -1.656  25.031  0.00  0.00    -0.274 OA
ATOM      7  N   UNL     1      -0.084  -0.029  23.366  0.00  0.00    -0.302 N 
ATOM     20  C   UNL     1      -0.676  -1.024  24.127  0.00  0.00    +0.235 C 
ATOM     34  H   UNL     1      -0.602   0.385  22.597  0.00  0.00    +0.150 HD
ENDROOT
BRANCH  20  11
ATOM      1  O   UNL     1      -3.041   1.354  23.216  0.00  0.00    -0.275 OA
ATOM      4  N   UNL     1      -2.923  -0.458  24.669  0.00  0.00    -0.287 N 
ATOM      6  N   UNL     1      -2.592  -3.283  25.108  0.00  0.00    -0.312 NA
ATOM     11  C   UNL     1      -2.110  -1.255  23.744  0.00  0.00    +0.176 C 
ATOM     14  C   UNL     1      -3.258   0.854  24.323  0.00  0.00    +0.219 C 
ATOM     15  C   UNL     1      -3.180  -1.059  25.986  0.00  0.00    +0.123 C 
ATOM     16  C   UNL     1      -2.472  -2.740  23.753  0.00  0.00    +0.113 C 
ATOM     19  C   UNL     1      -3.579  -2.526  25.875  0.00  0.00    +0.100 C 
ATOM     33  H   UNL     1      -1.687  -3.218  25.574  0.00  0.00    +0.122 HD
BRANCH  14  10
ATOM      5  N   UNL     1      -6.678   2.326  24.601  0.00  0.00    -0.316 NA
ATOM     10  C   UNL     1      -3.927   1.682  25.385  0.00  0.00    +0.078 C 
ATOM     12  C   UNL     1      -5.139   0.949  25.963  0.00  0.00    +0.028 C 
ATOM     13  C   UNL     1      -4.325   3.053  24.837  0.00  0.00    +0.028 C 
ATOM     17  C   UNL     1      -6.335   0.965  25.008  0.00  0.00    +0.081 C 
ATOM     18  C   UNL     1      -5.555   2.980  23.930  0.00  0.00    +0.081 C 
ATOM     32  H   UNL     1      -7.477   2.298  23.970  0.00  0.00    +0.122 HD
ENDBRANCH  14  10
ENDBRANCH  20  11
BRANCH   7  21
ATOM     21  C   UNL     1       1.283   0.400  23.551  0.00  0.00    +0.163 C 
BRANCH  21  24
ATOM      3  O   UNL     1       1.531  -0.518  21.315  0.00  0.00    -0.274 OA
ATOM      9  N   UNL     1       3.323   0.559  22.264  0.00  0.00    -0.328 N 
ATOM     24  C   UNL     1       2.032   0.074  22.267  0.00  0.00    +0.231 C 
ATOM     36  H   UNL     1       3.716   1.068  23.050  0.00  0.00    +0.145 HD
ATOM     37  H   UNL     1       3.928   0.423  21.461  0.00  0.00    +0.145 HD
ENDBRANCH  21  24
BRANCH  21  22
ATOM     22  C   UNL     1       1.383   1.897  23.863  0.00  0.00    +0.069 C 
BRANCH  22  23
ATOM      8  N   UNL     1      -0.979   2.415  26.640  0.00  0.00    -0.360 N 
ATOM     23  C   UNL     1       0.354   2.356  24.867  0.00  0.00    -0.020 A 
ATOM     25  C   UNL     1      -0.395   3.565  24.820  0.00  0.00    +0.003 A 
ATOM     26  C   UNL     1      -0.027   1.670  25.998  0.00  0.00    +0.087 A 
ATOM     27  C   UNL     1      -1.224   3.578  25.944  0.00  0.00    +0.047 A 
ATOM     28  C   UNL     1      -0.447   4.652  23.926  0.00  0.00    +0.010 A 
ATOM     29  C   UNL     1      -2.106   4.629  26.220  0.00  0.00    +0.026 A 
ATOM     30  C   UNL     1      -1.325   5.711  24.190  0.00  0.00    +0.001 A 
ATOM     31  C   UNL     1      -2.140   5.697  25.320  0.00  0.00    +0.002 A 
ATOM     35  H   UNL     1      -1.438   2.151  27.501  0.00  0.00    +0.165 HD
ENDBRANCH  22  23
ENDBRANCH  21  22
ENDBRANCH   7  21
TORSDOF 6
ENDMDL
MODEL 4
REMARK VINA RESULT:       0.3      2.006      5.291
REMARK  Name = 25391126
REMARK  6 active torsions:
REMARK  status: ('A' for Active; 'I' for Inactive)
REMARK    1  A    between atoms: N_7  and  C_21
REMARK    2  A    between atoms: C_10  and  C_14
REMARK    3  A    between atoms: C_11  and  C_20
REMARK    4  A    between atoms: C_21  and  C_22
REMARK    5  A    between atoms: C_21  and  C_24
REMARK    6  A    between atoms: C_22  and  C_23
REMARK                            x       y       z     vdW  Elec       q    Type
REMARK                         _______ _______ _______ _____ _____    ______ ____
ROOT
ATOM      2  O   UNL     1      -1.282   2.058  22.734  0.00  0.00    -0.274 OA
ATOM      7  N   UNL     1       0.538   1.174  23.887  0.00  0.00    -0.302 N 
ATOM     20  C   UNL     1      -0.624   1.917  23.762  0.00  0.00    +0.235 C 
ATOM     34  H   UNL     1       1.040   1.178  24.769  0.00  0.00    +0.150 HD
ENDROOT
BRANCH  20  11
ATOM      1  O   UNL     1      -3.427   1.179  25.679  0.00  0.00    -0.275 OA
ATOM      4  N   UNL     1      -2.386   3.087  24.852  0.00  0.00    -0.287 N 
ATOM      6  N   UNL     1      -0.100   4.832  24.746  0.00  0.00    -0.312 NA
ATOM     11  C   UNL     1      -1.039   2.546  25.061  0.00  0.00    +0.176 C 
ATOM     14  C   UNL     1      -3.494   2.280  25.128  0.00  0.00    +0.219 C 
ATOM     15  C   UNL     1      -2.461   4.401  24.196  0.00  0.00    +0.123 C 
ATOM     16  C   UNL     1      -0.036   3.598  25.533  0.00  0.00    +0.113 C 
ATOM     19  C   UNL     1      -1.452   5.386  24.775  0.00  0.00    +0.100 C 
ATOM     33  H   UNL     1       0.155   4.624  23.780  0.00  0.00    +0.122 HD
BRANCH  14  10
ATOM      5  N   UNL     1      -6.880   2.081  26.688  0.00  0.00    -0.316 NA
ATOM     10  C   UNL     1      -4.837   2.816  24.717  0.00  0.00    +0.078 C 
ATOM     12  C   UNL     1      -5.370   3.804  25.756  0.00  0.00    +0.028 C 
ATOM     13  C   UNL     1      -5.831   1.676  24.484  0.00  0.00    +0.028 C 
ATOM     17  C   UNL     1      -5.885   3.101  27.014  0.00  0.00    +0.081 C 
ATOM     18  C   UNL     1      -6.326   1.063  25.795  0.00  0.00    +0.081 C 
ATOM     32  H   UNL     1      -7.201   1.636  27.547  0.00  0.00    +0.122 HD
ENDBRANCH  14  10
ENDBRANCH  20  11
BRANCH   7  21
ATOM     21  C   UNL     1       1.135   0.450  22.789  0.00  0.00    +0.163 C 
BRANCH  21  24
ATOM      3  O   UNL     1       3.224  -0.710  23.233  0.00  0.00    -0.274 OA
ATOM      9  N   UNL     1       3.250   1.582  23.088  0.00  0.00    -0.328 N 
ATOM     24  C   UNL     1       2.627   0.352  23.075  0.00  0.00    +0.231 C 
ATOM     36  H   UNL     1       2.747   2.450  22.932  0.00  0.00    +0.145 HD
ATOM     37  H   UNL     1       4.248   1.659  23.254  0.00  0.00    +0.145 HD
ENDBRANCH  21  24
BRANCH  21  22
ATOM     22  C   UNL     1       0.532  -0.948  22.619  0.00  0.00    +0.069 C 
BRANCH  22  23
ATOM      8  N   UNL     1      -0.600  -2.212  25.888  0.00  0.00    -0.360 N 
ATOM     23  C   UNL     1      -0.195  -1.425  23.853  0.00  0.00    -0.020 A 
ATOM     25  C   UNL     1      -1.606  -1.492  24.032  0.00  0.00    +0.003 A 
ATOM     26  C   UNL     1       0.395  -1.874  25.011  0.00  0.00    +0.087 A 
ATOM     27  C   UNL     1      -1.833  -1.990  25.316  0.00  0.00    +0.047 A 
ATOM     28  C   UNL     1      -2.714  -1.177  23.221  0.00  0.00    +0.010 A 
ATOM     29  C   UNL     1      -3.118  -2.188  25.833  0.00  0.00    +0.026 A 
ATOM     30  C   UNL     1      -4.006  -1.370  23.725  0.00  0.00    +0.001 A 
ATOM     31  C   UNL     1      -4.202  -1.868  25.011  0.00  0.00    +0.002 A 
ATOM     35  H   UNL     1      -0.453  -2.575  26.820  0.00  0.00    +0.165 HD
ENDBRANCH  22  23
ENDBRANCH  21  22
ENDBRANCH   7  21
TORSDOF 6
ENDMDL
MODEL 5
REMARK VINA RESULT:       1.6      1.905      4.119
REMARK  Name = 25391126
REMARK  6 active torsions:
REMARK  status: ('A' for Active; 'I' for Inactive)
REMARK    1  A    between atoms: N_7  and  C_21
REMARK    2  A    between atoms: C_10  and  C_14
REMARK    3  A    between atoms: C_11  and  C_20
REMARK    4  A    between atoms: C_21  and  C_22
REMARK    5  A    between atoms: C_21  and  C_24
REMARK    6  A    between atoms: C_22  and  C_23
REMARK                            x       y       z     vdW  Elec       q    Type
REMARK                         _______ _______ _______ _____ _____    ______ ____
ROOT
ATOM      2  O   UNL     1      -1.519   0.334  26.675  0.00  0.00    -0.274 OA
ATOM      7  N   UNL     1      -0.179   0.600  24.789  0.00  0.00    -0.302 N 
ATOM     20  C   UNL     1      -0.907   1.044  25.880  0.00  0.00    +0.235 C 
ATOM     34  H   UNL     1       0.235   1.278  24.157  0.00  0.00    +0.150 HD
ENDROOT
BRANCH  20  11
ATOM      1  O   UNL     1      -3.444   3.151  26.973  0.00  0.00    -0.275 OA
ATOM      4  N   UNL     1      -1.946   3.072  25.196  0.00  0.00    -0.287 N 
ATOM      6  N   UNL     1       0.759   3.090  24.215  0.00  0.00    -0.312 NA
ATOM     11  C   UNL     1      -0.861   2.537  26.025  0.00  0.00    +0.176 C 
ATOM     14  C   UNL     1      -3.208   3.263  25.768  0.00  0.00    +0.219 C 
ATOM     15  C   UNL     1      -1.658   3.205  23.761  0.00  0.00    +0.123 C 
ATOM     16  C   UNL     1       0.511   3.106  25.658  0.00  0.00    +0.113 C 
ATOM     19  C   UNL     1      -0.288   3.825  23.509  0.00  0.00    +0.100 C 
ATOM     33  H   UNL     1       0.766   2.124  23.889  0.00  0.00    +0.122 HD
BRANCH  14  10
ATOM      5  N   UNL     1      -6.587   1.795  25.165  0.00  0.00    -0.316 NA
ATOM     10  C   UNL     1      -4.324   3.630  24.830  0.00  0.00    +0.078 C 
ATOM     12  C   UNL     1      -5.585   4.012  25.608  0.00  0.00    +0.028 C 
ATOM     13  C   UNL     1      -4.610   2.490  23.851  0.00  0.00    +0.028 C 
ATOM     17  C   UNL     1      -6.297   2.792  26.194  0.00  0.00    +0.081 C 
ATOM     18  C   UNL     1      -5.362   1.334  24.511  0.00  0.00    +0.081 C 
ATOM     32  H   UNL     1      -7.062   1.000  25.590  0.00  0.00    +0.122 HD
ENDBRANCH  14  10
ENDBRANCH  20  11
BRANCH   7  21
ATOM     21  C   UNL     1      -0.045  -0.796  24.442  0.00  0.00    +0.163 C 
BRANCH  21  24
ATOM      3  O   UNL     1      -1.762  -2.511  24.572  0.00  0.00    -0.274 OA
ATOM      9  N   UNL     1      -2.356  -0.415  23.842  0.00  0.00    -0.328 N 
ATOM     24  C   UNL     1      -1.452  -1.356  24.288  0.00  0.00    +0.231 C 
ATOM     36  H   UNL     1      -2.088   0.541  23.633  0.00  0.00    +0.145 HD
ATOM     37  H   UNL     1      -3.333  -0.654  23.709  0.00  0.00    +0.145 HD
ENDBRANCH  21  24
BRANCH  21  22
ATOM     22  C   UNL     1       0.755  -0.999  23.151  0.00  0.00    +0.069 C 
BRANCH  22  23
ATOM      8  N   UNL     1       3.320   1.617  22.775  0.00  0.00    -0.360 N 
ATOM     23  C   UNL     1       1.988  -0.131  23.085  0.00  0.00    -0.020 A 
ATOM     25  C   UNL     1       3.319  -0.524  23.403  0.00  0.00    +0.003 A 
ATOM     26  C   UNL     1       2.021   1.190  22.702  0.00  0.00    +0.087 A 
ATOM     27  C   UNL     1       4.135   0.591  23.200  0.00  0.00    +0.047 A 
ATOM     28  C   UNL     1       3.908  -1.724  23.845  0.00  0.00    +0.010 A 
ATOM     29  C   UNL     1       5.517   0.565  23.418  0.00  0.00    +0.026 A 
ATOM     30  C   UNL     1       5.289  -1.765  24.069  0.00  0.00    +0.001 A 
ATOM     31  C   UNL     1       6.079  -0.636  23.857  0.00  0.00    +0.002 A 
ATOM     35  H   UNL     1       3.638   2.549  22.548  0.00  0.00    +0.165 HD
ENDBRANCH  22  23
ENDBRANCH  21  22
ENDBRANCH   7  21
TORSDOF 6
ENDMDL
MODEL 6
REMARK VINA RESULT:       2.4      1.585      4.792
REMARK  Name = 25391126
REMARK  6 active torsions:
REMARK  status: ('A' for Active; 'I' for Inactive)
REMARK    1  A    between atoms: N_7  and  C_21
REMARK    2  A    between atoms: C_10  and  C_14
REMARK    3  A    between atoms: C_11  and  C_20
REMARK    4  A    between atoms: C_21  and  C_22
REMARK    5  A    between atoms: C_21  and  C_24
REMARK    6  A    between atoms: C_22  and  C_23
REMARK                            x       y       z     vdW  Elec       q    Type
REMARK                         _______ _______ _______ _____ _____    ______ ____
ROOT
ATOM      2  O   UNL     1      -3.627   2.728  23.672  0.00  0.00    -0.274 OA
ATOM      7  N   UNL     1      -2.060   2.949  25.380  0.00  0.00    -0.302 N 
ATOM     20  C   UNL     1      -3.289   2.599  24.846  0.00  0.00    +0.235 C 
ATOM     34  H   UNL     1      -1.909   2.861  26.380  0.00  0.00    +0.150 HD
ENDROOT
BRANCH  20  11
ATOM      1  O   UNL     1      -2.882  -0.390  26.570  0.00  0.00    -0.275 OA
ATOM      4  N   UNL     1      -4.576   0.669  25.379  0.00  0.00    -0.287 N 
ATOM      6  N   UNL     1      -6.390   2.879  25.059  0.00  0.00    -0.312 NA
ATOM     11  C   UNL     1      -4.206   2.000  25.873  0.00  0.00    +0.176 C 
ATOM     14  C   UNL     1      -3.791  -0.432  25.738  0.00  0.00    +0.219 C 
ATOM     15  C   UNL     1      -5.661   0.626  24.389  0.00  0.00    +0.123 C 
ATOM     16  C   UNL     1      -5.415   2.894  26.152  0.00  0.00    +0.113 C 
ATOM     19  C   UNL     1      -6.834   1.514  24.788  0.00  0.00    +0.100 C 
ATOM     33  H   UNL     1      -5.955   3.261  24.220  0.00  0.00    +0.122 HD
BRANCH  14  10
ATOM      5  N   UNL     1      -1.707  -2.794  23.736  0.00  0.00    -0.316 NA
ATOM     10  C   UNL     1      -4.103  -1.733  25.052  0.00  0.00    +0.078 C 
ATOM     12  C   UNL     1      -3.274  -2.873  25.647  0.00  0.00    +0.028 C 
ATOM     13  C   UNL     1      -3.876  -1.621  23.543  0.00  0.00    +0.028 C 
ATOM     17  C   UNL     1      -1.814  -2.828  25.194  0.00  0.00    +0.081 C 
ATOM     18  C   UNL     1      -2.391  -1.628  23.179  0.00  0.00    +0.081 C 
ATOM     32  H   UNL     1      -0.723  -2.767  23.471  0.00  0.00    +0.122 HD
ENDBRANCH  14  10
ENDBRANCH  20  11
BRANCH   7  21
ATOM     21  C   UNL     1      -0.992   3.525  24.596  0.00  0.00    +0.163 C 
BRANCH  21  24
ATOM      3  O   UNL     1      -0.089   5.780  24.529  0.00  0.00    -0.274 OA
ATOM      9  N   UNL     1      -2.153   5.452  25.481  0.00  0.00    -0.328 N 
ATOM     24  C   UNL     1      -0.997   5.023  24.865  0.00  0.00    +0.231 C 
ATOM     36  H   UNL     1      -2.905   4.818  25.731  0.00  0.00    +0.145 HD
ATOM     37  H   UNL     1      -2.291   6.432  25.704  0.00  0.00    +0.145 HD
ENDBRANCH  21  24
BRANCH  21  22
ATOM     22  C   UNL     1       0.373   2.924  24.946  0.00  0.00    +0.069 C 
BRANCH  22  23
ATOM      8  N   UNL     1       0.350  -0.467  23.509  0.00  0.00    -0.360 N 
ATOM     23  C   UNL     1       0.624   1.604  24.259  0.00  0.00    -0.020 A 
ATOM     25  C   UNL     1       1.791   1.236  23.532  0.00  0.00    +0.003 A 
ATOM     26  C   UNL     1      -0.243   0.536  24.227  0.00  0.00    +0.087 A 
ATOM     27  C   UNL     1       1.594  -0.068  23.072  0.00  0.00    +0.047 A 
ATOM     28  C   UNL     1       3.000   1.889  23.221  0.00  0.00    +0.010 A 
ATOM     29  C   UNL     1       2.548  -0.754  22.313  0.00  0.00    +0.026 A 
ATOM     30  C   UNL     1       3.964   1.215  22.462  0.00  0.00    +0.001 A 
ATOM     31  C   UNL     1       3.739  -0.086  22.016  0.00  0.00    +0.002 A 
ATOM     35  H   UNL     1      -0.063  -1.371  23.326  0.00  0.00    +0.165 HD
ENDBRANCH  22  23
ENDBRANCH  21  22
ENDBRANCH   7  21
TORSDOF 6
ENDMDL
MODEL 7
REMARK VINA RESULT:       2.8      1.987      3.930
REMARK  Name = 25391126
REMARK  6 active torsions:
REMARK  status: ('A' for Active; 'I' for Inactive)
REMARK    1  A    between atoms: N_7  and  C_21
REMARK    2  A    between atoms: C_10  and  C_14
REMARK    3  A    between atoms: C_11  and  C_20
REMARK    4  A    between atoms: C_21  and  C_22
REMARK    5  A    between atoms: C_21  and  C_24
REMARK    6  A    between atoms: C_22  and  C_23
REMARK                            x       y       z     vdW  Elec       q    Type
REMARK                         _______ _______ _______ _____ _____    ______ ____
ROOT
ATOM      2  O   UNL     1      -1.087   0.837  23.296  0.00  0.00    -0.274 OA
ATOM      7  N   UNL     1      -0.292  -0.495  25.032  0.00  0.00    -0.302 N 
ATOM     20  C   UNL     1      -0.923   0.614  24.492  0.00  0.00    +0.235 C 
ATOM     34  H   UNL     1      -0.151  -0.549  26.036  0.00  0.00    +0.150 HD
ENDROOT
BRANCH  20  11
ATOM      1  O   UNL     1      -4.147   0.831  25.771  0.00  0.00    -0.275 OA
ATOM      4  N   UNL     1      -2.539   2.299  24.951  0.00  0.00    -0.287 N 
ATOM      6  N   UNL     1       0.068   3.500  25.145  0.00  0.00    -0.312 NA
ATOM     11  C   UNL     1      -1.429   1.551  25.551  0.00  0.00    +0.176 C 
ATOM     14  C   UNL     1      -3.839   1.796  25.067  0.00  0.00    +0.219 C 
ATOM     15  C   UNL     1      -2.167   3.449  24.115  0.00  0.00    +0.123 C 
ATOM     16  C   UNL     1      -0.321   2.454  26.094  0.00  0.00    +0.113 C 
ATOM     19  C   UNL     1      -1.091   4.307  24.771  0.00  0.00    +0.100 C 
ATOM     33  H   UNL     1       0.455   3.064  24.309  0.00  0.00    +0.122 HD
BRANCH  14  10
ATOM      5  N   UNL     1      -6.448   4.298  26.004  0.00  0.00    -0.316 NA
ATOM     10  C   UNL     1      -4.906   2.499  24.275  0.00  0.00    +0.078 C 
ATOM     12  C   UNL     1      -4.687   4.013  24.290  0.00  0.00    +0.028 C 
ATOM     13  C   UNL     1      -6.298   2.142  24.799  0.00  0.00    +0.028 C 
ATOM     17  C   UNL     1      -5.077   4.642  25.629  0.00  0.00    +0.081 C 
ATOM     18  C   UNL     1      -6.620   2.849  26.116  0.00  0.00    +0.081 C 
ATOM     32  H   UNL     1      -6.673   4.734  26.896  0.00  0.00    +0.122 HD
ENDBRANCH  14  10
ENDBRANCH  20  11
BRANCH   7  21
ATOM     21  C   UNL     1       0.263  -1.558  24.228  0.00  0.00    +0.163 C 
BRANCH  21  24
ATOM      3  O   UNL     1      -0.796  -3.481  23.185  0.00  0.00    -0.274 OA
ATOM      9  N   UNL     1      -1.855  -2.469  24.954  0.00  0.00    -0.328 N 
ATOM     24  C   UNL     1      -0.834  -2.596  24.036  0.00  0.00    +0.231 C 
ATOM     36  H   UNL     1      -1.861  -1.747  25.667  0.00  0.00    +0.145 HD
ATOM     37  H   UNL     1      -2.644  -3.107  24.946  0.00  0.00    +0.145 HD
ENDBRANCH  21  24
BRANCH  21  22
ATOM     22  C   UNL     1       0.766  -1.056  22.870  0.00  0.00    +0.069 C 
BRANCH  22  23
ATOM      8  N   UNL     1       3.247   1.664  22.975  0.00  0.00    -0.360 N 
ATOM     23  C   UNL     1       1.966  -0.148  22.991  0.00  0.00    -0.020 A 
ATOM     25  C   UNL     1       3.286  -0.533  23.358  0.00  0.00    +0.003 A 
ATOM     26  C   UNL     1       1.974   1.209  22.762  0.00  0.00    +0.087 A 
ATOM     27  C   UNL     1       4.070   0.622  23.341  0.00  0.00    +0.047 A 
ATOM     28  C   UNL     1       3.890  -1.757  23.704  0.00  0.00    +0.010 A 
ATOM     29  C   UNL     1       5.434   0.615  23.654  0.00  0.00    +0.026 A 
ATOM     30  C   UNL     1       5.254  -1.780  24.021  0.00  0.00    +0.001 A 
ATOM     31  C   UNL     1       6.011  -0.611  23.995  0.00  0.00    +0.002 A 
ATOM     35  H   UNL     1       3.542   2.626  22.878  0.00  0.00    +0.165 HD
ENDBRANCH  22  23
ENDBRANCH  21  22
ENDBRANCH   7  21
TORSDOF 6
ENDMDL
MODEL 8
REMARK VINA RESULT:       2.8      2.067      6.204
REMARK  Name = 25391126
REMARK  6 active torsions:
REMARK  status: ('A' for Active; 'I' for Inactive)
REMARK    1  A    between atoms: N_7  and  C_21
REMARK    2  A    between atoms: C_10  and  C_14
REMARK    3  A    between atoms: C_11  and  C_20
REMARK    4  A    between atoms: C_21  and  C_22
REMARK    5  A    between atoms: C_21  and  C_24
REMARK    6  A    between atoms: C_22  and  C_23
REMARK                            x       y       z     vdW  Elec       q    Type
REMARK                         _______ _______ _______ _____ _____    ______ ____
ROOT
ATOM      2  O   UNL     1      -1.629   0.941  23.196  0.00  0.00    -0.274 OA
ATOM      7  N   UNL     1      -2.635  -0.375  24.833  0.00  0.00    -0.302 N 
ATOM     20  C   UNL     1      -1.586   0.321  24.256  0.00  0.00    +0.235 C 
ATOM     34  H   UNL     1      -2.472  -0.909  25.681  0.00  0.00    +0.150 HD
ENDROOT
BRANCH  20  11
ATOM      1  O   UNL     1       1.542   1.628  23.493  0.00  0.00    -0.275 OA
ATOM      4  N   UNL     1       0.685  -0.389  24.273  0.00  0.00    -0.287 N 
ATOM      6  N   UNL     1      -0.723  -1.885  26.287  0.00  0.00    -0.312 NA
ATOM     11  C   UNL     1      -0.340   0.267  25.092  0.00  0.00    +0.176 C 
ATOM     14  C   UNL     1       1.512   0.395  23.462  0.00  0.00    +0.219 C 
ATOM     15  C   UNL     1       0.646  -1.858  24.241  0.00  0.00    +0.123 C 
ATOM     16  C   UNL     1      -0.578  -0.435  26.429  0.00  0.00    +0.113 C 
ATOM     19  C   UNL     1       0.452  -2.454  25.631  0.00  0.00    +0.100 C 
ATOM     33  H   UNL     1      -1.549  -2.083  25.722  0.00  0.00    +0.122 HD
BRANCH  14  10
ATOM      5  N   UNL     1       5.226   0.157  23.161  0.00  0.00    -0.316 NA
ATOM     10  C   UNL     1       2.410  -0.339  22.506  0.00  0.00    +0.078 C 
ATOM     12  C   UNL     1       3.275  -1.361  23.248  0.00  0.00    +0.028 C 
ATOM     13  C   UNL     1       3.279   0.640  21.713  0.00  0.00    +0.028 C 
ATOM     17  C   UNL     1       4.416  -0.701  24.024  0.00  0.00    +0.081 C 
ATOM     18  C   UNL     1       4.419   1.215  22.555  0.00  0.00    +0.081 C 
ATOM     32  H   UNL     1       5.975   0.576  23.710  0.00  0.00    +0.122 HD
ENDBRANCH  14  10
ENDBRANCH  20  11
BRANCH   7  21
ATOM     21  C   UNL     1      -3.950  -0.458  24.240  0.00  0.00    +0.163 C 
BRANCH  21  24
ATOM      3  O   UNL     1      -5.121  -2.296  23.165  0.00  0.00    -0.274 OA
ATOM      9  N   UNL     1      -3.162  -2.743  24.276  0.00  0.00    -0.328 N 
ATOM     24  C   UNL     1      -4.171  -1.910  23.841  0.00  0.00    +0.231 C 
ATOM     36  H   UNL     1      -2.370  -2.405  24.815  0.00  0.00    +0.145 HD
ATOM     37  H   UNL     1      -3.179  -3.735  24.066  0.00  0.00    +0.145 HD
ENDBRANCH  21  24
BRANCH  21  22
ATOM     22  C   UNL     1      -5.050   0.005  25.202  0.00  0.00    +0.069 C 
BRANCH  22  23
ATOM      8  N   UNL     1      -6.124   3.527  25.130  0.00  0.00    -0.360 N 
ATOM     23  C   UNL     1      -5.214   1.505  25.224  0.00  0.00    -0.020 A 
ATOM     25  C   UNL     1      -4.186   2.467  25.439  0.00  0.00    +0.003 A 
ATOM     26  C   UNL     1      -6.393   2.188  25.037  0.00  0.00    +0.087 A 
ATOM     27  C   UNL     1      -4.784   3.727  25.375  0.00  0.00    +0.047 A 
ATOM     28  C   UNL     1      -2.801   2.384  25.682  0.00  0.00    +0.010 A 
ATOM     29  C   UNL     1      -4.062   4.914  25.544  0.00  0.00    +0.026 A 
ATOM     30  C   UNL     1      -2.067   3.563  25.854  0.00  0.00    +0.001 A 
ATOM     31  C   UNL     1      -2.690   4.808  25.785  0.00  0.00    +0.002 A 
ATOM     35  H   UNL     1      -6.808   4.264  25.031  0.00  0.00    +0.165 HD
ENDBRANCH  22  23
ENDBRANCH  21  22
ENDBRANCH   7  21
TORSDOF 6
ENDMDL
MODEL 9
REMARK VINA RESULT:       3.0      1.866      2.292
REMARK  Name = 25391126
REMARK  6 active torsions:
REMARK  status: ('A' for Active; 'I' for Inactive)
REMARK    1  A    between atoms: N_7  and  C_21
REMARK    2  A    between atoms: C_10  and  C_14
REMARK    3  A    between atoms: C_11  and  C_20
REMARK    4  A    between atoms: C_21  and  C_22
REMARK    5  A    between atoms: C_21  and  C_24
REMARK    6  A    between atoms: C_22  and  C_23
REMARK                            x       y       z     vdW  Elec       q    Type
REMARK                         _______ _______ _______ _____ _____    ______ ____
ROOT
ATOM      2  O   UNL     1      -2.967  -1.401  24.488  0.00  0.00    -0.274 OA
ATOM      7  N   UNL     1      -1.510   0.390  24.182  0.00  0.00    -0.302 N 
ATOM     20  C   UNL     1      -2.743  -0.241  24.152  0.00  0.00    +0.235 C 
ATOM     34  H   UNL     1      -1.424   1.333  23.819  0.00  0.00    +0.150 HD
ENDROOT
BRANCH  20  11
ATOM      1  O   UNL     1      -2.401   2.809  22.522  0.00  0.00    -0.275 OA
ATOM      4  N   UNL     1      -3.614   1.967  24.319  0.00  0.00    -0.287 N 
ATOM      6  N   UNL     1      -5.593   0.155  25.358  0.00  0.00    -0.312 NA
ATOM     11  C   UNL     1      -3.835   0.670  23.670  0.00  0.00    +0.176 C 
ATOM     14  C   UNL     1      -2.819   2.922  23.677  0.00  0.00    +0.219 C 
ATOM     15  C   UNL     1      -4.117   2.096  25.694  0.00  0.00    +0.123 C 
ATOM     16  C   UNL     1      -5.224   0.091  23.942  0.00  0.00    +0.113 C 
ATOM     19  C   UNL     1      -5.525   1.532  25.842  0.00  0.00    +0.100 C 
ATOM     33  H   UNL     1      -4.946  -0.420  25.897  0.00  0.00    +0.122 HD
BRANCH  14  10
ATOM      5  N   UNL     1       0.180   3.869  25.689  0.00  0.00    -0.316 NA
ATOM     10  C   UNL     1      -2.472   4.151  24.468  0.00  0.00    +0.078 C 
ATOM     12  C   UNL     1      -1.227   4.833  23.897  0.00  0.00    +0.028 C 
ATOM     13  C   UNL     1      -2.280   3.811  25.948  0.00  0.00    +0.028 C 
ATOM     17  C   UNL     1       0.058   4.081  24.247  0.00  0.00    +0.081 C 
ATOM     18  C   UNL     1      -0.951   3.102  26.211  0.00  0.00    +0.081 C 
ATOM     32  H   UNL     1       1.046   3.369  25.884  0.00  0.00    +0.122 HD
ENDBRANCH  14  10
ENDBRANCH  20  11
BRANCH   7  21
ATOM     21  C   UNL     1      -0.300  -0.261  24.629  0.00  0.00    +0.163 C 
BRANCH  21  24
ATOM      3  O   UNL     1      -0.576  -2.614  25.172  0.00  0.00    -0.274 OA
ATOM      9  N   UNL     1      -1.230  -1.047  26.717  0.00  0.00    -0.328 N 
ATOM     24  C   UNL     1      -0.719  -1.438  25.498  0.00  0.00    +0.231 C 
ATOM     36  H   UNL     1      -1.320  -0.071  26.983  0.00  0.00    +0.145 HD
ATOM     37  H   UNL     1      -1.536  -1.734  27.399  0.00  0.00    +0.145 HD
ENDBRANCH  21  24
BRANCH  21  22
ATOM     22  C   UNL     1       0.565  -0.743  23.459  0.00  0.00    +0.069 C 
BRANCH  22  23
ATOM      8  N   UNL     1       3.210   1.758  22.897  0.00  0.00    -0.360 N 
ATOM     23  C   UNL     1       1.828   0.067  23.294  0.00  0.00    -0.020 A 
ATOM     25  C   UNL     1       3.162  -0.397  23.470  0.00  0.00    +0.003 A 
ATOM     26  C   UNL     1       1.890   1.396  22.941  0.00  0.00    +0.087 A 
ATOM     27  C   UNL     1       4.009   0.682  23.216  0.00  0.00    +0.047 A 
ATOM     28  C   UNL     1       3.730  -1.637  23.823  0.00  0.00    +0.010 A 
ATOM     29  C   UNL     1       5.403   0.585  23.297  0.00  0.00    +0.026 A 
ATOM     30  C   UNL     1       5.123  -1.750  23.909  0.00  0.00    +0.001 A 
ATOM     31  C   UNL     1       5.944  -0.654  23.649  0.00  0.00    +0.002 A 
ATOM     35  H   UNL     1       3.550   2.680  22.662  0.00  0.00    +0.165 HD
ENDBRANCH  22  23
ENDBRANCH  21  22
ENDBRANCH   7  21
TORSDOF 6
ENDMDL
MODEL 10
REMARK VINA RESULT:       3.1      2.179      6.631
REMARK  Name = 25391126
REMARK  6 active torsions:
REMARK  status: ('A' for Active; 'I' for Inactive)
REMARK    1  A    between atoms: N_7  and  C_21
REMARK    2  A    between atoms: C_10  and  C_14
REMARK    3  A    between atoms: C_11  and  C_20
REMARK    4  A    between atoms: C_21  and  C_22
REMARK    5  A    between atoms: C_21  and  C_24
REMARK    6  A    between atoms: C_22  and  C_23
REMARK                            x       y       z     vdW  Elec       q    Type
REMARK                         _______ _______ _______ _____ _____    ______ ____
ROOT
ATOM      2  O   UNL     1      -0.957   2.617  23.460  0.00  0.00    -0.274 OA
ATOM      7  N   UNL     1      -1.620   3.364  25.564  0.00  0.00    -0.302 N 
ATOM     20  C   UNL     1      -0.881   2.588  24.686  0.00  0.00    +0.235 C 
ATOM     34  H   UNL     1      -1.526   3.212  26.563  0.00  0.00    +0.150 HD
ENDROOT
BRANCH  20  11
ATOM      1  O   UNL     1       2.508   2.162  24.048  0.00  0.00    -0.275 OA
ATOM      4  N   UNL     1       0.655   0.796  24.381  0.00  0.00    -0.287 N 
ATOM      6  N   UNL     1      -1.476  -0.145  26.071  0.00  0.00    -0.312 NA
ATOM     11  C   UNL     1       0.080   1.682  25.399  0.00  0.00    +0.176 C 
ATOM     14  C   UNL     1       1.828   1.184  23.726  0.00  0.00    +0.219 C 
ATOM     15  C   UNL     1      -0.159  -0.368  24.003  0.00  0.00    +0.123 C 
ATOM     16  C   UNL     1      -0.592   0.923  26.544  0.00  0.00    +0.113 C 
ATOM     19  C   UNL     1      -0.740  -1.078  25.221  0.00  0.00    +0.100 C 
ATOM     33  H   UNL     1      -2.237   0.269  25.531  0.00  0.00    +0.122 HD
BRANCH  14  10
ATOM      5  N   UNL     1       4.893  -0.853  23.095  0.00  0.00    -0.316 NA
ATOM     10  C   UNL     1       2.264   0.334  22.565  0.00  0.00    +0.078 C 
ATOM     12  C   UNL     1       2.436  -1.125  22.993  0.00  0.00    +0.028 C 
ATOM     13  C   UNL     1       3.552   0.879  21.944  0.00  0.00    +0.028 C 
ATOM     17  C   UNL     1       3.713  -1.344  23.806  0.00  0.00    +0.081 C 
ATOM     18  C   UNL     1       4.781   0.576  22.802  0.00  0.00    +0.081 C 
ATOM     32  H   UNL     1       5.722  -1.017  23.663  0.00  0.00    +0.122 HD
ENDBRANCH  14  10
ENDBRANCH  20  11
BRANCH   7  21
ATOM     21  C   UNL     1      -2.598   4.335  25.130  0.00  0.00    +0.163 C 
BRANCH  21  24
ATOM      3  O   UNL     1      -2.367   6.415  23.895  0.00  0.00    -0.274 OA
ATOM      9  N   UNL     1      -0.480   5.444  24.773  0.00  0.00    -0.328 N 
ATOM     24  C   UNL     1      -1.833   5.498  24.516  0.00  0.00    +0.231 C 
ATOM     36  H   UNL     1      -0.057   4.692  25.308  0.00  0.00    +0.145 HD
ATOM     37  H   UNL     1       0.145   6.167  24.432  0.00  0.00    +0.145 HD
ENDBRANCH  21  24
BRANCH  21  22
ATOM     22  C   UNL     1      -3.586   3.749  24.115  0.00  0.00    +0.069 C 
BRANCH  22  23
ATOM      8  N   UNL     1      -5.698   1.262  25.822  0.00  0.00    -0.360 N 
ATOM     23  C   UNL     1      -4.320   2.541  24.643  0.00  0.00    -0.020 A 
ATOM     25  C   UNL     1      -4.151   1.193  24.217  0.00  0.00    +0.003 A 
ATOM     26  C   UNL     1      -5.278   2.551  25.631  0.00  0.00    +0.087 A 
ATOM     27  C   UNL     1      -5.027   0.412  24.973  0.00  0.00    +0.047 A 
ATOM     28  C   UNL     1      -3.333   0.563  23.259  0.00  0.00    +0.010 A 
ATOM     29  C   UNL     1      -5.127  -0.976  24.817  0.00  0.00    +0.026 A 
ATOM     30  C   UNL     1      -3.423  -0.824  23.091  0.00  0.00    +0.001 A 
ATOM     31  C   UNL     1      -4.307  -1.579  23.860  0.00  0.00    +0.002 A 
ATOM     35  H   UNL     1      -6.399   0.975  26.492  0.00  0.00    +0.165 HD
ENDBRANCH  22  23
ENDBRANCH  21  22
ENDBRANCH   7  21
TORSDOF 6
ENDMDL
