MODEL 1
REMARK VINA RESULT:      -2.4      0.000      0.000
REMARK  Name = 45783560
REMARK  9 active torsions:
REMARK  status: ('A' for Active; 'I' for Inactive)
REMARK    1  A    between atoms: O_2  and  C_25
REMARK    2  A    between atoms: O_2  and  C_26
REMARK    3  A    between atoms: O_3  and  C_27
REMARK    4  A    between atoms: O_3  and  C_28
REMARK    5  A    between atoms: N_4  and  C_13
REMARK    6  A    between atoms: C_9  and  C_14
REMARK    7  A    between atoms: C_13  and  C_15
REMARK    8  A    between atoms: C_16  and  C_19
REMARK    9  A    between atoms: C_26  and  C_27
REMARK                            x       y       z     vdW  Elec       q    Type
REMARK                         _______ _______ _______ _____ _____    ______ ____
ROOT
ATOM      1  O   UNL     1      -2.189   3.707  24.763  0.00  0.00    -0.336 OA
ATOM      5  N   UNL     1      -2.173   1.667  23.837  0.00  0.00    -0.190 NA
ATOM      6  N   UNL     1      -0.841   3.366  24.593  0.00  0.00    -0.056 NA
ATOM     14  C   UNL     1      -2.905   2.652  24.293  0.00  0.00    +0.245 A 
ATOM     16  C   UNL     1      -0.915   2.150  24.041  0.00  0.00    +0.204 A 
ENDROOT
BRANCH  16  19
ATOM      8  N   UNL     1       2.646   1.317  23.361  0.00  0.00    -0.221 NA
ATOM     19  C   UNL     1       0.250   1.394  23.684  0.00  0.00    +0.041 A 
ATOM     22  C   UNL     1       0.152   0.054  23.324  0.00  0.00    +0.018 A 
ATOM     23  C   UNL     1       1.509   1.973  23.687  0.00  0.00    +0.126 A 
ATOM     24  C   UNL     1       1.298  -0.654  22.982  0.00  0.00    +0.068 A 
ATOM     25  C   UNL     1       2.509   0.016  23.016  0.00  0.00    +0.215 A 
BRANCH  25   2
ATOM      2  O   UNL     1       3.654  -0.660  22.683  0.00  0.00    -0.474 OA
BRANCH   2  26
ATOM     26  C   UNL     1       4.279  -1.410  23.717  0.00  0.00    +0.258 C 
BRANCH  26  27
ATOM     27  C   UNL     1       5.330  -0.549  24.390  0.00  0.00    +0.200 C 
BRANCH  27   3
ATOM      3  O   UNL     1       6.007   0.215  23.400  0.00  0.00    -0.380 OA
ATOM     28  C   UNL     1       7.107  -0.499  22.854  0.00  0.00    +0.194 C 
ENDBRANCH  27   3
ENDBRANCH  26  27
ENDBRANCH   2  26
ENDBRANCH  25   2
ENDBRANCH  16  19
BRANCH  14   9
ATOM      4  N   UNL     1      -5.038   1.655  25.099  0.00  0.00    -0.287 NA
ATOM      9  C   UNL     1      -4.413   2.774  24.366  0.00  0.00    +0.146 C 
ATOM     10  C   UNL     1      -4.870   4.038  25.119  0.00  0.00    +0.030 C 
ATOM     11  C   UNL     1      -5.796   3.533  26.217  0.00  0.00    +0.017 C 
ATOM     12  C   UNL     1      -6.261   2.186  25.701  0.00  0.00    +0.085 C 
BRANCH   4  13
ATOM     13  C   UNL     1      -5.302   0.494  24.257  0.00  0.00    +0.121 C 
BRANCH  13  15
ATOM      7  N   UNL     1      -2.785  -1.647  26.104  0.00  0.00    -0.263 NA
ATOM     15  C   UNL     1      -4.401  -0.663  24.600  0.00  0.00    -0.015 A 
ATOM     17  C   UNL     1      -4.334  -1.785  23.781  0.00  0.00    +0.008 A 
ATOM     18  C   UNL     1      -3.614  -0.643  25.739  0.00  0.00    +0.115 A 
ATOM     20  C   UNL     1      -3.492  -2.838  24.123  0.00  0.00    +0.020 A 
ATOM     21  C   UNL     1      -2.746  -2.721  25.284  0.00  0.00    +0.111 A 
ENDBRANCH  13  15
ENDBRANCH   4  13
ENDBRANCH  14   9
TORSDOF 8
ENDMDL
MODEL 2
REMARK VINA RESULT:       0.5      1.510      3.624
REMARK  Name = 45783560
REMARK  9 active torsions:
REMARK  status: ('A' for Active; 'I' for Inactive)
REMARK    1  A    between atoms: O_2  and  C_25
REMARK    2  A    between atoms: O_2  and  C_26
REMARK    3  A    between atoms: O_3  and  C_27
REMARK    4  A    between atoms: O_3  and  C_28
REMARK    5  A    between atoms: N_4  and  C_13
REMARK    6  A    between atoms: C_9  and  C_14
REMARK    7  A    between atoms: C_13  and  C_15
REMARK    8  A    between atoms: C_16  and  C_19
REMARK    9  A    between atoms: C_26  and  C_27
REMARK                            x       y       z     vdW  Elec       q    Type
REMARK                         _______ _______ _______ _____ _____    ______ ____
ROOT
ATOM      1  O   UNL     1      -2.123   0.748  25.738  0.00  0.00    -0.336 OA
ATOM      5  N   UNL     1      -1.362  -0.614  24.131  0.00  0.00    -0.190 NA
ATOM      6  N   UNL     1      -0.860   1.236  25.380  0.00  0.00    -0.056 NA
ATOM     14  C   UNL     1      -2.341  -0.342  24.956  0.00  0.00    +0.245 A 
ATOM     16  C   UNL     1      -0.477   0.381  24.427  0.00  0.00    +0.204 A 
ENDROOT
BRANCH  16  19
ATOM      8  N   UNL     1       2.838   1.719  23.402  0.00  0.00    -0.221 NA
ATOM     19  C   UNL     1       0.785   0.492  23.753  0.00  0.00    +0.041 A 
ATOM     22  C   UNL     1       1.190  -0.465  22.829  0.00  0.00    +0.018 A 
ATOM     23  C   UNL     1       1.639   1.554  24.002  0.00  0.00    +0.126 A 
ATOM     24  C   UNL     1       2.417  -0.331  22.190  0.00  0.00    +0.068 A 
ATOM     25  C   UNL     1       3.197   0.768  22.508  0.00  0.00    +0.215 A 
BRANCH  25   2
ATOM      2  O   UNL     1       4.412   0.923  21.893  0.00  0.00    -0.474 OA
BRANCH   2  26
ATOM     26  C   UNL     1       5.498   0.172  22.420  0.00  0.00    +0.258 C 
BRANCH  26  27
ATOM     27  C   UNL     1       5.663   0.502  23.891  0.00  0.00    +0.200 C 
BRANCH  27   3
ATOM      3  O   UNL     1       5.580  -0.699  24.648  0.00  0.00    -0.380 OA
ATOM     28  C   UNL     1       4.924  -1.729  23.922  0.00  0.00    +0.194 C 
ENDBRANCH  27   3
ENDBRANCH  26  27
ENDBRANCH   2  26
ENDBRANCH  25   2
ENDBRANCH  16  19
BRANCH  14   9
ATOM      4  N   UNL     1      -4.730  -0.531  24.285  0.00  0.00    -0.287 NA
ATOM      9  C   UNL     1      -3.659  -1.061  25.153  0.00  0.00    +0.146 C 
ATOM     10  C   UNL     1      -3.578  -2.558  24.803  0.00  0.00    +0.030 C 
ATOM     11  C   UNL     1      -4.679  -2.787  23.778  0.00  0.00    +0.017 C 
ATOM     12  C   UNL     1      -5.643  -1.645  24.028  0.00  0.00    +0.085 C 
BRANCH   4  13
ATOM     13  C   UNL     1      -5.418   0.619  24.860  0.00  0.00    +0.121 C 
BRANCH  13  15
ATOM      7  N   UNL     1      -3.219   3.269  23.285  0.00  0.00    -0.263 NA
ATOM     15  C   UNL     1      -4.628   1.889  24.684  0.00  0.00    -0.015 A 
ATOM     17  C   UNL     1      -4.561   2.837  25.700  0.00  0.00    +0.008 A 
ATOM     18  C   UNL     1      -3.946   2.151  23.507  0.00  0.00    +0.115 A 
ATOM     20  C   UNL     1      -3.823   4.000  25.510  0.00  0.00    +0.020 A 
ATOM     21  C   UNL     1      -3.177   4.167  24.296  0.00  0.00    +0.111 A 
ENDBRANCH  13  15
ENDBRANCH   4  13
ENDBRANCH  14   9
TORSDOF 8
ENDMDL
MODEL 3
REMARK VINA RESULT:       0.5      1.814      3.479
REMARK  Name = 45783560
REMARK  9 active torsions:
REMARK  status: ('A' for Active; 'I' for Inactive)
REMARK    1  A    between atoms: O_2  and  C_25
REMARK    2  A    between atoms: O_2  and  C_26
REMARK    3  A    between atoms: O_3  and  C_27
REMARK    4  A    between atoms: O_3  and  C_28
REMARK    5  A    between atoms: N_4  and  C_13
REMARK    6  A    between atoms: C_9  and  C_14
REMARK    7  A    between atoms: C_13  and  C_15
REMARK    8  A    between atoms: C_16  and  C_19
REMARK    9  A    between atoms: C_26  and  C_27
REMARK                            x       y       z     vdW  Elec       q    Type
REMARK                         _______ _______ _______ _____ _____    ______ ____
ROOT
ATOM      1  O   UNL     1      -3.390   1.775  23.089  0.00  0.00    -0.336 OA
ATOM      5  N   UNL     1      -1.919   1.008  24.594  0.00  0.00    -0.190 NA
ATOM      6  N   UNL     1      -2.190   1.580  22.395  0.00  0.00    -0.056 NA
ATOM     14  C   UNL     1      -3.144   1.414  24.376  0.00  0.00    +0.245 A 
ATOM     16  C   UNL     1      -1.371   1.127  23.350  0.00  0.00    +0.204 A 
ENDROOT
BRANCH  16  19
ATOM      8  N   UNL     1       2.344   1.205  23.505  0.00  0.00    -0.221 NA
ATOM     19  C   UNL     1      -0.002   0.785  23.095  0.00  0.00    +0.041 A 
ATOM     22  C   UNL     1       0.328  -0.250  22.227  0.00  0.00    +0.018 A 
ATOM     23  C   UNL     1       1.034   1.475  23.703  0.00  0.00    +0.126 A 
ATOM     24  C   UNL     1       1.664  -0.558  21.997  0.00  0.00    +0.068 A 
ATOM     25  C   UNL     1       2.625   0.192  22.654  0.00  0.00    +0.215 A 
BRANCH  25   2
ATOM      2  O   UNL     1       3.949  -0.092  22.445  0.00  0.00    -0.474 OA
BRANCH   2  26
ATOM     26  C   UNL     1       4.649  -0.712  23.517  0.00  0.00    +0.258 C 
BRANCH  26  27
ATOM     27  C   UNL     1       5.472   0.334  24.243  0.00  0.00    +0.200 C 
BRANCH  27   3
ATOM      3  O   UNL     1       6.836   0.196  23.864  0.00  0.00    -0.380 OA
ATOM     28  C   UNL     1       6.985  -0.696  22.769  0.00  0.00    +0.194 C 
ENDBRANCH  27   3
ENDBRANCH  26  27
ENDBRANCH   2  26
ENDBRANCH  25   2
ENDBRANCH  16  19
BRANCH  14   9
ATOM      4  N   UNL     1      -4.804   2.919  25.460  0.00  0.00    -0.287 NA
ATOM      9  C   UNL     1      -4.303   1.534  25.344  0.00  0.00    +0.146 C 
ATOM     10  C   UNL     1      -5.529   0.711  24.908  0.00  0.00    +0.030 C 
ATOM     11  C   UNL     1      -6.680   1.705  24.866  0.00  0.00    +0.017 C 
ATOM     12  C   UNL     1      -6.225   2.818  25.788  0.00  0.00    +0.085 C 
BRANCH   4  13
ATOM     13  C   UNL     1      -4.071   3.714  26.437  0.00  0.00    +0.121 C 
BRANCH  13  15
ATOM      7  N   UNL     1      -0.323   3.609  25.909  0.00  0.00    -0.263 NA
ATOM     15  C   UNL     1      -2.695   4.078  25.946  0.00  0.00    -0.015 A 
ATOM     17  C   UNL     1      -2.499   5.171  25.108  0.00  0.00    +0.008 A 
ATOM     18  C   UNL     1      -1.584   3.336  26.314  0.00  0.00    +0.115 A 
ATOM     20  C   UNL     1      -1.217   5.484  24.670  0.00  0.00    +0.020 A 
ATOM     21  C   UNL     1      -0.173   4.679  25.095  0.00  0.00    +0.111 A 
ENDBRANCH  13  15
ENDBRANCH   4  13
ENDBRANCH  14   9
TORSDOF 8
ENDMDL
