MODEL 1
REMARK VINA RESULT:       1.2      0.000      0.000
REMARK  Name = 11883367
REMARK  9 active torsions:
REMARK  status: ('A' for Active; 'I' for Inactive)
REMARK    1  A    between atoms: O_3  and  C_13
REMARK    2  A    between atoms: O_3  and  C_17
REMARK    3  A    between atoms: O_6  and  C_27
REMARK    4  A    between atoms: O_6  and  C_30
REMARK    5  A    between atoms: O_7  and  C_28
REMARK    6  A    between atoms: O_7  and  C_31
REMARK    7  A    between atoms: N_8  and  C_12
REMARK    8  A    between atoms: N_9  and  C_21
REMARK    9  A    between atoms: C_16  and  C_18
REMARK                            x       y       z     vdW  Elec       q    Type
REMARK                         _______ _______ _______ _____ _____    ______ ____
ROOT
ATOM      1  O   UNL     1      -1.984  -0.395  24.639  0.00  0.00    -0.368 OA
ATOM      2  O   UNL     1      -2.223  -3.387  25.268  0.00  0.00    -0.368 OA
ATOM     10  C   UNL     1      -1.197  -2.631  24.590  0.00  0.00    +0.173 C 
ATOM     11  C   UNL     1      -1.902  -1.553  23.792  0.00  0.00    +0.192 C 
ATOM     12  C   UNL     1      -0.371  -1.860  25.593  0.00  0.00    +0.130 C 
ATOM     13  C   UNL     1      -3.260  -2.163  23.546  0.00  0.00    +0.235 C 
ATOM     14  C   UNL     1      -1.230  -0.631  25.839  0.00  0.00    +0.185 C 
ATOM     15  C   UNL     1      -3.508  -2.920  24.832  0.00  0.00    +0.207 C 
ENDROOT
BRANCH  12   8
ATOM      4  O   UNL     1       0.131   0.056  23.515  0.00  0.00    -0.270 OA
ATOM      8  N   UNL     1       0.914  -1.500  25.046  0.00  0.00    -0.304 N 
ATOM     16  C   UNL     1       1.057  -0.557  24.038  0.00  0.00    +0.244 C 
ATOM     32  H   UNL     1       1.714  -2.043  25.352  0.00  0.00    +0.149 HD
BRANCH  16  18
ATOM     18  C   UNL     1       2.445  -0.318  23.564  0.00  0.00    +0.037 A 
ATOM     19  C   UNL     1       2.745   0.834  22.836  0.00  0.00    +0.013 A 
ATOM     20  C   UNL     1       3.450  -1.243  23.849  0.00  0.00    +0.013 A 
ATOM     22  C   UNL     1       4.048   1.060  22.393  0.00  0.00    +0.001 A 
ATOM     23  C   UNL     1       4.752  -1.018  23.405  0.00  0.00    +0.001 A 
ATOM     24  C   UNL     1       5.052   0.134  22.677  0.00  0.00    +0.000 A 
ENDBRANCH  16  18
ENDBRANCH  12   8
BRANCH  13   3
ATOM      3  O   UNL     1      -4.267  -1.211  23.289  0.00  0.00    -0.442 OA
BRANCH   3  17
ATOM      5  O   UNL     1      -5.014  -0.378  25.285  0.00  0.00    -0.226 OA
ATOM      9  N   UNL     1      -3.838   0.953  23.760  0.00  0.00    -0.251 N 
ATOM     17  C   UNL     1      -4.428  -0.207  24.223  0.00  0.00    +0.405 C 
ATOM     33  H   UNL     1      -3.395   0.899  22.847  0.00  0.00    +0.158 HD
BRANCH   9  21
ATOM     21  C   UNL     1      -3.773   2.212  24.402  0.00  0.00    +0.043 A 
ATOM     25  C   UNL     1      -4.935   2.799  24.903  0.00  0.00    +0.069 A 
ATOM     26  C   UNL     1      -2.548   2.865  24.533  0.00  0.00    +0.069 A 
ATOM     27  C   UNL     1      -2.485   4.106  25.167  0.00  0.00    +0.125 A 
ATOM     28  C   UNL     1      -4.871   4.039  25.537  0.00  0.00    +0.125 A 
ATOM     29  C   UNL     1      -3.647   4.694  25.669  0.00  0.00    +0.091 A 
BRANCH  27   6
ATOM      6  O   UNL     1      -1.289   4.744  25.296  0.00  0.00    -0.495 OA
ATOM     30  C   UNL     1      -0.185   4.206  24.570  0.00  0.00    +0.277 C 
ENDBRANCH  27   6
BRANCH  28   7
ATOM      7  O   UNL     1      -6.005   4.613  26.026  0.00  0.00    -0.495 OA
ATOM     31  C   UNL     1      -6.588   5.662  25.253  0.00  0.00    +0.277 C 
ENDBRANCH  28   7
ENDBRANCH   9  21
ENDBRANCH   3  17
ENDBRANCH  13   3
TORSDOF 7
ENDMDL
MODEL 2
REMARK VINA RESULT:       1.2      0.109      2.250
REMARK  Name = 11883367
REMARK  9 active torsions:
REMARK  status: ('A' for Active; 'I' for Inactive)
REMARK    1  A    between atoms: O_3  and  C_13
REMARK    2  A    between atoms: O_3  and  C_17
REMARK    3  A    between atoms: O_6  and  C_27
REMARK    4  A    between atoms: O_6  and  C_30
REMARK    5  A    between atoms: O_7  and  C_28
REMARK    6  A    between atoms: O_7  and  C_31
REMARK    7  A    between atoms: N_8  and  C_12
REMARK    8  A    between atoms: N_9  and  C_21
REMARK    9  A    between atoms: C_16  and  C_18
REMARK                            x       y       z     vdW  Elec       q    Type
REMARK                         _______ _______ _______ _____ _____    ______ ____
ROOT
ATOM      1  O   UNL     1      -1.971  -0.388  24.738  0.00  0.00    -0.368 OA
ATOM      2  O   UNL     1      -2.178  -3.412  25.203  0.00  0.00    -0.368 OA
ATOM     10  C   UNL     1      -1.158  -2.609  24.574  0.00  0.00    +0.173 C 
ATOM     11  C   UNL     1      -1.871  -1.497  23.830  0.00  0.00    +0.192 C 
ATOM     12  C   UNL     1      -0.347  -1.883  25.622  0.00  0.00    +0.130 C 
ATOM     13  C   UNL     1      -3.220  -2.109  23.543  0.00  0.00    +0.235 C 
ATOM     14  C   UNL     1      -1.222  -0.679  25.928  0.00  0.00    +0.185 C 
ATOM     15  C   UNL     1      -3.466  -2.938  24.784  0.00  0.00    +0.207 C 
ENDROOT
BRANCH  12   8
ATOM      4  O   UNL     1       0.131  -0.273  23.293  0.00  0.00    -0.270 OA
ATOM      8  N   UNL     1       0.937  -1.479  25.103  0.00  0.00    -0.304 N 
ATOM     16  C   UNL     1       1.068  -0.695  23.965  0.00  0.00    +0.244 C 
ATOM     32  H   UNL     1       1.758  -1.879  25.543  0.00  0.00    +0.149 HD
BRANCH  16  18
ATOM     18  C   UNL     1       2.460  -0.387  23.545  0.00  0.00    +0.037 A 
ATOM     19  C   UNL     1       2.736   0.799  22.865  0.00  0.00    +0.013 A 
ATOM     20  C   UNL     1       3.490  -1.282  23.832  0.00  0.00    +0.013 A 
ATOM     22  C   UNL     1       4.043   1.090  22.473  0.00  0.00    +0.001 A 
ATOM     23  C   UNL     1       4.796  -0.992  23.439  0.00  0.00    +0.001 A 
ATOM     24  C   UNL     1       5.072   0.194  22.759  0.00  0.00    +0.000 A 
ENDBRANCH  16  18
ENDBRANCH  12   8
BRANCH  13   3
ATOM      3  O   UNL     1      -4.237  -1.156  23.332  0.00  0.00    -0.442 OA
BRANCH   3  17
ATOM      5  O   UNL     1      -4.873  -0.346  25.374  0.00  0.00    -0.226 OA
ATOM      9  N   UNL     1      -3.833   1.017  23.781  0.00  0.00    -0.251 N 
ATOM     17  C   UNL     1      -4.362  -0.158  24.277  0.00  0.00    +0.405 C 
ATOM     33  H   UNL     1      -3.448   0.975  22.840  0.00  0.00    +0.158 HD
BRANCH   9  21
ATOM     21  C   UNL     1      -3.758   2.276  24.421  0.00  0.00    +0.043 A 
ATOM     25  C   UNL     1      -2.530   2.928  24.534  0.00  0.00    +0.069 A 
ATOM     26  C   UNL     1      -4.911   2.866  24.938  0.00  0.00    +0.069 A 
ATOM     27  C   UNL     1      -4.836   4.108  25.568  0.00  0.00    +0.125 A 
ATOM     28  C   UNL     1      -2.455   4.170  25.163  0.00  0.00    +0.125 A 
ATOM     29  C   UNL     1      -3.608   4.760  25.681  0.00  0.00    +0.091 A 
BRANCH  27   6
ATOM      6  O   UNL     1      -5.962   4.684  26.072  0.00  0.00    -0.495 OA
ATOM     30  C   UNL     1      -6.616   5.654  25.256  0.00  0.00    +0.277 C 
ENDBRANCH  27   6
BRANCH  28   7
ATOM      7  O   UNL     1      -1.257   4.806  25.274  0.00  0.00    -0.495 OA
ATOM     31  C   UNL     1      -0.161   4.259  24.540  0.00  0.00    +0.277 C 
ENDBRANCH  28   7
ENDBRANCH   9  21
ENDBRANCH   3  17
ENDBRANCH  13   3
TORSDOF 7
ENDMDL
MODEL 3
REMARK VINA RESULT:       1.9      1.929      4.777
REMARK  Name = 11883367
REMARK  9 active torsions:
REMARK  status: ('A' for Active; 'I' for Inactive)
REMARK    1  A    between atoms: O_3  and  C_13
REMARK    2  A    between atoms: O_3  and  C_17
REMARK    3  A    between atoms: O_6  and  C_27
REMARK    4  A    between atoms: O_6  and  C_30
REMARK    5  A    between atoms: O_7  and  C_28
REMARK    6  A    between atoms: O_7  and  C_31
REMARK    7  A    between atoms: N_8  and  C_12
REMARK    8  A    between atoms: N_9  and  C_21
REMARK    9  A    between atoms: C_16  and  C_18
REMARK                            x       y       z     vdW  Elec       q    Type
REMARK                         _______ _______ _______ _____ _____    ______ ____
ROOT
ATOM      1  O   UNL     1      -0.489   2.437  25.584  0.00  0.00    -0.368 OA
ATOM      2  O   UNL     1      -1.036   3.258  22.680  0.00  0.00    -0.368 OA
ATOM     10  C   UNL     1       0.191   2.933  23.367  0.00  0.00    +0.173 C 
ATOM     11  C   UNL     1       0.066   3.486  24.772  0.00  0.00    +0.192 C 
ATOM     12  C   UNL     1       0.292   1.439  23.571  0.00  0.00    +0.130 C 
ATOM     13  C   UNL     1      -0.905   4.626  24.590  0.00  0.00    +0.235 C 
ATOM     14  C   UNL     1      -0.556   1.227  24.813  0.00  0.00    +0.185 C 
ATOM     15  C   UNL     1      -1.841   4.083  23.534  0.00  0.00    +0.207 C 
ENDROOT
BRANCH  12   8
ATOM      4  O   UNL     1       1.909  -0.169  21.827  0.00  0.00    -0.270 OA
ATOM      8  N   UNL     1       1.658   1.033  23.794  0.00  0.00    -0.304 N 
ATOM     16  C   UNL     1       2.361   0.252  22.888  0.00  0.00    +0.244 C 
ATOM     32  H   UNL     1       2.063   1.252  24.698  0.00  0.00    +0.149 HD
BRANCH  16  18
ATOM     18  C   UNL     1       3.751  -0.103  23.276  0.00  0.00    +0.037 A 
ATOM     19  C   UNL     1       4.764   0.853  23.195  0.00  0.00    +0.013 A 
ATOM     20  C   UNL     1       4.043  -1.392  23.723  0.00  0.00    +0.013 A 
ATOM     22  C   UNL     1       6.068   0.521  23.561  0.00  0.00    +0.001 A 
ATOM     23  C   UNL     1       5.348  -1.724  24.088  0.00  0.00    +0.001 A 
ATOM     24  C   UNL     1       6.360  -0.768  24.006  0.00  0.00    +0.000 A 
ENDBRANCH  16  18
ENDBRANCH  12   8
BRANCH  13   3
ATOM      3  O   UNL     1      -1.587   4.979  25.772  0.00  0.00    -0.442 OA
BRANCH   3  17
ATOM      5  O   UNL     1      -3.203   4.280  27.232  0.00  0.00    -0.226 OA
ATOM      9  N   UNL     1      -2.898   3.251  25.152  0.00  0.00    -0.251 N 
ATOM     17  C   UNL     1      -2.633   4.164  26.155  0.00  0.00    +0.405 C 
ATOM     33  H   UNL     1      -2.313   3.312  24.323  0.00  0.00    +0.158 HD
BRANCH   9  21
ATOM     21  C   UNL     1      -3.885   2.239  25.135  0.00  0.00    +0.043 A 
ATOM     25  C   UNL     1      -3.668   1.065  24.415  0.00  0.00    +0.069 A 
ATOM     26  C   UNL     1      -5.076   2.416  25.839  0.00  0.00    +0.069 A 
ATOM     27  C   UNL     1      -6.050   1.416  25.823  0.00  0.00    +0.125 A 
ATOM     28  C   UNL     1      -4.640   0.066  24.400  0.00  0.00    +0.125 A 
ATOM     29  C   UNL     1      -5.832   0.242  25.103  0.00  0.00    +0.091 A 
BRANCH  27   6
ATOM      6  O   UNL     1      -7.212   1.588  26.510  0.00  0.00    -0.495 OA
ATOM     30  C   UNL     1      -7.222   1.189  27.880  0.00  0.00    +0.277 C 
ENDBRANCH  27   6
BRANCH  28   7
ATOM      7  O   UNL     1      -4.428  -1.080  23.697  0.00  0.00    -0.495 OA
ATOM     31  C   UNL     1      -3.742  -2.136  24.369  0.00  0.00    +0.277 C 
ENDBRANCH  28   7
ENDBRANCH   9  21
ENDBRANCH   3  17
ENDBRANCH  13   3
TORSDOF 7
ENDMDL
MODEL 4
REMARK VINA RESULT:       1.9      1.909      4.475
REMARK  Name = 11883367
REMARK  9 active torsions:
REMARK  status: ('A' for Active; 'I' for Inactive)
REMARK    1  A    between atoms: O_3  and  C_13
REMARK    2  A    between atoms: O_3  and  C_17
REMARK    3  A    between atoms: O_6  and  C_27
REMARK    4  A    between atoms: O_6  and  C_30
REMARK    5  A    between atoms: O_7  and  C_28
REMARK    6  A    between atoms: O_7  and  C_31
REMARK    7  A    between atoms: N_8  and  C_12
REMARK    8  A    between atoms: N_9  and  C_21
REMARK    9  A    between atoms: C_16  and  C_18
REMARK                            x       y       z     vdW  Elec       q    Type
REMARK                         _______ _______ _______ _____ _____    ______ ____
ROOT
ATOM      1  O   UNL     1      -0.481   2.453  25.587  0.00  0.00    -0.368 OA
ATOM      2  O   UNL     1      -1.022   3.289  22.686  0.00  0.00    -0.368 OA
ATOM     10  C   UNL     1       0.203   2.956  23.372  0.00  0.00    +0.173 C 
ATOM     11  C   UNL     1       0.079   3.503  24.781  0.00  0.00    +0.192 C 
ATOM     12  C   UNL     1       0.298   1.461  23.570  0.00  0.00    +0.130 C 
ATOM     13  C   UNL     1      -0.887   4.649  24.603  0.00  0.00    +0.235 C 
ATOM     14  C   UNL     1      -0.553   1.247  24.811  0.00  0.00    +0.185 C 
ATOM     15  C   UNL     1      -1.825   4.113  23.544  0.00  0.00    +0.207 C 
ENDROOT
BRANCH  12   8
ATOM      4  O   UNL     1       1.898  -0.173  21.835  0.00  0.00    -0.270 OA
ATOM      8  N   UNL     1       1.662   1.048  23.793  0.00  0.00    -0.304 N 
ATOM     16  C   UNL     1       2.356   0.254  22.891  0.00  0.00    +0.244 C 
ATOM     32  H   UNL     1       2.070   1.272  24.693  0.00  0.00    +0.149 HD
BRANCH  16  18
ATOM     18  C   UNL     1       3.745  -0.106  23.277  0.00  0.00    +0.037 A 
ATOM     19  C   UNL     1       4.035  -1.400  23.709  0.00  0.00    +0.013 A 
ATOM     20  C   UNL     1       4.760   0.849  23.207  0.00  0.00    +0.013 A 
ATOM     22  C   UNL     1       5.339  -1.739  24.071  0.00  0.00    +0.001 A 
ATOM     23  C   UNL     1       6.063   0.511  23.570  0.00  0.00    +0.001 A 
ATOM     24  C   UNL     1       6.353  -0.784  24.002  0.00  0.00    +0.000 A 
ENDBRANCH  16  18
ENDBRANCH  12   8
BRANCH  13   3
ATOM      3  O   UNL     1      -1.568   4.999  25.786  0.00  0.00    -0.442 OA
BRANCH   3  17
ATOM      5  O   UNL     1      -3.178   4.292  27.249  0.00  0.00    -0.226 OA
ATOM      9  N   UNL     1      -2.878   3.271  25.164  0.00  0.00    -0.251 N 
ATOM     17  C   UNL     1      -2.612   4.181  26.169  0.00  0.00    +0.405 C 
ATOM     33  H   UNL     1      -2.296   3.335  24.333  0.00  0.00    +0.158 HD
BRANCH   9  21
ATOM     21  C   UNL     1      -3.864   2.257  25.148  0.00  0.00    +0.043 A 
ATOM     25  C   UNL     1      -5.063   2.440  25.839  0.00  0.00    +0.069 A 
ATOM     26  C   UNL     1      -3.639   1.076  24.441  0.00  0.00    +0.069 A 
ATOM     27  C   UNL     1      -4.613   0.078  24.424  0.00  0.00    +0.125 A 
ATOM     28  C   UNL     1      -6.036   1.441  25.821  0.00  0.00    +0.125 A 
ATOM     29  C   UNL     1      -5.811   0.260  25.115  0.00  0.00    +0.091 A 
BRANCH  27   6
ATOM      6  O   UNL     1      -4.394  -1.075  23.735  0.00  0.00    -0.495 OA
ATOM     30  C   UNL     1      -3.482  -2.011  24.308  0.00  0.00    +0.277 C 
ENDBRANCH  27   6
BRANCH  28   7
ATOM      7  O   UNL     1      -7.205   1.619  26.495  0.00  0.00    -0.495 OA
ATOM     31  C   UNL     1      -7.243   1.189  27.856  0.00  0.00    +0.277 C 
ENDBRANCH  28   7
ENDBRANCH   9  21
ENDBRANCH   3  17
ENDBRANCH  13   3
TORSDOF 7
ENDMDL
MODEL 5
REMARK VINA RESULT:       1.9      1.433      1.781
REMARK  Name = 11883367
REMARK  9 active torsions:
REMARK  status: ('A' for Active; 'I' for Inactive)
REMARK    1  A    between atoms: O_3  and  C_13
REMARK    2  A    between atoms: O_3  and  C_17
REMARK    3  A    between atoms: O_6  and  C_27
REMARK    4  A    between atoms: O_6  and  C_30
REMARK    5  A    between atoms: O_7  and  C_28
REMARK    6  A    between atoms: O_7  and  C_31
REMARK    7  A    between atoms: N_8  and  C_12
REMARK    8  A    between atoms: N_9  and  C_21
REMARK    9  A    between atoms: C_16  and  C_18
REMARK                            x       y       z     vdW  Elec       q    Type
REMARK                         _______ _______ _______ _____ _____    ______ ____
ROOT
ATOM      1  O   UNL     1      -2.538  -0.431  25.609  0.00  0.00    -0.368 OA
ATOM      2  O   UNL     1      -2.869  -3.137  24.205  0.00  0.00    -0.368 OA
ATOM     10  C   UNL     1      -1.884  -2.094  24.051  0.00  0.00    +0.173 C 
ATOM     11  C   UNL     1      -2.613  -0.775  24.215  0.00  0.00    +0.192 C 
ATOM     12  C   UNL     1      -0.913  -2.120  25.207  0.00  0.00    +0.130 C 
ATOM     13  C   UNL     1      -4.021  -1.125  23.800  0.00  0.00    +0.235 C 
ATOM     14  C   UNL     1      -1.672  -1.359  26.281  0.00  0.00    +0.185 C 
ATOM     15  C   UNL     1      -4.167  -2.537  24.324  0.00  0.00    +0.207 C 
ENDROOT
BRANCH  12   8
ATOM      4  O   UNL     1      -0.208  -1.010  22.655  0.00  0.00    -0.270 OA
ATOM      8  N   UNL     1       0.322  -1.457  24.869  0.00  0.00    -0.304 N 
ATOM     16  C   UNL     1       0.573  -0.950  23.601  0.00  0.00    +0.244 C 
ATOM     32  H   UNL     1       1.056  -1.465  25.568  0.00  0.00    +0.149 HD
BRANCH  16  18
ATOM     18  C   UNL     1       1.903  -0.318  23.406  0.00  0.00    +0.037 A 
ATOM     19  C   UNL     1       1.992   1.039  23.097  0.00  0.00    +0.013 A 
ATOM     20  C   UNL     1       3.064  -1.082  23.532  0.00  0.00    +0.013 A 
ATOM     22  C   UNL     1       3.241   1.633  22.914  0.00  0.00    +0.001 A 
ATOM     23  C   UNL     1       4.313  -0.489  23.349  0.00  0.00    +0.001 A 
ATOM     24  C   UNL     1       4.402   0.869  23.040  0.00  0.00    +0.000 A 
ENDBRANCH  16  18
ENDBRANCH  12   8
BRANCH  13   3
ATOM      3  O   UNL     1      -4.997  -0.259  24.332  0.00  0.00    -0.442 OA
BRANCH   3  17
ATOM      5  O   UNL     1      -5.122   1.459  25.837  0.00  0.00    -0.226 OA
ATOM      9  N   UNL     1      -3.387   1.320  24.272  0.00  0.00    -0.251 N 
ATOM     17  C   UNL     1      -4.544   0.911  24.907  0.00  0.00    +0.405 C 
ATOM     33  H   UNL     1      -3.057   0.728  23.514  0.00  0.00    +0.158 HD
BRANCH   9  21
ATOM     21  C   UNL     1      -2.602   2.464  24.546  0.00  0.00    +0.043 A 
ATOM     25  C   UNL     1      -3.061   3.729  24.180  0.00  0.00    +0.069 A 
ATOM     26  C   UNL     1      -1.369   2.327  25.183  0.00  0.00    +0.069 A 
ATOM     27  C   UNL     1      -0.595   3.455  25.455  0.00  0.00    +0.125 A 
ATOM     28  C   UNL     1      -2.288   4.857  24.452  0.00  0.00    +0.125 A 
ATOM     29  C   UNL     1      -1.054   4.721  25.089  0.00  0.00    +0.091 A 
BRANCH  27   6
ATOM      6  O   UNL     1       0.608   3.322  26.076  0.00  0.00    -0.495 OA
ATOM     30  C   UNL     1       0.659   2.463  27.215  0.00  0.00    +0.277 C 
ENDBRANCH  27   6
BRANCH  28   7
ATOM      7  O   UNL     1      -2.736   6.092  24.095  0.00  0.00    -0.495 OA
ATOM     31  C   UNL     1      -3.862   6.145  23.218  0.00  0.00    +0.277 C 
ENDBRANCH  28   7
ENDBRANCH   9  21
ENDBRANCH   3  17
ENDBRANCH  13   3
TORSDOF 7
ENDMDL
MODEL 6
REMARK VINA RESULT:       2.1      2.856      6.044
REMARK  Name = 11883367
REMARK  9 active torsions:
REMARK  status: ('A' for Active; 'I' for Inactive)
REMARK    1  A    between atoms: O_3  and  C_13
REMARK    2  A    between atoms: O_3  and  C_17
REMARK    3  A    between atoms: O_6  and  C_27
REMARK    4  A    between atoms: O_6  and  C_30
REMARK    5  A    between atoms: O_7  and  C_28
REMARK    6  A    between atoms: O_7  and  C_31
REMARK    7  A    between atoms: N_8  and  C_12
REMARK    8  A    between atoms: N_9  and  C_21
REMARK    9  A    between atoms: C_16  and  C_18
REMARK                            x       y       z     vdW  Elec       q    Type
REMARK                         _______ _______ _______ _____ _____    ______ ____
ROOT
ATOM      1  O   UNL     1      -2.728   2.439  24.773  0.00  0.00    -0.368 OA
ATOM      2  O   UNL     1      -3.147   5.423  24.202  0.00  0.00    -0.368 OA
ATOM     10  C   UNL     1      -2.568   4.738  25.332  0.00  0.00    +0.173 C 
ATOM     11  C   UNL     1      -3.374   3.471  25.537  0.00  0.00    +0.192 C 
ATOM     12  C   UNL     1      -1.186   4.238  24.985  0.00  0.00    +0.130 C 
ATOM     13  C   UNL     1      -4.717   3.840  24.956  0.00  0.00    +0.235 C 
ATOM     14  C   UNL     1      -1.488   2.943  24.250  0.00  0.00    +0.185 C 
ATOM     15  C   UNL     1      -4.329   4.721  23.789  0.00  0.00    +0.207 C 
ENDROOT
BRANCH  12   8
ATOM      4  O   UNL     1       0.200   1.815  25.660  0.00  0.00    -0.270 OA
ATOM      8  N   UNL     1      -0.403   3.996  26.172  0.00  0.00    -0.304 N 
ATOM     16  C   UNL     1       0.233   2.786  26.411  0.00  0.00    +0.244 C 
ATOM     32  H   UNL     1      -0.419   4.713  26.888  0.00  0.00    +0.149 HD
BRANCH  16  18
ATOM     18  C   UNL     1       0.979   2.686  27.693  0.00  0.00    +0.037 A 
ATOM     19  C   UNL     1       0.313   2.317  28.861  0.00  0.00    +0.013 A 
ATOM     20  C   UNL     1       2.347   2.961  27.728  0.00  0.00    +0.013 A 
ATOM     22  C   UNL     1       1.013   2.222  30.063  0.00  0.00    +0.001 A 
ATOM     23  C   UNL     1       3.046   2.867  28.930  0.00  0.00    +0.001 A 
ATOM     24  C   UNL     1       2.380   2.497  30.098  0.00  0.00    +0.000 A 
ENDBRANCH  16  18
ENDBRANCH  12   8
BRANCH  13   3
ATOM      3  O   UNL     1      -5.479   2.726  24.548  0.00  0.00    -0.442 OA
BRANCH   3  17
ATOM      5  O   UNL     1      -5.497   1.030  26.083  0.00  0.00    -0.226 OA
ATOM      9  N   UNL     1      -4.195   0.917  24.141  0.00  0.00    -0.251 N 
ATOM     17  C   UNL     1      -5.085   1.493  25.027  0.00  0.00    +0.405 C 
ATOM     33  H   UNL     1      -3.973   1.459  23.310  0.00  0.00    +0.158 HD
BRANCH   9  21
ATOM     21  C   UNL     1      -3.552  -0.338  24.247  0.00  0.00    +0.043 A 
ATOM     25  C   UNL     1      -4.271  -1.511  24.020  0.00  0.00    +0.069 A 
ATOM     26  C   UNL     1      -2.198  -0.403  24.577  0.00  0.00    +0.069 A 
ATOM     27  C   UNL     1      -1.564  -1.641  24.680  0.00  0.00    +0.125 A 
ATOM     28  C   UNL     1      -3.637  -2.749  24.122  0.00  0.00    +0.125 A 
ATOM     29  C   UNL     1      -2.284  -2.814  24.454  0.00  0.00    +0.091 A 
BRANCH  27   6
ATOM      6  O   UNL     1      -0.243  -1.704  25.003  0.00  0.00    -0.495 OA
ATOM     30  C   UNL     1       0.664  -0.986  24.167  0.00  0.00    +0.277 C 
ENDBRANCH  27   6
BRANCH  28   7
ATOM      7  O   UNL     1      -4.340  -3.894  23.901  0.00  0.00    -0.495 OA
ATOM     31  C   UNL     1      -5.457  -3.809  23.016  0.00  0.00    +0.277 C 
ENDBRANCH  28   7
ENDBRANCH   9  21
ENDBRANCH   3  17
ENDBRANCH  13   3
TORSDOF 7
ENDMDL
MODEL 7
REMARK VINA RESULT:       2.1      2.859      6.377
REMARK  Name = 11883367
REMARK  9 active torsions:
REMARK  status: ('A' for Active; 'I' for Inactive)
REMARK    1  A    between atoms: O_3  and  C_13
REMARK    2  A    between atoms: O_3  and  C_17
REMARK    3  A    between atoms: O_6  and  C_27
REMARK    4  A    between atoms: O_6  and  C_30
REMARK    5  A    between atoms: O_7  and  C_28
REMARK    6  A    between atoms: O_7  and  C_31
REMARK    7  A    between atoms: N_8  and  C_12
REMARK    8  A    between atoms: N_9  and  C_21
REMARK    9  A    between atoms: C_16  and  C_18
REMARK                            x       y       z     vdW  Elec       q    Type
REMARK                         _______ _______ _______ _____ _____    ______ ____
ROOT
ATOM      1  O   UNL     1      -2.711   2.448  24.758  0.00  0.00    -0.368 OA
ATOM      2  O   UNL     1      -3.135   5.432  24.194  0.00  0.00    -0.368 OA
ATOM     10  C   UNL     1      -2.556   4.746  25.323  0.00  0.00    +0.173 C 
ATOM     11  C   UNL     1      -3.360   3.477  25.524  0.00  0.00    +0.192 C 
ATOM     12  C   UNL     1      -1.172   4.249  24.975  0.00  0.00    +0.130 C 
ATOM     13  C   UNL     1      -4.703   3.844  24.943  0.00  0.00    +0.235 C 
ATOM     14  C   UNL     1      -1.472   2.955  24.237  0.00  0.00    +0.185 C 
ATOM     15  C   UNL     1      -4.315   4.729  23.779  0.00  0.00    +0.207 C 
ENDROOT
BRANCH  12   8
ATOM      4  O   UNL     1       0.169   1.808  25.673  0.00  0.00    -0.270 OA
ATOM      8  N   UNL     1      -0.390   4.005  26.162  0.00  0.00    -0.304 N 
ATOM     16  C   UNL     1       0.224   2.786  26.413  0.00  0.00    +0.244 C 
ATOM     32  H   UNL     1      -0.389   4.731  26.871  0.00  0.00    +0.149 HD
BRANCH  16  18
ATOM     18  C   UNL     1       0.973   2.687  27.693  0.00  0.00    +0.037 A 
ATOM     19  C   UNL     1       0.309   2.314  28.862  0.00  0.00    +0.013 A 
ATOM     20  C   UNL     1       2.339   2.966  27.726  0.00  0.00    +0.013 A 
ATOM     22  C   UNL     1       1.012   2.218  30.063  0.00  0.00    +0.001 A 
ATOM     23  C   UNL     1       3.041   2.872  28.927  0.00  0.00    +0.001 A 
ATOM     24  C   UNL     1       2.378   2.498  30.096  0.00  0.00    +0.000 A 
ENDBRANCH  16  18
ENDBRANCH  12   8
BRANCH  13   3
ATOM      3  O   UNL     1      -5.462   2.731  24.532  0.00  0.00    -0.442 OA
BRANCH   3  17
ATOM      5  O   UNL     1      -5.480   1.050  26.083  0.00  0.00    -0.226 OA
ATOM      9  N   UNL     1      -4.198   0.906  24.130  0.00  0.00    -0.251 N 
ATOM     17  C   UNL     1      -5.075   1.498  25.018  0.00  0.00    +0.405 C 
ATOM     33  H   UNL     1      -3.980   1.438  23.291  0.00  0.00    +0.158 HD
BRANCH   9  21
ATOM     21  C   UNL     1      -3.565  -0.353  24.241  0.00  0.00    +0.043 A 
ATOM     25  C   UNL     1      -2.218  -0.427  24.594  0.00  0.00    +0.069 A 
ATOM     26  C   UNL     1      -4.288  -1.521  23.999  0.00  0.00    +0.069 A 
ATOM     27  C   UNL     1      -3.663  -2.764  24.111  0.00  0.00    +0.125 A 
ATOM     28  C   UNL     1      -1.594  -1.669  24.706  0.00  0.00    +0.125 A 
ATOM     29  C   UNL     1      -2.316  -2.838  24.463  0.00  0.00    +0.091 A 
BRANCH  27   6
ATOM      6  O   UNL     1      -4.369  -3.903  23.875  0.00  0.00    -0.495 OA
ATOM     30  C   UNL     1      -5.505  -3.798  23.017  0.00  0.00    +0.277 C 
ENDBRANCH  27   6
BRANCH  28   7
ATOM      7  O   UNL     1      -0.278  -1.741  25.050  0.00  0.00    -0.495 OA
ATOM     31  C   UNL     1       0.648  -1.033  24.227  0.00  0.00    +0.277 C 
ENDBRANCH  28   7
ENDBRANCH   9  21
ENDBRANCH   3  17
ENDBRANCH  13   3
TORSDOF 7
ENDMDL
MODEL 8
REMARK VINA RESULT:       2.5      1.830      6.840
REMARK  Name = 11883367
REMARK  9 active torsions:
REMARK  status: ('A' for Active; 'I' for Inactive)
REMARK    1  A    between atoms: O_3  and  C_13
REMARK    2  A    between atoms: O_3  and  C_17
REMARK    3  A    between atoms: O_6  and  C_27
REMARK    4  A    between atoms: O_6  and  C_30
REMARK    5  A    between atoms: O_7  and  C_28
REMARK    6  A    between atoms: O_7  and  C_31
REMARK    7  A    between atoms: N_8  and  C_12
REMARK    8  A    between atoms: N_9  and  C_21
REMARK    9  A    between atoms: C_16  and  C_18
REMARK                            x       y       z     vdW  Elec       q    Type
REMARK                         _______ _______ _______ _____ _____    ______ ____
ROOT
ATOM      1  O   UNL     1      -2.786   2.967  25.826  0.00  0.00    -0.368 OA
ATOM      2  O   UNL     1      -5.041   4.506  24.429  0.00  0.00    -0.368 OA
ATOM     10  C   UNL     1      -4.535   3.168  24.238  0.00  0.00    +0.173 C 
ATOM     11  C   UNL     1      -3.034   3.234  24.435  0.00  0.00    +0.192 C 
ATOM     12  C   UNL     1      -5.010   2.269  25.355  0.00  0.00    +0.130 C 
ATOM     13  C   UNL     1      -2.719   4.665  24.075  0.00  0.00    +0.235 C 
ATOM     14  C   UNL     1      -4.013   2.576  26.460  0.00  0.00    +0.185 C 
ATOM     15  C   UNL     1      -3.932   5.401  24.601  0.00  0.00    +0.207 C 
ENDROOT
BRANCH  12   8
ATOM      4  O   UNL     1      -2.822   0.461  25.784  0.00  0.00    -0.270 OA
ATOM      8  N   UNL     1      -4.952   0.880  24.969  0.00  0.00    -0.304 N 
ATOM     16  C   UNL     1      -3.845   0.082  25.221  0.00  0.00    +0.244 C 
ATOM     32  H   UNL     1      -5.717   0.527  24.405  0.00  0.00    +0.149 HD
BRANCH  16  18
ATOM     18  C   UNL     1      -3.932  -1.321  24.738  0.00  0.00    +0.037 A 
ATOM     19  C   UNL     1      -4.591  -1.607  23.542  0.00  0.00    +0.013 A 
ATOM     20  C   UNL     1      -3.353  -2.351  25.479  0.00  0.00    +0.013 A 
ATOM     22  C   UNL     1      -4.670  -2.923  23.087  0.00  0.00    +0.001 A 
ATOM     23  C   UNL     1      -3.434  -3.667  25.025  0.00  0.00    +0.001 A 
ATOM     24  C   UNL     1      -4.093  -3.953  23.829  0.00  0.00    +0.000 A 
ENDBRANCH  16  18
ENDBRANCH  12   8
BRANCH  13   3
ATOM      3  O   UNL     1      -1.522   5.140  24.649  0.00  0.00    -0.442 OA
BRANCH   3  17
ATOM      5  O   UNL     1       0.346   4.340  25.699  0.00  0.00    -0.226 OA
ATOM      9  N   UNL     1      -0.645   3.197  23.912  0.00  0.00    -0.251 N 
ATOM     17  C   UNL     1      -0.511   4.218  24.833  0.00  0.00    +0.405 C 
ATOM     33  H   UNL     1      -1.428   3.271  23.268  0.00  0.00    +0.158 HD
BRANCH   9  21
ATOM     21  C   UNL     1       0.176   2.056  23.754  0.00  0.00    +0.043 A 
ATOM     25  C   UNL     1      -0.358   0.782  23.946  0.00  0.00    +0.069 A 
ATOM     26  C   UNL     1       1.518   2.205  23.407  0.00  0.00    +0.069 A 
ATOM     27  C   UNL     1       2.327   1.079  23.250  0.00  0.00    +0.125 A 
ATOM     28  C   UNL     1       0.450  -0.344  23.789  0.00  0.00    +0.125 A 
ATOM     29  C   UNL     1       1.793  -0.196  23.442  0.00  0.00    +0.091 A 
BRANCH  27   6
ATOM      6  O   UNL     1       3.637   1.224  22.911  0.00  0.00    -0.495 OA
ATOM     30  C   UNL     1       4.499   0.114  23.161  0.00  0.00    +0.277 C 
ENDBRANCH  27   6
BRANCH  28   7
ATOM      7  O   UNL     1      -0.071  -1.587  23.975  0.00  0.00    -0.495 OA
ATOM     31  C   UNL     1      -0.149  -2.064  25.319  0.00  0.00    +0.277 C 
ENDBRANCH  28   7
ENDBRANCH   9  21
ENDBRANCH   3  17
ENDBRANCH  13   3
TORSDOF 7
ENDMDL
MODEL 9
REMARK VINA RESULT:       2.5      1.830      7.141
REMARK  Name = 11883367
REMARK  9 active torsions:
REMARK  status: ('A' for Active; 'I' for Inactive)
REMARK    1  A    between atoms: O_3  and  C_13
REMARK    2  A    between atoms: O_3  and  C_17
REMARK    3  A    between atoms: O_6  and  C_27
REMARK    4  A    between atoms: O_6  and  C_30
REMARK    5  A    between atoms: O_7  and  C_28
REMARK    6  A    between atoms: O_7  and  C_31
REMARK    7  A    between atoms: N_8  and  C_12
REMARK    8  A    between atoms: N_9  and  C_21
REMARK    9  A    between atoms: C_16  and  C_18
REMARK                            x       y       z     vdW  Elec       q    Type
REMARK                         _______ _______ _______ _____ _____    ______ ____
ROOT
ATOM      1  O   UNL     1      -2.831   2.957  25.837  0.00  0.00    -0.368 OA
ATOM      2  O   UNL     1      -5.075   4.499  24.426  0.00  0.00    -0.368 OA
ATOM     10  C   UNL     1      -4.566   3.162  24.234  0.00  0.00    +0.173 C 
ATOM     11  C   UNL     1      -3.066   3.230  24.446  0.00  0.00    +0.192 C 
ATOM     12  C   UNL     1      -5.049   2.257  25.343  0.00  0.00    +0.130 C 
ATOM     13  C   UNL     1      -2.750   4.663  24.095  0.00  0.00    +0.235 C 
ATOM     14  C   UNL     1      -4.064   2.561  26.459  0.00  0.00    +0.185 C 
ATOM     15  C   UNL     1      -3.969   5.394  24.612  0.00  0.00    +0.207 C 
ENDROOT
BRANCH  12   8
ATOM      4  O   UNL     1      -2.863   0.450  25.785  0.00  0.00    -0.270 OA
ATOM      8  N   UNL     1      -4.986   0.871  24.952  0.00  0.00    -0.304 N 
ATOM     16  C   UNL     1      -3.880   0.073  25.211  0.00  0.00    +0.244 C 
ATOM     32  H   UNL     1      -5.744   0.518  24.378  0.00  0.00    +0.149 HD
BRANCH  16  18
ATOM     18  C   UNL     1      -3.960  -1.328  24.721  0.00  0.00    +0.037 A 
ATOM     19  C   UNL     1      -3.354  -2.356  25.443  0.00  0.00    +0.013 A 
ATOM     20  C   UNL     1      -4.642  -1.616  23.538  0.00  0.00    +0.013 A 
ATOM     22  C   UNL     1      -3.430  -3.670  24.984  0.00  0.00    +0.001 A 
ATOM     23  C   UNL     1      -4.717  -2.930  23.078  0.00  0.00    +0.001 A 
ATOM     24  C   UNL     1      -4.111  -3.958  23.801  0.00  0.00    +0.000 A 
ENDBRANCH  16  18
ENDBRANCH  12   8
BRANCH  13   3
ATOM      3  O   UNL     1      -1.560   5.137  24.682  0.00  0.00    -0.442 OA
BRANCH   3  17
ATOM      5  O   UNL     1       0.298   4.330  25.745  0.00  0.00    -0.226 OA
ATOM      9  N   UNL     1      -0.662   3.209  23.928  0.00  0.00    -0.251 N 
ATOM     17  C   UNL     1      -0.547   4.217  24.866  0.00  0.00    +0.405 C 
ATOM     33  H   UNL     1      -1.437   3.290  23.274  0.00  0.00    +0.158 HD
BRANCH   9  21
ATOM     21  C   UNL     1       0.166   2.075  23.764  0.00  0.00    +0.043 A 
ATOM     25  C   UNL     1       1.508   2.236  23.419  0.00  0.00    +0.069 A 
ATOM     26  C   UNL     1      -0.359   0.796  23.946  0.00  0.00    +0.069 A 
ATOM     27  C   UNL     1       0.460  -0.322  23.785  0.00  0.00    +0.125 A 
ATOM     28  C   UNL     1       2.326   1.118  23.259  0.00  0.00    +0.125 A 
ATOM     29  C   UNL     1       1.802  -0.161  23.441  0.00  0.00    +0.091 A 
BRANCH  27   6
ATOM      6  O   UNL     1      -0.052  -1.571  23.963  0.00  0.00    -0.495 OA
ATOM     30  C   UNL     1      -0.145  -2.049  25.304  0.00  0.00    +0.277 C 
ENDBRANCH  27   6
BRANCH  28   7
ATOM      7  O   UNL     1       3.636   1.275  22.923  0.00  0.00    -0.495 OA
ATOM     31  C   UNL     1       4.491   0.146  23.101  0.00  0.00    +0.277 C 
ENDBRANCH  28   7
ENDBRANCH   9  21
ENDBRANCH   3  17
ENDBRANCH  13   3
TORSDOF 7
ENDMDL
MODEL 10
REMARK VINA RESULT:       2.6      1.819      5.352
REMARK  Name = 11883367
REMARK  9 active torsions:
REMARK  status: ('A' for Active; 'I' for Inactive)
REMARK    1  A    between atoms: O_3  and  C_13
REMARK    2  A    between atoms: O_3  and  C_17
REMARK    3  A    between atoms: O_6  and  C_27
REMARK    4  A    between atoms: O_6  and  C_30
REMARK    5  A    between atoms: O_7  and  C_28
REMARK    6  A    between atoms: O_7  and  C_31
REMARK    7  A    between atoms: N_8  and  C_12
REMARK    8  A    between atoms: N_9  and  C_21
REMARK    9  A    between atoms: C_16  and  C_18
REMARK                            x       y       z     vdW  Elec       q    Type
REMARK                         _______ _______ _______ _____ _____    ______ ____
ROOT
ATOM      1  O   UNL     1      -3.192   3.225  23.872  0.00  0.00    -0.368 OA
ATOM      2  O   UNL     1      -2.015   5.133  25.964  0.00  0.00    -0.368 OA
ATOM     10  C   UNL     1      -1.473   3.954  25.333  0.00  0.00    +0.173 C 
ATOM     11  C   UNL     1      -2.621   2.978  25.168  0.00  0.00    +0.192 C 
ATOM     12  C   UNL     1      -1.056   4.267  23.916  0.00  0.00    +0.130 C 
ATOM     13  C   UNL     1      -3.558   3.385  26.279  0.00  0.00    +0.235 C 
ATOM     14  C   UNL     1      -2.372   4.166  23.163  0.00  0.00    +0.185 C 
ATOM     15  C   UNL     1      -3.386   4.887  26.309  0.00  0.00    +0.207 C 
ENDROOT
BRANCH  12   8
ATOM      4  O   UNL     1      -0.030   1.996  25.341  0.00  0.00    -0.270 OA
ATOM      8  N   UNL     1      -0.098   3.306  23.428  0.00  0.00    -0.304 N 
ATOM     16  C   UNL     1       0.340   2.235  24.194  0.00  0.00    +0.244 C 
ATOM     32  H   UNL     1       0.333   3.499  22.530  0.00  0.00    +0.149 HD
BRANCH  16  18
ATOM     18  C   UNL     1       1.348   1.349  23.557  0.00  0.00    +0.037 A 
ATOM     19  C   UNL     1       0.962   0.113  23.037  0.00  0.00    +0.013 A 
ATOM     20  C   UNL     1       2.682   1.752  23.477  0.00  0.00    +0.013 A 
ATOM     22  C   UNL     1       1.908  -0.718  22.437  0.00  0.00    +0.001 A 
ATOM     23  C   UNL     1       3.627   0.921  22.879  0.00  0.00    +0.001 A 
ATOM     24  C   UNL     1       3.241  -0.315  22.359  0.00  0.00    +0.000 A 
ENDBRANCH  16  18
ENDBRANCH  12   8
BRANCH  13   3
ATOM      3  O   UNL     1      -4.898   3.009  26.052  0.00  0.00    -0.442 OA
BRANCH   3  17
ATOM      5  O   UNL     1      -6.205   1.389  25.105  0.00  0.00    -0.226 OA
ATOM      9  N   UNL     1      -3.928   1.043  25.521  0.00  0.00    -0.251 N 
ATOM     17  C   UNL     1      -5.111   1.757  25.513  0.00  0.00    +0.405 C 
ATOM     33  H   UNL     1      -3.116   1.522  25.903  0.00  0.00    +0.158 HD
BRANCH   9  21
ATOM     21  C   UNL     1      -3.704  -0.276  25.062  0.00  0.00    +0.043 A 
ATOM     25  C   UNL     1      -4.700  -0.944  24.350  0.00  0.00    +0.069 A 
ATOM     26  C   UNL     1      -2.489  -0.908  25.322  0.00  0.00    +0.069 A 
ATOM     27  C   UNL     1      -2.269  -2.208  24.867  0.00  0.00    +0.125 A 
ATOM     28  C   UNL     1      -4.480  -2.243  23.895  0.00  0.00    +0.125 A 
ATOM     29  C   UNL     1      -3.265  -2.877  24.155  0.00  0.00    +0.091 A 
BRANCH  27   6
ATOM      6  O   UNL     1      -1.082  -2.826  25.120  0.00  0.00    -0.495 OA
ATOM     30  C   UNL     1       0.023  -1.992  25.465  0.00  0.00    +0.277 C 
ENDBRANCH  27   6
BRANCH  28   7
ATOM      7  O   UNL     1      -5.452  -2.895  23.200  0.00  0.00    -0.495 OA
ATOM     31  C   UNL     1      -5.044  -4.005  22.400  0.00  0.00    +0.277 C 
ENDBRANCH  28   7
ENDBRANCH   9  21
ENDBRANCH   3  17
ENDBRANCH  13   3
TORSDOF 7
ENDMDL
