MODEL 1
REMARK VINA RESULT:       3.6      0.000      0.000
REMARK  Name = 11883369
REMARK  10 active torsions:
REMARK  status: ('A' for Active; 'I' for Inactive)
REMARK    1  A    between atoms: O_6  and  C_16
REMARK    2  A    between atoms: O_6  and  C_20
REMARK    3  A    between atoms: O_9  and  C_31
REMARK    4  A    between atoms: O_9  and  C_34
REMARK    5  A    between atoms: O_10  and  C_32
REMARK    6  A    between atoms: O_10  and  C_35
REMARK    7  A    between atoms: N_11  and  C_15
REMARK    8  A    between atoms: N_12  and  C_24
REMARK    9  A    between atoms: C_19  and  C_21
REMARK   10  A    between atoms: C_27  and  C_30
REMARK                            x       y       z     vdW  Elec       q    Type
REMARK                         _______ _______ _______ _____ _____    ______ ____
ROOT
ATOM      4  O   UNL     1      -3.060  -0.610  25.797  0.00  0.00    -0.368 OA
ATOM      5  O   UNL     1      -4.087  -2.525  23.633  0.00  0.00    -0.368 OA
ATOM     13  C   UNL     1      -2.860  -1.773  23.740  0.00  0.00    +0.173 C 
ATOM     14  C   UNL     1      -3.215  -0.445  24.378  0.00  0.00    +0.192 C 
ATOM     15  C   UNL     1      -1.938  -2.423  24.745  0.00  0.00    +0.130 C 
ATOM     16  C   UNL     1      -4.663  -0.272  23.988  0.00  0.00    +0.235 C 
ATOM     17  C   UNL     1      -2.475  -1.894  26.064  0.00  0.00    +0.185 C 
ATOM     18  C   UNL     1      -5.180  -1.691  24.044  0.00  0.00    +0.207 C 
ENDROOT
BRANCH  15  11
ATOM      7  O   UNL     1      -1.035  -0.082  23.347  0.00  0.00    -0.270 OA
ATOM     11  N   UNL     1      -0.569  -2.019  24.535  0.00  0.00    -0.304 N 
ATOM     19  C   UNL     1      -0.229  -0.865  23.843  0.00  0.00    +0.244 C 
ATOM     36  H   UNL     1       0.153  -2.671  24.823  0.00  0.00    +0.149 HD
BRANCH  19  21
ATOM     21  C   UNL     1       1.226  -0.603  23.690  0.00  0.00    +0.037 A 
ATOM     22  C   UNL     1       1.665   0.636  23.224  0.00  0.00    +0.013 A 
ATOM     23  C   UNL     1       2.152  -1.595  24.013  0.00  0.00    +0.013 A 
ATOM     25  C   UNL     1       3.030   0.882  23.079  0.00  0.00    +0.013 A 
ATOM     26  C   UNL     1       3.517  -1.349  23.869  0.00  0.00    +0.013 A 
ATOM     27  C   UNL     1       3.957  -0.111  23.402  0.00  0.00    +0.055 A 
BRANCH  27  30
ATOM      1  F   UNL     1       5.859   0.052  21.962  0.00  0.00    -0.166 F 
ATOM      2  F   UNL     1       6.205  -0.701  23.966  0.00  0.00    -0.166 F 
ATOM      3  F   UNL     1       5.768   1.407  23.660  0.00  0.00    -0.166 F 
ATOM     30  C   UNL     1       5.416   0.154  23.249  0.00  0.00    +0.417 C 
ENDBRANCH  27  30
ENDBRANCH  19  21
ENDBRANCH  15  11
BRANCH  16   6
ATOM      6  O   UNL     1      -5.378   0.587  24.848  0.00  0.00    -0.442 OA
BRANCH   6  20
ATOM      8  O   UNL     1      -5.236   2.532  26.042  0.00  0.00    -0.226 OA
ATOM     12  N   UNL     1      -3.400   1.671  24.873  0.00  0.00    -0.251 N 
ATOM     20  C   UNL     1      -4.705   1.692  25.327  0.00  0.00    +0.405 C 
ATOM     37  H   UNL     1      -3.142   0.884  24.284  0.00  0.00    +0.158 HD
BRANCH  12  24
ATOM     24  C   UNL     1      -2.375   2.610  25.128  0.00  0.00    +0.043 A 
ATOM     28  C   UNL     1      -2.557   3.950  24.792  0.00  0.00    +0.069 A 
ATOM     29  C   UNL     1      -1.178   2.195  25.715  0.00  0.00    +0.069 A 
ATOM     31  C   UNL     1      -0.167   3.121  25.965  0.00  0.00    +0.125 A 
ATOM     32  C   UNL     1      -1.544   4.877  25.042  0.00  0.00    +0.125 A 
ATOM     33  C   UNL     1      -0.349   4.462  25.628  0.00  0.00    +0.091 A 
BRANCH  31   9
ATOM      9  O   UNL     1       1.001   2.715  26.536  0.00  0.00    -0.495 OA
ATOM     34  C   UNL     1       0.997   2.513  27.949  0.00  0.00    +0.277 C 
ENDBRANCH  31   9
BRANCH  32  10
ATOM     10  O   UNL     1      -1.722   6.185  24.712  0.00  0.00    -0.495 OA
ATOM     35  C   UNL     1      -2.714   6.478  23.729  0.00  0.00    +0.277 C 
ENDBRANCH  32  10
ENDBRANCH  12  24
ENDBRANCH   6  20
ENDBRANCH  16   6
TORSDOF 8
ENDMDL
MODEL 2
REMARK VINA RESULT:       3.6      0.064      2.400
REMARK  Name = 11883369
REMARK  10 active torsions:
REMARK  status: ('A' for Active; 'I' for Inactive)
REMARK    1  A    between atoms: O_6  and  C_16
REMARK    2  A    between atoms: O_6  and  C_20
REMARK    3  A    between atoms: O_9  and  C_31
REMARK    4  A    between atoms: O_9  and  C_34
REMARK    5  A    between atoms: O_10  and  C_32
REMARK    6  A    between atoms: O_10  and  C_35
REMARK    7  A    between atoms: N_11  and  C_15
REMARK    8  A    between atoms: N_12  and  C_24
REMARK    9  A    between atoms: C_19  and  C_21
REMARK   10  A    between atoms: C_27  and  C_30
REMARK                            x       y       z     vdW  Elec       q    Type
REMARK                         _______ _______ _______ _____ _____    ______ ____
ROOT
ATOM      4  O   UNL     1      -3.086  -0.646  25.807  0.00  0.00    -0.368 OA
ATOM      5  O   UNL     1      -4.112  -2.534  23.619  0.00  0.00    -0.368 OA
ATOM     13  C   UNL     1      -2.886  -1.781  23.735  0.00  0.00    +0.173 C 
ATOM     14  C   UNL     1      -3.242  -0.462  24.390  0.00  0.00    +0.192 C 
ATOM     15  C   UNL     1      -1.962  -2.442  24.730  0.00  0.00    +0.130 C 
ATOM     16  C   UNL     1      -4.691  -0.286  24.004  0.00  0.00    +0.235 C 
ATOM     17  C   UNL     1      -2.499  -1.931  26.056  0.00  0.00    +0.185 C 
ATOM     18  C   UNL     1      -5.206  -1.707  24.042  0.00  0.00    +0.207 C 
ENDROOT
BRANCH  15  11
ATOM      7  O   UNL     1      -1.064  -0.091  23.346  0.00  0.00    -0.270 OA
ATOM     11  N   UNL     1      -0.594  -2.033  24.525  0.00  0.00    -0.304 N 
ATOM     19  C   UNL     1      -0.256  -0.875  23.839  0.00  0.00    +0.244 C 
ATOM     36  H   UNL     1       0.130  -2.684  24.810  0.00  0.00    +0.149 HD
BRANCH  19  21
ATOM     21  C   UNL     1       1.198  -0.608  23.690  0.00  0.00    +0.037 A 
ATOM     22  C   UNL     1       2.125  -1.596  24.022  0.00  0.00    +0.013 A 
ATOM     23  C   UNL     1       1.636   0.630  23.218  0.00  0.00    +0.013 A 
ATOM     25  C   UNL     1       3.490  -1.346  23.884  0.00  0.00    +0.013 A 
ATOM     26  C   UNL     1       3.001   0.880  23.080  0.00  0.00    +0.013 A 
ATOM     27  C   UNL     1       3.929  -0.108  23.412  0.00  0.00    +0.055 A 
BRANCH  27  30
ATOM      1  F   UNL     1       6.177  -0.698  23.976  0.00  0.00    -0.166 F 
ATOM      2  F   UNL     1       5.762   1.408  23.668  0.00  0.00    -0.166 F 
ATOM      3  F   UNL     1       5.810   0.053  21.968  0.00  0.00    -0.166 F 
ATOM     30  C   UNL     1       5.388   0.158  23.262  0.00  0.00    +0.417 C 
ENDBRANCH  27  30
ENDBRANCH  19  21
ENDBRANCH  15  11
BRANCH  16   6
ATOM      6  O   UNL     1      -5.407   0.560  24.876  0.00  0.00    -0.442 OA
BRANCH   6  20
ATOM      8  O   UNL     1      -5.275   2.500  26.080  0.00  0.00    -0.226 OA
ATOM     12  N   UNL     1      -3.448   1.679  24.869  0.00  0.00    -0.251 N 
ATOM     20  C   UNL     1      -4.744   1.673  25.348  0.00  0.00    +0.405 C 
ATOM     37  H   UNL     1      -3.189   0.900  24.269  0.00  0.00    +0.158 HD
BRANCH  12  24
ATOM     24  C   UNL     1      -2.435   2.633  25.108  0.00  0.00    +0.043 A 
ATOM     28  C   UNL     1      -1.223   2.239  25.673  0.00  0.00    +0.069 A 
ATOM     29  C   UNL     1      -2.646   3.974  24.780  0.00  0.00    +0.069 A 
ATOM     31  C   UNL     1      -1.646   4.916  25.017  0.00  0.00    +0.125 A 
ATOM     32  C   UNL     1      -0.222   3.181  25.911  0.00  0.00    +0.125 A 
ATOM     33  C   UNL     1      -0.435   4.521  25.583  0.00  0.00    +0.091 A 
BRANCH  31   9
ATOM      9  O   UNL     1      -1.854   6.223  24.699  0.00  0.00    -0.495 OA
ATOM     34  C   UNL     1      -2.822   6.499  23.687  0.00  0.00    +0.277 C 
ENDBRANCH  31   9
BRANCH  32  10
ATOM     10  O   UNL     1       0.959   2.796  26.465  0.00  0.00    -0.495 OA
ATOM     35  C   UNL     1       0.952   2.485  27.858  0.00  0.00    +0.277 C 
ENDBRANCH  32  10
ENDBRANCH  12  24
ENDBRANCH   6  20
ENDBRANCH  16   6
TORSDOF 8
ENDMDL
MODEL 3
REMARK VINA RESULT:       4.4      1.809      4.798
REMARK  Name = 11883369
REMARK  10 active torsions:
REMARK  status: ('A' for Active; 'I' for Inactive)
REMARK    1  A    between atoms: O_6  and  C_16
REMARK    2  A    between atoms: O_6  and  C_20
REMARK    3  A    between atoms: O_9  and  C_31
REMARK    4  A    between atoms: O_9  and  C_34
REMARK    5  A    between atoms: O_10  and  C_32
REMARK    6  A    between atoms: O_10  and  C_35
REMARK    7  A    between atoms: N_11  and  C_15
REMARK    8  A    between atoms: N_12  and  C_24
REMARK    9  A    between atoms: C_19  and  C_21
REMARK   10  A    between atoms: C_27  and  C_30
REMARK                            x       y       z     vdW  Elec       q    Type
REMARK                         _______ _______ _______ _____ _____    ______ ____
ROOT
ATOM      4  O   UNL     1      -2.947   2.665  23.868  0.00  0.00    -0.368 OA
ATOM      5  O   UNL     1      -2.481   5.355  25.267  0.00  0.00    -0.368 OA
ATOM     13  C   UNL     1      -1.651   4.180  25.153  0.00  0.00    +0.173 C 
ATOM     14  C   UNL     1      -2.575   2.981  25.220  0.00  0.00    +0.192 C 
ATOM     15  C   UNL     1      -1.053   4.099  23.768  0.00  0.00    +0.130 C 
ATOM     16  C   UNL     1      -3.744   3.515  26.012  0.00  0.00    +0.235 C 
ATOM     17  C   UNL     1      -2.183   3.479  22.965  0.00  0.00    +0.185 C 
ATOM     18  C   UNL     1      -3.832   4.944  25.529  0.00  0.00    +0.207 C 
ENDROOT
BRANCH  15  11
ATOM      7  O   UNL     1      -0.887   1.394  22.818  0.00  0.00    -0.270 OA
ATOM     11  N   UNL     1       0.122   3.261  23.754  0.00  0.00    -0.304 N 
ATOM     19  C   UNL     1       0.104   1.959  23.273  0.00  0.00    +0.244 C 
ATOM     36  H   UNL     1       0.952   3.623  24.211  0.00  0.00    +0.149 HD
BRANCH  19  21
ATOM     21  C   UNL     1       1.391   1.220  23.351  0.00  0.00    +0.037 A 
ATOM     22  C   UNL     1       2.599   1.914  23.283  0.00  0.00    +0.013 A 
ATOM     23  C   UNL     1       1.391  -0.168  23.494  0.00  0.00    +0.013 A 
ATOM     25  C   UNL     1       3.806   1.221  23.356  0.00  0.00    +0.013 A 
ATOM     26  C   UNL     1       2.599  -0.861  23.566  0.00  0.00    +0.013 A 
ATOM     27  C   UNL     1       3.807  -0.167  23.497  0.00  0.00    +0.055 A 
BRANCH  27  30
ATOM      1  F   UNL     1       4.960  -2.263  23.470  0.00  0.00    -0.166 F 
ATOM      2  F   UNL     1       5.771  -0.711  24.750  0.00  0.00    -0.166 F 
ATOM      3  F   UNL     1       5.971  -0.550  22.590  0.00  0.00    -0.166 F 
ATOM     30  C   UNL     1       5.098  -0.908  23.577  0.00  0.00    +0.417 C 
ENDBRANCH  27  30
ENDBRANCH  19  21
ENDBRANCH  15  11
BRANCH  16   6
ATOM      6  O   UNL     1      -4.944   2.806  25.791  0.00  0.00    -0.442 OA
BRANCH   6  20
ATOM      8  O   UNL     1      -5.741   0.909  24.794  0.00  0.00    -0.226 OA
ATOM     12  N   UNL     1      -3.561   1.030  25.637  0.00  0.00    -0.251 N 
ATOM     20  C   UNL     1      -4.827   1.505  25.350  0.00  0.00    +0.405 C 
ATOM     37  H   UNL     1      -2.935   1.679  26.108  0.00  0.00    +0.158 HD
BRANCH  12  24
ATOM     24  C   UNL     1      -3.026  -0.247  25.358  0.00  0.00    +0.043 A 
ATOM     28  C   UNL     1      -3.825  -1.225  24.769  0.00  0.00    +0.069 A 
ATOM     29  C   UNL     1      -1.696  -0.530  25.672  0.00  0.00    +0.069 A 
ATOM     31  C   UNL     1      -1.168  -1.791  25.397  0.00  0.00    +0.125 A 
ATOM     32  C   UNL     1      -3.297  -2.487  24.494  0.00  0.00    +0.125 A 
ATOM     33  C   UNL     1      -1.968  -2.770  24.809  0.00  0.00    +0.091 A 
BRANCH  31   9
ATOM      9  O   UNL     1       0.129  -2.068  25.706  0.00  0.00    -0.495 OA
ATOM     34  C   UNL     1       0.591  -3.393  25.444  0.00  0.00    +0.277 C 
ENDBRANCH  31   9
BRANCH  32  10
ATOM     10  O   UNL     1      -4.079  -3.443  23.921  0.00  0.00    -0.495 OA
ATOM     35  C   UNL     1      -5.231  -2.996  23.207  0.00  0.00    +0.277 C 
ENDBRANCH  32  10
ENDBRANCH  12  24
ENDBRANCH   6  20
ENDBRANCH  16   6
TORSDOF 8
ENDMDL
MODEL 4
REMARK VINA RESULT:       4.4      1.812      5.126
REMARK  Name = 11883369
REMARK  10 active torsions:
REMARK  status: ('A' for Active; 'I' for Inactive)
REMARK    1  A    between atoms: O_6  and  C_16
REMARK    2  A    between atoms: O_6  and  C_20
REMARK    3  A    between atoms: O_9  and  C_31
REMARK    4  A    between atoms: O_9  and  C_34
REMARK    5  A    between atoms: O_10  and  C_32
REMARK    6  A    between atoms: O_10  and  C_35
REMARK    7  A    between atoms: N_11  and  C_15
REMARK    8  A    between atoms: N_12  and  C_24
REMARK    9  A    between atoms: C_19  and  C_21
REMARK   10  A    between atoms: C_27  and  C_30
REMARK                            x       y       z     vdW  Elec       q    Type
REMARK                         _______ _______ _______ _____ _____    ______ ____
ROOT
ATOM      4  O   UNL     1      -2.933   2.709  23.902  0.00  0.00    -0.368 OA
ATOM      5  O   UNL     1      -2.466   5.357  25.377  0.00  0.00    -0.368 OA
ATOM     13  C   UNL     1      -1.639   4.183  25.235  0.00  0.00    +0.173 C 
ATOM     14  C   UNL     1      -2.569   2.986  25.264  0.00  0.00    +0.192 C 
ATOM     15  C   UNL     1      -1.033   4.137  23.852  0.00  0.00    +0.130 C 
ATOM     16  C   UNL     1      -3.741   3.503  26.063  0.00  0.00    +0.235 C 
ATOM     17  C   UNL     1      -2.161   3.545  23.026  0.00  0.00    +0.185 C 
ATOM     18  C   UNL     1      -3.819   4.945  25.619  0.00  0.00    +0.207 C 
ENDROOT
BRANCH  15  11
ATOM      7  O   UNL     1      -0.869   1.463  22.817  0.00  0.00    -0.270 OA
ATOM     11  N   UNL     1       0.138   3.295  23.822  0.00  0.00    -0.304 N 
ATOM     19  C   UNL     1       0.120   2.010  23.299  0.00  0.00    +0.244 C 
ATOM     36  H   UNL     1       0.965   3.638  24.300  0.00  0.00    +0.149 HD
BRANCH  19  21
ATOM     21  C   UNL     1       1.403   1.262  23.366  0.00  0.00    +0.037 A 
ATOM     22  C   UNL     1       1.394  -0.120  23.554  0.00  0.00    +0.013 A 
ATOM     23  C   UNL     1       2.614   1.942  23.242  0.00  0.00    +0.013 A 
ATOM     25  C   UNL     1       2.597  -0.822  23.618  0.00  0.00    +0.013 A 
ATOM     26  C   UNL     1       3.818   1.240  23.306  0.00  0.00    +0.013 A 
ATOM     27  C   UNL     1       3.810  -0.142  23.494  0.00  0.00    +0.055 A 
BRANCH  27  30
ATOM      1  F   UNL     1       5.984  -0.546  22.582  0.00  0.00    -0.166 F 
ATOM      2  F   UNL     1       4.947  -2.246  23.442  0.00  0.00    -0.166 F 
ATOM      3  F   UNL     1       5.756  -0.701  24.740  0.00  0.00    -0.166 F 
ATOM     30  C   UNL     1       5.096  -0.894  23.561  0.00  0.00    +0.417 C 
ENDBRANCH  27  30
ENDBRANCH  19  21
ENDBRANCH  15  11
BRANCH  16   6
ATOM      6  O   UNL     1      -4.942   2.806  25.815  0.00  0.00    -0.442 OA
BRANCH   6  20
ATOM      8  O   UNL     1      -5.735   0.928  24.780  0.00  0.00    -0.226 OA
ATOM     12  N   UNL     1      -3.572   1.019  25.669  0.00  0.00    -0.251 N 
ATOM     20  C   UNL     1      -4.827   1.508  25.361  0.00  0.00    +0.405 C 
ATOM     37  H   UNL     1      -2.950   1.656  26.159  0.00  0.00    +0.158 HD
BRANCH  12  24
ATOM     24  C   UNL     1      -3.042  -0.260  25.385  0.00  0.00    +0.043 A 
ATOM     28  C   UNL     1      -1.706  -0.540  25.667  0.00  0.00    +0.069 A 
ATOM     29  C   UNL     1      -3.857  -1.243  24.822  0.00  0.00    +0.069 A 
ATOM     31  C   UNL     1      -3.334  -2.505  24.542  0.00  0.00    +0.125 A 
ATOM     32  C   UNL     1      -1.183  -1.802  25.386  0.00  0.00    +0.125 A 
ATOM     33  C   UNL     1      -1.997  -2.785  24.823  0.00  0.00    +0.091 A 
BRANCH  31   9
ATOM      9  O   UNL     1      -4.128  -3.463  23.991  0.00  0.00    -0.495 OA
ATOM     34  C   UNL     1      -5.220  -3.019  23.187  0.00  0.00    +0.277 C 
ENDBRANCH  31   9
BRANCH  32  10
ATOM     10  O   UNL     1       0.122  -2.075  25.660  0.00  0.00    -0.495 OA
ATOM     35  C   UNL     1       0.571  -3.408  25.419  0.00  0.00    +0.277 C 
ENDBRANCH  32  10
ENDBRANCH  12  24
ENDBRANCH   6  20
ENDBRANCH  16   6
TORSDOF 8
ENDMDL
MODEL 5
REMARK VINA RESULT:       6.8      1.443      2.832
REMARK  Name = 11883369
REMARK  10 active torsions:
REMARK  status: ('A' for Active; 'I' for Inactive)
REMARK    1  A    between atoms: O_6  and  C_16
REMARK    2  A    between atoms: O_6  and  C_20
REMARK    3  A    between atoms: O_9  and  C_31
REMARK    4  A    between atoms: O_9  and  C_34
REMARK    5  A    between atoms: O_10  and  C_32
REMARK    6  A    between atoms: O_10  and  C_35
REMARK    7  A    between atoms: N_11  and  C_15
REMARK    8  A    between atoms: N_12  and  C_24
REMARK    9  A    between atoms: C_19  and  C_21
REMARK   10  A    between atoms: C_27  and  C_30
REMARK                            x       y       z     vdW  Elec       q    Type
REMARK                         _______ _______ _______ _____ _____    ______ ____
ROOT
ATOM      4  O   UNL     1      -2.494  -0.437  24.738  0.00  0.00    -0.368 OA
ATOM      5  O   UNL     1      -2.904  -3.458  25.070  0.00  0.00    -0.368 OA
ATOM     13  C   UNL     1      -1.792  -2.695  24.555  0.00  0.00    +0.173 C 
ATOM     14  C   UNL     1      -2.380  -1.519  23.800  0.00  0.00    +0.192 C 
ATOM     15  C   UNL     1      -1.033  -2.051  25.691  0.00  0.00    +0.130 C 
ATOM     16  C   UNL     1      -3.733  -2.044  23.382  0.00  0.00    +0.235 C 
ATOM     17  C   UNL     1      -1.862  -0.811  25.972  0.00  0.00    +0.185 C 
ATOM     18  C   UNL     1      -4.125  -2.896  24.567  0.00  0.00    +0.207 C 
ENDROOT
BRANCH  15  11
ATOM      7  O   UNL     1      -0.273  -0.433  23.444  0.00  0.00    -0.270 OA
ATOM     11  N   UNL     1       0.310  -1.706  25.293  0.00  0.00    -0.304 N 
ATOM     19  C   UNL     1       0.580  -0.914  24.186  0.00  0.00    +0.244 C 
ATOM     36  H   UNL     1       1.070  -2.155  25.794  0.00  0.00    +0.149 HD
BRANCH  19  21
ATOM     21  C   UNL     1       2.017  -0.672  23.894  0.00  0.00    +0.037 A 
ATOM     22  C   UNL     1       2.960  -1.662  24.171  0.00  0.00    +0.013 A 
ATOM     23  C   UNL     1       2.422   0.544  23.343  0.00  0.00    +0.013 A 
ATOM     25  C   UNL     1       4.309  -1.434  23.898  0.00  0.00    +0.013 A 
ATOM     26  C   UNL     1       3.771   0.771  23.071  0.00  0.00    +0.013 A 
ATOM     27  C   UNL     1       4.715  -0.218  23.348  0.00  0.00    +0.055 A 
BRANCH  27  30
ATOM      1  F   UNL     1       7.004  -0.715  23.830  0.00  0.00    -0.166 F 
ATOM      2  F   UNL     1       6.544   1.320  23.240  0.00  0.00    -0.166 F 
ATOM      3  F   UNL     1       6.487  -0.276  21.764  0.00  0.00    -0.166 F 
ATOM     30  C   UNL     1       6.157   0.023  23.054  0.00  0.00    +0.417 C 
ENDBRANCH  27  30
ENDBRANCH  19  21
ENDBRANCH  15  11
BRANCH  16   6
ATOM      6  O   UNL     1      -4.675  -1.026  23.125  0.00  0.00    -0.442 OA
BRANCH   6  20
ATOM      8  O   UNL     1      -5.496  -0.095  25.046  0.00  0.00    -0.226 OA
ATOM     12  N   UNL     1      -3.953   1.034  23.695  0.00  0.00    -0.251 N 
ATOM     20  C   UNL     1      -4.773  -0.017  24.060  0.00  0.00    +0.405 C 
ATOM     37  H   UNL     1      -3.425   0.912  22.835  0.00  0.00    +0.158 HD
BRANCH  12  24
ATOM     24  C   UNL     1      -3.754   2.259  24.370  0.00  0.00    +0.043 A 
ATOM     28  C   UNL     1      -2.475   2.805  24.463  0.00  0.00    +0.069 A 
ATOM     29  C   UNL     1      -4.839   2.922  24.945  0.00  0.00    +0.069 A 
ATOM     31  C   UNL     1      -4.644   4.131  25.612  0.00  0.00    +0.125 A 
ATOM     32  C   UNL     1      -2.279   4.015  25.130  0.00  0.00    +0.125 A 
ATOM     33  C   UNL     1      -3.364   4.677  25.706  0.00  0.00    +0.091 A 
BRANCH  31   9
ATOM      9  O   UNL     1      -5.701   4.777  26.175  0.00  0.00    -0.495 OA
ATOM     34  C   UNL     1      -6.493   5.597  25.316  0.00  0.00    +0.277 C 
ENDBRANCH  31   9
BRANCH  32  10
ATOM     10  O   UNL     1      -1.030   4.547  25.223  0.00  0.00    -0.495 OA
ATOM     35  C   UNL     1       0.040   3.794  24.653  0.00  0.00    +0.277 C 
ENDBRANCH  32  10
ENDBRANCH  12  24
ENDBRANCH   6  20
ENDBRANCH  16   6
TORSDOF 8
ENDMDL
