MODEL 1
REMARK VINA RESULT:      -4.9      0.000      0.000
REMARK  Name = 28962238
REMARK  13 active torsions:
REMARK  status: ('A' for Active; 'I' for Inactive)
REMARK    1  A    between atoms: O_2  and  C_11
REMARK    2  A    between atoms: O_3  and  C_14
REMARK    3  A    between atoms: O_5  and  C_20
REMARK    4  A    between atoms: O_5  and  C_25
REMARK    5  A    between atoms: N_6  and  C_9
REMARK    6  A    between atoms: N_6  and  C_15
REMARK    7  A    between atoms: N_6  and  C_16
REMARK    8  A    between atoms: N_7  and  C_13
REMARK    9  A    between atoms: C_10  and  C_13
REMARK   10  A    between atoms: C_12  and  C_14
REMARK   11  A    between atoms: C_15  and  C_17
REMARK   12  A    between atoms: C_17  and  C_18
REMARK   13  A    between atoms: C_19  and  C_20
REMARK                            x       y       z     vdW  Elec       q    Type
REMARK                         _______ _______ _______ _____ _____    ______ ____
ROOT
ATOM      1  O   UNL     1      -0.115   1.115  25.833  0.00  0.00    -0.365 OA
ATOM      9  C   UNL     1      -2.145   2.182  25.194  0.00  0.00    +0.118 C 
ATOM     10  C   UNL     1      -1.186   1.031  24.866  0.00  0.00    +0.155 C 
ATOM     11  C   UNL     1      -1.243   3.196  25.880  0.00  0.00    +0.165 C 
ATOM     12  C   UNL     1      -0.326   2.269  26.670  0.00  0.00    +0.174 C 
ENDROOT
BRANCH  11   2
ATOM      2  O   UNL     1      -0.491   3.947  24.935  0.00  0.00    -0.388 OA
ATOM     26  H   UNL     1      -0.690   4.886  25.081  0.00  0.00    +0.210 HD
ENDBRANCH  11   2
BRANCH   9   6
ATOM      6  N   UNL     1      -2.930   2.700  24.088  0.00  0.00    -0.297 NA
ATOM     16  C   UNL     1      -3.579   3.962  24.454  0.00  0.00    +0.105 C 
BRANCH   6  15
ATOM     15  C   UNL     1      -3.936   1.723  23.659  0.00  0.00    +0.090 C 
BRANCH  15  17
ATOM     17  C   UNL     1      -4.506   0.962  24.857  0.00  0.00    +0.071 C 
BRANCH  17  18
ATOM      8  N   UNL     1      -4.440  -1.160  23.665  0.00  0.00    -0.260 NA
ATOM     18  C   UNL     1      -4.144  -0.501  24.806  0.00  0.00    +0.042 A 
ATOM     21  C   UNL     1      -3.536  -1.087  25.905  0.00  0.00    +0.023 A 
ATOM     22  C   UNL     1      -3.213  -2.438  25.826  0.00  0.00    +0.003 A 
ATOM     23  C   UNL     1      -4.112  -2.471  23.625  0.00  0.00    +0.111 A 
ATOM     24  C   UNL     1      -3.503  -3.150  24.668  0.00  0.00    +0.020 A 
ENDBRANCH  17  18
ENDBRANCH  15  17
ENDBRANCH   6  15
ENDBRANCH   9   6
BRANCH  10  13
ATOM     13  C   UNL     1      -0.546   1.048  23.482  0.00  0.00    +0.137 C 
BRANCH  13   7
ATOM      4  O   UNL     1       1.461  -0.337  21.928  0.00  0.00    -0.273 OA
ATOM      7  N   UNL     1       0.874   1.204  23.571  0.00  0.00    -0.311 N 
ATOM     19  C   UNL     1       1.773   0.491  22.780  0.00  0.00    +0.239 C 
ATOM     27  H   UNL     1       1.238   1.860  24.256  0.00  0.00    +0.149 HD
BRANCH  19  20
ATOM     20  C   UNL     1       3.211   0.853  23.084  0.00  0.00    +0.255 C 
BRANCH  20   5
ATOM      5  O   UNL     1       4.010  -0.309  23.163  0.00  0.00    -0.374 OA
ATOM     25  C   UNL     1       5.353  -0.005  23.528  0.00  0.00    +0.194 C 
ENDBRANCH  20   5
ENDBRANCH  19  20
ENDBRANCH  13   7
ENDBRANCH  10  13
BRANCH  12  14
ATOM     14  C   UNL     1       1.018   2.855  27.062  0.00  0.00    +0.190 C 
BRANCH  14   3
ATOM      3  O   UNL     1       1.299   2.499  28.405  0.00  0.00    -0.392 OA
ATOM     28  H   UNL     1       0.568   2.838  28.950  0.00  0.00    +0.210 HD
ENDBRANCH  14   3
ENDBRANCH  12  14
TORSDOF 11
ENDMDL
MODEL 2
REMARK VINA RESULT:      -4.6      2.008      4.226
REMARK  Name = 28962238
REMARK  13 active torsions:
REMARK  status: ('A' for Active; 'I' for Inactive)
REMARK    1  A    between atoms: O_2  and  C_11
REMARK    2  A    between atoms: O_3  and  C_14
REMARK    3  A    between atoms: O_5  and  C_20
REMARK    4  A    between atoms: O_5  and  C_25
REMARK    5  A    between atoms: N_6  and  C_9
REMARK    6  A    between atoms: N_6  and  C_15
REMARK    7  A    between atoms: N_6  and  C_16
REMARK    8  A    between atoms: N_7  and  C_13
REMARK    9  A    between atoms: C_10  and  C_13
REMARK   10  A    between atoms: C_12  and  C_14
REMARK   11  A    between atoms: C_15  and  C_17
REMARK   12  A    between atoms: C_17  and  C_18
REMARK   13  A    between atoms: C_19  and  C_20
REMARK                            x       y       z     vdW  Elec       q    Type
REMARK                         _______ _______ _______ _____ _____    ______ ____
ROOT
ATOM      1  O   UNL     1      -2.196  -0.996  23.833  0.00  0.00    -0.365 OA
ATOM      9  C   UNL     1      -1.287   1.047  24.651  0.00  0.00    +0.118 C 
ATOM     10  C   UNL     1      -1.141  -0.040  23.579  0.00  0.00    +0.155 C 
ATOM     11  C   UNL     1      -1.973   0.313  25.793  0.00  0.00    +0.165 C 
ATOM     12  C   UNL     1      -2.915  -0.599  25.016  0.00  0.00    +0.174 C 
ENDROOT
BRANCH  11   2
ATOM      2  O   UNL     1      -1.046  -0.460  26.546  0.00  0.00    -0.388 OA
ATOM     26  H   UNL     1      -0.278   0.105  26.735  0.00  0.00    +0.210 HD
ENDBRANCH  11   2
BRANCH   9   6
ATOM      6  N   UNL     1      -0.074   1.760  25.012  0.00  0.00    -0.297 NA
ATOM     16  C   UNL     1      -0.023   2.006  26.456  0.00  0.00    +0.105 C 
BRANCH   6  15
ATOM     15  C   UNL     1       0.023   3.028  24.282  0.00  0.00    +0.090 C 
BRANCH  15  17
ATOM     17  C   UNL     1      -0.752   4.133  24.998  0.00  0.00    +0.071 C 
BRANCH  17  18
ATOM      8  N   UNL     1      -2.770   3.456  23.816  0.00  0.00    -0.260 NA
ATOM     18  C   UNL     1      -2.236   3.865  24.988  0.00  0.00    +0.042 A 
ATOM     21  C   UNL     1      -2.966   4.045  26.152  0.00  0.00    +0.023 A 
ATOM     22  C   UNL     1      -4.332   3.788  26.110  0.00  0.00    +0.003 A 
ATOM     23  C   UNL     1      -4.100   3.216  23.814  0.00  0.00    +0.111 A 
ATOM     24  C   UNL     1      -4.917   3.365  24.923  0.00  0.00    +0.020 A 
ENDBRANCH  17  18
ENDBRANCH  15  17
ENDBRANCH   6  15
ENDBRANCH   9   6
BRANCH  10  13
ATOM     13  C   UNL     1       0.174  -0.812  23.562  0.00  0.00    +0.137 C 
BRANCH  13   7
ATOM      4  O   UNL     1       2.060  -0.392  21.411  0.00  0.00    -0.273 OA
ATOM      7  N   UNL     1       1.295   0.078  23.558  0.00  0.00    -0.311 N 
ATOM     19  C   UNL     1       2.157   0.218  22.472  0.00  0.00    +0.239 C 
ATOM     27  H   UNL     1       1.471   0.623  24.397  0.00  0.00    +0.149 HD
BRANCH  19  20
ATOM     20  C   UNL     1       3.254   1.226  22.741  0.00  0.00    +0.255 C 
BRANCH  20   5
ATOM      5  O   UNL     1       4.518   0.681  22.427  0.00  0.00    -0.374 OA
ATOM     25  C   UNL     1       5.191   0.198  23.586  0.00  0.00    +0.194 C 
ENDBRANCH  20   5
ENDBRANCH  19  20
ENDBRANCH  13   7
ENDBRANCH  10  13
BRANCH  12  14
ATOM     14  C   UNL     1      -3.384  -1.838  25.756  0.00  0.00    +0.190 C 
BRANCH  14   3
ATOM      3  O   UNL     1      -3.535  -2.898  24.826  0.00  0.00    -0.392 OA
ATOM     28  H   UNL     1      -2.982  -3.634  25.139  0.00  0.00    +0.210 HD
ENDBRANCH  14   3
ENDBRANCH  12  14
TORSDOF 11
ENDMDL
MODEL 3
REMARK VINA RESULT:      -4.5      1.962      2.770
REMARK  Name = 28962238
REMARK  13 active torsions:
REMARK  status: ('A' for Active; 'I' for Inactive)
REMARK    1  A    between atoms: O_2  and  C_11
REMARK    2  A    between atoms: O_3  and  C_14
REMARK    3  A    between atoms: O_5  and  C_20
REMARK    4  A    between atoms: O_5  and  C_25
REMARK    5  A    between atoms: N_6  and  C_9
REMARK    6  A    between atoms: N_6  and  C_15
REMARK    7  A    between atoms: N_6  and  C_16
REMARK    8  A    between atoms: N_7  and  C_13
REMARK    9  A    between atoms: C_10  and  C_13
REMARK   10  A    between atoms: C_12  and  C_14
REMARK   11  A    between atoms: C_15  and  C_17
REMARK   12  A    between atoms: C_17  and  C_18
REMARK   13  A    between atoms: C_19  and  C_20
REMARK                            x       y       z     vdW  Elec       q    Type
REMARK                         _______ _______ _______ _____ _____    ______ ____
ROOT
ATOM      1  O   UNL     1      -1.544   3.167  25.166  0.00  0.00    -0.365 OA
ATOM      9  C   UNL     1      -3.794   2.392  25.207  0.00  0.00    +0.118 C 
ATOM     10  C   UNL     1      -2.363   2.040  24.781  0.00  0.00    +0.155 C 
ATOM     11  C   UNL     1      -3.791   3.913  25.201  0.00  0.00    +0.165 C 
ATOM     12  C   UNL     1      -2.387   4.193  25.725  0.00  0.00    +0.174 C 
ENDROOT
BRANCH  11   2
ATOM      2  O   UNL     1      -3.939   4.429  23.884  0.00  0.00    -0.388 OA
ATOM     26  H   UNL     1      -4.866   4.303  23.622  0.00  0.00    +0.210 HD
ENDBRANCH  11   2
BRANCH   9   6
ATOM      6  N   UNL     1      -4.863   1.772  24.443  0.00  0.00    -0.297 NA
ATOM     16  C   UNL     1      -6.162   1.999  25.082  0.00  0.00    +0.105 C 
BRANCH   6  15
ATOM     15  C   UNL     1      -4.625   0.334  24.284  0.00  0.00    +0.090 C 
BRANCH  15  17
ATOM     17  C   UNL     1      -4.117  -0.284  25.587  0.00  0.00    +0.071 C 
BRANCH  17  18
ATOM      8  N   UNL     1      -1.777  -0.813  26.004  0.00  0.00    -0.260 NA
ATOM     18  C   UNL     1      -2.909  -1.156  25.351  0.00  0.00    +0.042 A 
ATOM     21  C   UNL     1      -3.013  -2.243  24.499  0.00  0.00    +0.023 A 
ATOM     22  C   UNL     1      -1.882  -3.028  24.305  0.00  0.00    +0.003 A 
ATOM     23  C   UNL     1      -0.698  -1.598  25.790  0.00  0.00    +0.111 A 
ATOM     24  C   UNL     1      -0.699  -2.707  24.959  0.00  0.00    +0.020 A 
ENDBRANCH  17  18
ENDBRANCH  15  17
ENDBRANCH   6  15
ENDBRANCH   9   6
BRANCH  10  13
ATOM     13  C   UNL     1      -2.133   1.801  23.293  0.00  0.00    +0.137 C 
BRANCH  13   7
ATOM      4  O   UNL     1       0.675   1.959  23.966  0.00  0.00    -0.273 OA
ATOM      7  N   UNL     1      -1.135   0.796  23.080  0.00  0.00    -0.311 N 
ATOM     19  C   UNL     1       0.202   0.957  23.437  0.00  0.00    +0.239 C 
ATOM     27  H   UNL     1      -1.423  -0.071  22.636  0.00  0.00    +0.149 HD
BRANCH  19  20
ATOM     20  C   UNL     1       1.033  -0.261  23.098  0.00  0.00    +0.255 C 
BRANCH  20   5
ATOM      5  O   UNL     1       1.957   0.037  22.073  0.00  0.00    -0.374 OA
ATOM     25  C   UNL     1       3.230   0.404  22.596  0.00  0.00    +0.194 C 
ENDBRANCH  20   5
ENDBRANCH  19  20
ENDBRANCH  13   7
ENDBRANCH  10  13
BRANCH  12  14
ATOM     14  C   UNL     1      -1.818   5.555  25.375  0.00  0.00    +0.190 C 
BRANCH  14   3
ATOM      3  O   UNL     1      -0.585   5.376  24.697  0.00  0.00    -0.392 OA
ATOM     28  H   UNL     1      -0.358   4.432  24.759  0.00  0.00    +0.210 HD
ENDBRANCH  14   3
ENDBRANCH  12  14
TORSDOF 11
ENDMDL
MODEL 4
REMARK VINA RESULT:      -4.4      2.313      6.019
REMARK  Name = 28962238
REMARK  13 active torsions:
REMARK  status: ('A' for Active; 'I' for Inactive)
REMARK    1  A    between atoms: O_2  and  C_11
REMARK    2  A    between atoms: O_3  and  C_14
REMARK    3  A    between atoms: O_5  and  C_20
REMARK    4  A    between atoms: O_5  and  C_25
REMARK    5  A    between atoms: N_6  and  C_9
REMARK    6  A    between atoms: N_6  and  C_15
REMARK    7  A    between atoms: N_6  and  C_16
REMARK    8  A    between atoms: N_7  and  C_13
REMARK    9  A    between atoms: C_10  and  C_13
REMARK   10  A    between atoms: C_12  and  C_14
REMARK   11  A    between atoms: C_15  and  C_17
REMARK   12  A    between atoms: C_17  and  C_18
REMARK   13  A    between atoms: C_19  and  C_20
REMARK                            x       y       z     vdW  Elec       q    Type
REMARK                         _______ _______ _______ _____ _____    ______ ____
ROOT
ATOM      1  O   UNL     1      -1.957   3.421  23.484  0.00  0.00    -0.365 OA
ATOM      9  C   UNL     1      -0.719   1.414  23.812  0.00  0.00    +0.118 C 
ATOM     10  C   UNL     1      -2.048   1.989  23.307  0.00  0.00    +0.155 C 
ATOM     11  C   UNL     1      -0.253   2.458  24.816  0.00  0.00    +0.165 C 
ATOM     12  C   UNL     1      -0.705   3.737  24.122  0.00  0.00    +0.174 C 
ENDROOT
BRANCH  11   2
ATOM      2  O   UNL     1      -0.918   2.312  26.065  0.00  0.00    -0.388 OA
ATOM     26  H   UNL     1      -1.792   1.925  25.888  0.00  0.00    +0.210 HD
ENDBRANCH  11   2
BRANCH   9   6
ATOM      6  N   UNL     1      -0.756   0.050  24.309  0.00  0.00    -0.297 NA
ATOM     16  C   UNL     1      -0.665   0.024  25.772  0.00  0.00    +0.105 C 
BRANCH   6  15
ATOM     15  C   UNL     1       0.325  -0.749  23.724  0.00  0.00    +0.090 C 
BRANCH  15  17
ATOM     17  C   UNL     1       1.154   0.084  22.746  0.00  0.00    +0.071 C 
BRANCH  17  18
ATOM      8  N   UNL     1       3.057  -1.207  23.546  0.00  0.00    -0.260 NA
ATOM     18  C   UNL     1       2.630  -0.033  23.033  0.00  0.00    +0.042 A 
ATOM     21  C   UNL     1       3.461   1.043  22.761  0.00  0.00    +0.023 A 
ATOM     22  C   UNL     1       4.817   0.902  23.034  0.00  0.00    +0.003 A 
ATOM     23  C   UNL     1       4.381  -1.307  23.800  0.00  0.00    +0.111 A 
ATOM     24  C   UNL     1       5.294  -0.292  23.563  0.00  0.00    +0.020 A 
ENDBRANCH  17  18
ENDBRANCH  15  17
ENDBRANCH   6  15
ENDBRANCH   9   6
BRANCH  10  13
ATOM     13  C   UNL     1      -3.311   1.523  24.023  0.00  0.00    +0.137 C 
BRANCH  13   7
ATOM      4  O   UNL     1      -4.141  -0.642  25.749  0.00  0.00    -0.273 OA
ATOM      7  N   UNL     1      -3.667   0.194  23.630  0.00  0.00    -0.311 N 
ATOM     19  C   UNL     1      -4.057  -0.792  24.533  0.00  0.00    +0.239 C 
ATOM     27  H   UNL     1      -3.620  -0.037  22.642  0.00  0.00    +0.149 HD
BRANCH  19  20
ATOM     20  C   UNL     1      -4.377  -2.102  23.845  0.00  0.00    +0.255 C 
BRANCH  20   5
ATOM      5  O   UNL     1      -3.701  -3.172  24.472  0.00  0.00    -0.374 OA
ATOM     25  C   UNL     1      -2.286  -3.014  24.410  0.00  0.00    +0.194 C 
ENDBRANCH  20   5
ENDBRANCH  19  20
ENDBRANCH  13   7
ENDBRANCH  10  13
BRANCH  12  14
ATOM     14  C   UNL     1      -0.894   4.941  25.027  0.00  0.00    +0.190 C 
BRANCH  14   3
ATOM      3  O   UNL     1      -2.127   4.808  25.714  0.00  0.00    -0.392 OA
ATOM     28  H   UNL     1      -2.000   5.178  26.605  0.00  0.00    +0.210 HD
ENDBRANCH  14   3
ENDBRANCH  12  14
TORSDOF 11
ENDMDL
MODEL 5
REMARK VINA RESULT:      -4.3      2.108      4.861
REMARK  Name = 28962238
REMARK  13 active torsions:
REMARK  status: ('A' for Active; 'I' for Inactive)
REMARK    1  A    between atoms: O_2  and  C_11
REMARK    2  A    between atoms: O_3  and  C_14
REMARK    3  A    between atoms: O_5  and  C_20
REMARK    4  A    between atoms: O_5  and  C_25
REMARK    5  A    between atoms: N_6  and  C_9
REMARK    6  A    between atoms: N_6  and  C_15
REMARK    7  A    between atoms: N_6  and  C_16
REMARK    8  A    between atoms: N_7  and  C_13
REMARK    9  A    between atoms: C_10  and  C_13
REMARK   10  A    between atoms: C_12  and  C_14
REMARK   11  A    between atoms: C_15  and  C_17
REMARK   12  A    between atoms: C_17  and  C_18
REMARK   13  A    between atoms: C_19  and  C_20
REMARK                            x       y       z     vdW  Elec       q    Type
REMARK                         _______ _______ _______ _____ _____    ______ ____
ROOT
ATOM      1  O   UNL     1      -3.103  -0.746  23.234  0.00  0.00    -0.365 OA
ATOM      9  C   UNL     1      -4.625   0.653  24.414  0.00  0.00    +0.118 C 
ATOM     10  C   UNL     1      -3.332   0.636  23.590  0.00  0.00    +0.155 C 
ATOM     11  C   UNL     1      -4.675  -0.747  25.005  0.00  0.00    +0.165 C 
ATOM     12  C   UNL     1      -4.122  -1.563  23.842  0.00  0.00    +0.174 C 
ENDROOT
BRANCH  11   2
ATOM      2  O   UNL     1      -3.824  -0.864  26.139  0.00  0.00    -0.388 OA
ATOM     26  H   UNL     1      -2.946  -1.131  25.820  0.00  0.00    +0.210 HD
ENDBRANCH  11   2
BRANCH   9   6
ATOM      6  N   UNL     1      -4.762   1.735  25.373  0.00  0.00    -0.297 NA
ATOM     16  C   UNL     1      -6.025   1.625  26.109  0.00  0.00    +0.105 C 
BRANCH   6  15
ATOM     15  C   UNL     1      -4.682   3.038  24.706  0.00  0.00    +0.090 C 
BRANCH  15  17
ATOM     17  C   UNL     1      -4.036   4.082  25.617  0.00  0.00    +0.071 C 
BRANCH  17  18
ATOM      8  N   UNL     1      -1.941   3.093  26.367  0.00  0.00    -0.260 NA
ATOM     18  C   UNL     1      -2.530   4.007  25.564  0.00  0.00    +0.042 A 
ATOM     21  C   UNL     1      -1.838   4.855  24.715  0.00  0.00    +0.023 A 
ATOM     22  C   UNL     1      -0.451   4.760  24.689  0.00  0.00    +0.003 A 
ATOM     23  C   UNL     1      -0.591   3.030  26.315  0.00  0.00    +0.111 A 
ATOM     24  C   UNL     1       0.192   3.832  25.501  0.00  0.00    +0.020 A 
ENDBRANCH  17  18
ENDBRANCH  15  17
ENDBRANCH   6  15
ENDBRANCH   9   6
BRANCH  10  13
ATOM     13  C   UNL     1      -2.071   1.139  24.286  0.00  0.00    +0.137 C 
BRANCH  13   7
ATOM      4  O   UNL     1      -0.053  -0.889  24.706  0.00  0.00    -0.273 OA
ATOM      7  N   UNL     1      -0.909   0.898  23.485  0.00  0.00    -0.311 N 
ATOM     19  C   UNL     1       0.016  -0.106  23.763  0.00  0.00    +0.239 C 
ATOM     27  H   UNL     1      -0.752   1.501  22.683  0.00  0.00    +0.149 HD
BRANCH  19  20
ATOM     20  C   UNL     1       1.145  -0.135  22.755  0.00  0.00    +0.255 C 
BRANCH  20   5
ATOM      5  O   UNL     1       2.119   0.838  23.070  0.00  0.00    -0.374 OA
ATOM     25  C   UNL     1       3.401   0.492  22.552  0.00  0.00    +0.194 C 
ENDBRANCH  20   5
ENDBRANCH  19  20
ENDBRANCH  13   7
ENDBRANCH  10  13
BRANCH  12  14
ATOM     14  C   UNL     1      -3.529  -2.910  24.211  0.00  0.00    +0.190 C 
BRANCH  14   3
ATOM      3  O   UNL     1      -2.153  -2.740  24.508  0.00  0.00    -0.392 OA
ATOM     28  H   UNL     1      -1.970  -3.247  25.318  0.00  0.00    +0.210 HD
ENDBRANCH  14   3
ENDBRANCH  12  14
TORSDOF 11
ENDMDL
MODEL 6
REMARK VINA RESULT:      -4.2      2.494      5.671
REMARK  Name = 28962238
REMARK  13 active torsions:
REMARK  status: ('A' for Active; 'I' for Inactive)
REMARK    1  A    between atoms: O_2  and  C_11
REMARK    2  A    between atoms: O_3  and  C_14
REMARK    3  A    between atoms: O_5  and  C_20
REMARK    4  A    between atoms: O_5  and  C_25
REMARK    5  A    between atoms: N_6  and  C_9
REMARK    6  A    between atoms: N_6  and  C_15
REMARK    7  A    between atoms: N_6  and  C_16
REMARK    8  A    between atoms: N_7  and  C_13
REMARK    9  A    between atoms: C_10  and  C_13
REMARK   10  A    between atoms: C_12  and  C_14
REMARK   11  A    between atoms: C_15  and  C_17
REMARK   12  A    between atoms: C_17  and  C_18
REMARK   13  A    between atoms: C_19  and  C_20
REMARK                            x       y       z     vdW  Elec       q    Type
REMARK                         _______ _______ _______ _____ _____    ______ ____
ROOT
ATOM      1  O   UNL     1      -4.609   2.175  24.519  0.00  0.00    -0.365 OA
ATOM      9  C   UNL     1      -2.644   3.517  24.423  0.00  0.00    +0.118 C 
ATOM     10  C   UNL     1      -3.180   2.084  24.319  0.00  0.00    +0.155 C 
ATOM     11  C   UNL     1      -3.677   4.207  25.301  0.00  0.00    +0.165 C 
ATOM     12  C   UNL     1      -4.957   3.544  24.804  0.00  0.00    +0.174 C 
ENDROOT
BRANCH  11   2
ATOM      2  O   UNL     1      -3.470   3.912  26.677  0.00  0.00    -0.388 OA
ATOM     26  H   UNL     1      -4.331   3.973  27.124  0.00  0.00    +0.210 HD
ENDBRANCH  11   2
BRANCH   9   6
ATOM      6  N   UNL     1      -1.266   3.659  24.859  0.00  0.00    -0.297 NA
ATOM     16  C   UNL     1      -0.913   5.071  25.023  0.00  0.00    +0.105 C 
BRANCH   6  15
ATOM     15  C   UNL     1      -0.350   3.017  23.911  0.00  0.00    +0.090 C 
BRANCH  15  17
ATOM     17  C   UNL     1       0.458   1.913  24.592  0.00  0.00    +0.071 C 
BRANCH  17  18
ATOM      8  N   UNL     1       2.614   1.523  23.528  0.00  0.00    -0.260 NA
ATOM     18  C   UNL     1       1.314   1.162  23.602  0.00  0.00    +0.042 A 
ATOM     21  C   UNL     1       0.741   0.161  22.834  0.00  0.00    +0.023 A 
ATOM     22  C   UNL     1       1.558  -0.513  21.932  0.00  0.00    +0.003 A 
ATOM     23  C   UNL     1       3.375   0.846  22.640  0.00  0.00    +0.111 A 
ATOM     24  C   UNL     1       2.900  -0.170  21.827  0.00  0.00    +0.020 A 
ENDBRANCH  17  18
ENDBRANCH  15  17
ENDBRANCH   6  15
ENDBRANCH   9   6
BRANCH  10  13
ATOM     13  C   UNL     1      -2.645   1.079  25.333  0.00  0.00    +0.137 C 
BRANCH  13   7
ATOM      4  O   UNL     1      -0.810  -1.092  25.862  0.00  0.00    -0.273 OA
ATOM      7  N   UNL     1      -2.718  -0.257  24.824  0.00  0.00    -0.311 N 
ATOM     19  C   UNL     1      -1.785  -1.245  25.132  0.00  0.00    +0.239 C 
ATOM     27  H   UNL     1      -3.485  -0.485  24.198  0.00  0.00    +0.149 HD
BRANCH  19  20
ATOM     20  C   UNL     1      -2.106  -2.562  24.458  0.00  0.00    +0.255 C 
BRANCH  20   5
ATOM      5  O   UNL     1      -3.427  -2.964  24.753  0.00  0.00    -0.374 OA
ATOM     25  C   UNL     1      -4.348  -2.534  23.754  0.00  0.00    +0.194 C 
ENDBRANCH  20   5
ENDBRANCH  19  20
ENDBRANCH  13   7
ENDBRANCH  10  13
BRANCH  12  14
ATOM     14  C   UNL     1      -6.126   3.572  25.772  0.00  0.00    +0.190 C 
BRANCH  14   3
ATOM      3  O   UNL     1      -6.142   2.359  26.506  0.00  0.00    -0.392 OA
ATOM     28  H   UNL     1      -6.969   1.898  26.280  0.00  0.00    +0.210 HD
ENDBRANCH  14   3
ENDBRANCH  12  14
TORSDOF 11
ENDMDL
MODEL 7
REMARK VINA RESULT:      -4.1      2.590      6.585
REMARK  Name = 28962238
REMARK  13 active torsions:
REMARK  status: ('A' for Active; 'I' for Inactive)
REMARK    1  A    between atoms: O_2  and  C_11
REMARK    2  A    between atoms: O_3  and  C_14
REMARK    3  A    between atoms: O_5  and  C_20
REMARK    4  A    between atoms: O_5  and  C_25
REMARK    5  A    between atoms: N_6  and  C_9
REMARK    6  A    between atoms: N_6  and  C_15
REMARK    7  A    between atoms: N_6  and  C_16
REMARK    8  A    between atoms: N_7  and  C_13
REMARK    9  A    between atoms: C_10  and  C_13
REMARK   10  A    between atoms: C_12  and  C_14
REMARK   11  A    between atoms: C_15  and  C_17
REMARK   12  A    between atoms: C_17  and  C_18
REMARK   13  A    between atoms: C_19  and  C_20
REMARK                            x       y       z     vdW  Elec       q    Type
REMARK                         _______ _______ _______ _____ _____    ______ ____
ROOT
ATOM      1  O   UNL     1      -1.920   2.856  23.627  0.00  0.00    -0.365 OA
ATOM      9  C   UNL     1      -0.541   0.920  23.775  0.00  0.00    +0.118 C 
ATOM     10  C   UNL     1      -1.717   1.558  23.024  0.00  0.00    +0.155 C 
ATOM     11  C   UNL     1      -0.591   1.602  25.134  0.00  0.00    +0.165 C 
ATOM     12  C   UNL     1      -1.001   3.012  24.726  0.00  0.00    +0.174 C 
ENDROOT
BRANCH  11   2
ATOM      2  O   UNL     1      -1.584   1.022  25.971  0.00  0.00    -0.388 OA
ATOM     26  H   UNL     1      -2.438   1.106  25.515  0.00  0.00    +0.210 HD
ENDBRANCH  11   2
BRANCH   9   6
ATOM      6  N   UNL     1      -0.513  -0.531  23.811  0.00  0.00    -0.297 NA
ATOM     16  C   UNL     1      -0.580  -1.021  25.191  0.00  0.00    +0.105 C 
BRANCH   6  15
ATOM     15  C   UNL     1       0.692  -1.046  23.153  0.00  0.00    +0.090 C 
BRANCH  15  17
ATOM     17  C   UNL     1       1.552   0.096  22.613  0.00  0.00    +0.071 C 
BRANCH  17  18
ATOM      8  N   UNL     1       3.360  -1.252  23.530  0.00  0.00    -0.260 NA
ATOM     18  C   UNL     1       2.995  -0.053  23.027  0.00  0.00    +0.042 A 
ATOM     21  C   UNL     1       3.858   1.021  22.875  0.00  0.00    +0.023 A 
ATOM     22  C   UNL     1       5.182   0.850  23.264  0.00  0.00    +0.003 A 
ATOM     23  C   UNL     1       4.654  -1.380  23.899  0.00  0.00    +0.111 A 
ATOM     24  C   UNL     1       5.596  -0.369  23.787  0.00  0.00    +0.020 A 
ENDBRANCH  17  18
ENDBRANCH  15  17
ENDBRANCH   6  15
ENDBRANCH   9   6
BRANCH  10  13
ATOM     13  C   UNL     1      -3.049   0.818  23.085  0.00  0.00    +0.137 C 
BRANCH  13   7
ATOM      4  O   UNL     1      -4.400  -0.150  25.451  0.00  0.00    -0.273 OA
ATOM      7  N   UNL     1      -3.997   1.528  23.889  0.00  0.00    -0.311 N 
ATOM     19  C   UNL     1      -4.603   0.981  25.018  0.00  0.00    +0.239 C 
ATOM     27  H   UNL     1      -4.244   2.472  23.609  0.00  0.00    +0.149 HD
BRANCH  19  20
ATOM     20  C   UNL     1      -5.562   1.951  25.676  0.00  0.00    +0.255 C 
BRANCH  20   5
ATOM      5  O   UNL     1      -4.886   3.123  26.079  0.00  0.00    -0.374 OA
ATOM     25  C   UNL     1      -5.415   4.284  25.445  0.00  0.00    +0.194 C 
ENDBRANCH  20   5
ENDBRANCH  19  20
ENDBRANCH  13   7
ENDBRANCH  10  13
BRANCH  12  14
ATOM     14  C   UNL     1      -1.658   3.843  25.813  0.00  0.00    +0.190 C 
BRANCH  14   3
ATOM      3  O   UNL     1      -1.700   5.197  25.394  0.00  0.00    -0.392 OA
ATOM     28  H   UNL     1      -1.072   5.287  24.656  0.00  0.00    +0.210 HD
ENDBRANCH  14   3
ENDBRANCH  12  14
TORSDOF 11
ENDMDL
MODEL 8
REMARK VINA RESULT:      -3.5      2.185      3.512
REMARK  Name = 28962238
REMARK  13 active torsions:
REMARK  status: ('A' for Active; 'I' for Inactive)
REMARK    1  A    between atoms: O_2  and  C_11
REMARK    2  A    between atoms: O_3  and  C_14
REMARK    3  A    between atoms: O_5  and  C_20
REMARK    4  A    between atoms: O_5  and  C_25
REMARK    5  A    between atoms: N_6  and  C_9
REMARK    6  A    between atoms: N_6  and  C_15
REMARK    7  A    between atoms: N_6  and  C_16
REMARK    8  A    between atoms: N_7  and  C_13
REMARK    9  A    between atoms: C_10  and  C_13
REMARK   10  A    between atoms: C_12  and  C_14
REMARK   11  A    between atoms: C_15  and  C_17
REMARK   12  A    between atoms: C_17  and  C_18
REMARK   13  A    between atoms: C_19  and  C_20
REMARK                            x       y       z     vdW  Elec       q    Type
REMARK                         _______ _______ _______ _____ _____    ______ ____
ROOT
ATOM      1  O   UNL     1      -0.351  -0.718  23.566  0.00  0.00    -0.365 OA
ATOM      9  C   UNL     1      -1.353   1.364  24.141  0.00  0.00    +0.118 C 
ATOM     10  C   UNL     1      -0.309   0.690  23.242  0.00  0.00    +0.155 C 
ATOM     11  C   UNL     1      -1.438   0.423  25.333  0.00  0.00    +0.165 C 
ATOM     12  C   UNL     1      -1.291  -0.926  24.638  0.00  0.00    +0.174 C 
ENDROOT
BRANCH  11   2
ATOM      2  O   UNL     1      -0.362   0.632  26.239  0.00  0.00    -0.388 OA
ATOM     26  H   UNL     1      -0.012   1.524  26.078  0.00  0.00    +0.210 HD
ENDBRANCH  11   2
BRANCH   9   6
ATOM      6  N   UNL     1      -1.115   2.759  24.469  0.00  0.00    -0.297 NA
ATOM     16  C   UNL     1      -1.242   2.985  25.911  0.00  0.00    +0.105 C 
BRANCH   6  15
ATOM     15  C   UNL     1      -2.041   3.631  23.739  0.00  0.00    +0.090 C 
BRANCH  15  17
ATOM     17  C   UNL     1      -3.225   2.836  23.190  0.00  0.00    +0.071 C 
BRANCH  17  18
ATOM      8  N   UNL     1      -4.694   3.738  24.909  0.00  0.00    -0.260 NA
ATOM     18  C   UNL     1      -4.292   2.638  24.237  0.00  0.00    +0.042 A 
ATOM     21  C   UNL     1      -4.799   1.367  24.456  0.00  0.00    +0.023 A 
ATOM     22  C   UNL     1      -5.783   1.218  25.427  0.00  0.00    +0.003 A 
ATOM     23  C   UNL     1      -5.651   3.554  25.846  0.00  0.00    +0.111 A 
ATOM     24  C   UNL     1      -6.223   2.327  26.140  0.00  0.00    +0.020 A 
ENDBRANCH  17  18
ENDBRANCH  15  17
ENDBRANCH   6  15
ENDBRANCH   9   6
BRANCH  10  13
ATOM     13  C   UNL     1       1.136   1.149  23.410  0.00  0.00    +0.137 C 
BRANCH  13   7
ATOM      4  O   UNL     1       3.803   0.952  22.312  0.00  0.00    -0.273 OA
ATOM      7  N   UNL     1       2.026   0.031  23.498  0.00  0.00    -0.311 N 
ATOM     19  C   UNL     1       3.301   0.022  22.936  0.00  0.00    +0.239 C 
ATOM     27  H   UNL     1       1.700  -0.798  23.986  0.00  0.00    +0.149 HD
BRANCH  19  20
ATOM     20  C   UNL     1       4.022  -1.286  23.180  0.00  0.00    +0.255 C 
BRANCH  20   5
ATOM      5  O   UNL     1       4.982  -1.141  24.206  0.00  0.00    -0.374 OA
ATOM     25  C   UNL     1       5.737   0.059  24.060  0.00  0.00    +0.194 C 
ENDBRANCH  20   5
ENDBRANCH  19  20
ENDBRANCH  13   7
ENDBRANCH  10  13
BRANCH  12  14
ATOM     14  C   UNL     1      -0.805  -2.064  25.516  0.00  0.00    +0.190 C 
BRANCH  14   3
ATOM      3  O   UNL     1       0.605  -1.977  25.641  0.00  0.00    -0.392 OA
ATOM     28  H   UNL     1       0.791  -1.534  26.487  0.00  0.00    +0.210 HD
ENDBRANCH  14   3
ENDBRANCH  12  14
TORSDOF 11
ENDMDL
MODEL 9
REMARK VINA RESULT:      -3.4      2.216      4.881
REMARK  Name = 28962238
REMARK  13 active torsions:
REMARK  status: ('A' for Active; 'I' for Inactive)
REMARK    1  A    between atoms: O_2  and  C_11
REMARK    2  A    between atoms: O_3  and  C_14
REMARK    3  A    between atoms: O_5  and  C_20
REMARK    4  A    between atoms: O_5  and  C_25
REMARK    5  A    between atoms: N_6  and  C_9
REMARK    6  A    between atoms: N_6  and  C_15
REMARK    7  A    between atoms: N_6  and  C_16
REMARK    8  A    between atoms: N_7  and  C_13
REMARK    9  A    between atoms: C_10  and  C_13
REMARK   10  A    between atoms: C_12  and  C_14
REMARK   11  A    between atoms: C_15  and  C_17
REMARK   12  A    between atoms: C_17  and  C_18
REMARK   13  A    between atoms: C_19  and  C_20
REMARK                            x       y       z     vdW  Elec       q    Type
REMARK                         _______ _______ _______ _____ _____    ______ ____
ROOT
ATOM      1  O   UNL     1      -0.071   0.368  25.024  0.00  0.00    -0.365 OA
ATOM      9  C   UNL     1      -0.368   2.724  24.856  0.00  0.00    +0.118 C 
ATOM     10  C   UNL     1      -0.705   1.482  25.691  0.00  0.00    +0.155 C 
ATOM     11  C   UNL     1      -0.134   2.150  23.467  0.00  0.00    +0.165 C 
ATOM     12  C   UNL     1       0.559   0.839  23.817  0.00  0.00    +0.174 C 
ENDROOT
BRANCH  11   2
ATOM      2  O   UNL     1      -1.362   1.896  22.795  0.00  0.00    -0.388 OA
ATOM     26  H   UNL     1      -1.791   1.148  23.242  0.00  0.00    +0.210 HD
ENDBRANCH  11   2
BRANCH   9   6
ATOM      6  N   UNL     1      -1.318   3.820  24.921  0.00  0.00    -0.297 NA
ATOM     16  C   UNL     1      -0.665   5.097  24.619  0.00  0.00    +0.105 C 
BRANCH   6  15
ATOM     15  C   UNL     1      -1.955   3.881  26.241  0.00  0.00    +0.090 C 
BRANCH  15  17
ATOM     17  C   UNL     1      -3.348   4.504  26.149  0.00  0.00    +0.071 C 
BRANCH  17  18
ATOM      8  N   UNL     1      -5.277   3.084  26.588  0.00  0.00    -0.260 NA
ATOM     18  C   UNL     1      -4.372   3.502  25.677  0.00  0.00    +0.042 A 
ATOM     21  C   UNL     1      -4.340   3.069  24.361  0.00  0.00    +0.023 A 
ATOM     22  C   UNL     1      -5.299   2.147  23.956  0.00  0.00    +0.003 A 
ATOM     23  C   UNL     1      -6.193   2.188  26.159  0.00  0.00    +0.111 A 
ATOM     24  C   UNL     1      -6.246   1.693  24.866  0.00  0.00    +0.020 A 
ENDBRANCH  17  18
ENDBRANCH  15  17
ENDBRANCH   6  15
ENDBRANCH   9   6
BRANCH  10  13
ATOM     13  C   UNL     1      -2.183   1.139  25.839  0.00  0.00    +0.137 C 
BRANCH  13   7
ATOM      4  O   UNL     1      -4.054  -1.030  26.237  0.00  0.00    -0.273 OA
ATOM      7  N   UNL     1      -2.584   0.157  24.878  0.00  0.00    -0.311 N 
ATOM     19  C   UNL     1      -3.496  -0.859  25.157  0.00  0.00    +0.239 C 
ATOM     27  H   UNL     1      -2.170   0.203  23.952  0.00  0.00    +0.149 HD
BRANCH  19  20
ATOM     20  C   UNL     1      -3.736  -1.754  23.960  0.00  0.00    +0.255 C 
BRANCH  20   5
ATOM      5  O   UNL     1      -3.098  -3.001  24.135  0.00  0.00    -0.374 OA
ATOM     25  C   UNL     1      -1.698  -2.853  24.359  0.00  0.00    +0.194 C 
ENDBRANCH  20   5
ENDBRANCH  19  20
ENDBRANCH  13   7
ENDBRANCH  10  13
BRANCH  12  14
ATOM     14  C   UNL     1       0.483  -0.245  22.757  0.00  0.00    +0.190 C 
BRANCH  14   3
ATOM      3  O   UNL     1       1.507  -0.024  21.801  0.00  0.00    -0.392 OA
ATOM     28  H   UNL     1       2.090   0.667  22.161  0.00  0.00    +0.210 HD
ENDBRANCH  14   3
ENDBRANCH  12  14
TORSDOF 11
ENDMDL
MODEL 10
REMARK VINA RESULT:      -3.4      2.406      6.952
REMARK  Name = 28962238
REMARK  13 active torsions:
REMARK  status: ('A' for Active; 'I' for Inactive)
REMARK    1  A    between atoms: O_2  and  C_11
REMARK    2  A    between atoms: O_3  and  C_14
REMARK    3  A    between atoms: O_5  and  C_20
REMARK    4  A    between atoms: O_5  and  C_25
REMARK    5  A    between atoms: N_6  and  C_9
REMARK    6  A    between atoms: N_6  and  C_15
REMARK    7  A    between atoms: N_6  and  C_16
REMARK    8  A    between atoms: N_7  and  C_13
REMARK    9  A    between atoms: C_10  and  C_13
REMARK   10  A    between atoms: C_12  and  C_14
REMARK   11  A    between atoms: C_15  and  C_17
REMARK   12  A    between atoms: C_17  and  C_18
REMARK   13  A    between atoms: C_19  and  C_20
REMARK                            x       y       z     vdW  Elec       q    Type
REMARK                         _______ _______ _______ _____ _____    ______ ____
ROOT
ATOM      1  O   UNL     1      -3.221  -0.411  25.359  0.00  0.00    -0.365 OA
ATOM      9  C   UNL     1      -0.846  -0.252  25.293  0.00  0.00    +0.118 C 
ATOM     10  C   UNL     1      -2.152   0.544  25.172  0.00  0.00    +0.155 C 
ATOM     11  C   UNL     1      -1.264  -1.660  24.893  0.00  0.00    +0.165 C 
ATOM     12  C   UNL     1      -2.654  -1.727  25.513  0.00  0.00    +0.174 C 
ENDROOT
BRANCH  11   2
ATOM      2  O   UNL     1      -1.345  -1.796  23.480  0.00  0.00    -0.388 OA
ATOM     26  H   UNL     1      -1.184  -2.730  23.265  0.00  0.00    +0.210 HD
ENDBRANCH  11   2
BRANCH   9   6
ATOM      6  N   UNL     1       0.300   0.280  24.578  0.00  0.00    -0.297 NA
ATOM     16  C   UNL     1       0.124   1.708  24.299  0.00  0.00    +0.105 C 
BRANCH   6  15
ATOM     15  C   UNL     1       0.522  -0.453  23.328  0.00  0.00    +0.090 C 
BRANCH  15  17
ATOM     17  C   UNL     1       1.564   0.251  22.458  0.00  0.00    +0.071 C 
BRANCH  17  18
ATOM      8  N   UNL     1       3.218  -1.239  23.445  0.00  0.00    -0.260 NA
ATOM     18  C   UNL     1       2.965  -0.005  22.955  0.00  0.00    +0.042 A 
ATOM     21  C   UNL     1       3.904   1.011  22.887  0.00  0.00    +0.023 A 
ATOM     22  C   UNL     1       5.187   0.742  23.352  0.00  0.00    +0.003 A 
ATOM     23  C   UNL     1       4.476  -1.462  23.888  0.00  0.00    +0.111 A 
ATOM     24  C   UNL     1       5.486  -0.515  23.863  0.00  0.00    +0.020 A 
ENDBRANCH  17  18
ENDBRANCH  15  17
ENDBRANCH   6  15
ENDBRANCH   9   6
BRANCH  10  13
ATOM     13  C   UNL     1      -2.403   1.248  23.843  0.00  0.00    +0.137 C 
BRANCH  13   7
ATOM      4  O   UNL     1      -2.571   3.559  25.572  0.00  0.00    -0.273 OA
ATOM      7  N   UNL     1      -3.491   2.172  23.946  0.00  0.00    -0.311 N 
ATOM     19  C   UNL     1      -3.488   3.264  24.811  0.00  0.00    +0.239 C 
ATOM     27  H   UNL     1      -4.307   2.010  23.364  0.00  0.00    +0.149 HD
BRANCH  19  20
ATOM     20  C   UNL     1      -4.765   4.072  24.714  0.00  0.00    +0.255 C 
BRANCH  20   5
ATOM      5  O   UNL     1      -5.647   3.738  25.764  0.00  0.00    -0.374 OA
ATOM     25  C   UNL     1      -5.880   2.334  25.834  0.00  0.00    +0.194 C 
ENDBRANCH  20   5
ENDBRANCH  19  20
ENDBRANCH  13   7
ENDBRANCH  10  13
BRANCH  12  14
ATOM     14  C   UNL     1      -3.594  -2.751  24.901  0.00  0.00    +0.190 C 
BRANCH  14   3
ATOM      3  O   UNL     1      -4.285  -2.149  23.819  0.00  0.00    -0.392 OA
ATOM     28  H   UNL     1      -4.176  -1.187  23.909  0.00  0.00    +0.210 HD
ENDBRANCH  14   3
ENDBRANCH  12  14
TORSDOF 11
ENDMDL
