MODEL 1
REMARK VINA RESULT:      -5.2      0.000      0.000
REMARK  Name = 75536635
REMARK  6 active torsions:
REMARK  status: ('A' for Active; 'I' for Inactive)
REMARK    1  A    between atoms: O_3  and  C_9
REMARK    2  A    between atoms: N_6  and  C_8
REMARK    3  A    between atoms: N_6  and  C_11
REMARK    4  A    between atoms: N_7  and  C_15
REMARK    5  A    between atoms: C_10  and  C_15
REMARK    6  A    between atoms: C_18  and  C_19
REMARK                            x       y       z     vdW  Elec       q    Type
REMARK                         _______ _______ _______ _____ _____    ______ ____
ROOT
ATOM      2  O   UNL     1      -1.437  -2.164  23.600  0.00  0.00    -0.371 OA
ATOM      8  C   UNL     1       0.082  -0.704  24.696  0.00  0.00    +0.111 C 
ATOM      9  C   UNL     1      -1.200  -0.781  25.505  0.00  0.00    +0.164 C 
ATOM     10  C   UNL     1      -1.793  -2.087  24.991  0.00  0.00    +0.165 C 
ATOM     12  C   UNL     1      -0.383  -1.220  23.344  0.00  0.00    +0.181 C 
ENDROOT
BRANCH   9   3
ATOM      3  O   UNL     1      -0.965  -0.820  26.899  0.00  0.00    -0.388 OA
ATOM     26  H   UNL     1      -0.274  -1.480  27.074  0.00  0.00    +0.210 HD
ENDBRANCH   9   3
BRANCH   8   6
ATOM      6  N   UNL     1       0.649   0.633  24.628  0.00  0.00    -0.306 NA
ATOM     25  H   UNL     1       1.152   0.755  23.750  0.00  0.00    +0.123 HD
BRANCH   6  11
ATOM      4  O   UNL     1      -1.108   4.393  25.266  0.00  0.00    -0.380 OA
ATOM     11  C   UNL     1      -0.390   1.653  24.749  0.00  0.00    +0.058 C 
ATOM     13  C   UNL     1      -0.196   2.763  23.711  0.00  0.00    +0.047 C 
ATOM     14  C   UNL     1      -0.391   2.248  26.159  0.00  0.00    +0.047 C 
ATOM     16  C   UNL     1      -1.206   3.882  23.937  0.00  0.00    +0.161 C 
ATOM     17  C   UNL     1      -1.390   3.396  26.249  0.00  0.00    +0.161 C 
ENDBRANCH   6  11
ENDBRANCH   8   6
BRANCH  10  15
ATOM     15  C   UNL     1      -3.301  -2.162  25.141  0.00  0.00    +0.138 C 
BRANCH  15   7
ATOM      5  O   UNL     1      -3.788  -0.148  23.154  0.00  0.00    -0.270 OA
ATOM      7  N   UNL     1      -3.870  -0.863  25.359  0.00  0.00    -0.309 N 
ATOM     18  C   UNL     1      -4.069   0.054  24.332  0.00  0.00    +0.244 C 
ATOM     27  H   UNL     1      -4.059  -0.605  26.321  0.00  0.00    +0.149 HD
BRANCH  18  19
ATOM      1  F   UNL     1      -6.240   5.013  25.821  0.00  0.00    -0.205 F 
ATOM     19  C   UNL     1      -4.644   1.366  24.726  0.00  0.00    +0.037 A 
ATOM     20  C   UNL     1      -4.187   2.537  24.121  0.00  0.00    +0.016 A 
ATOM     21  C   UNL     1      -5.639   1.428  25.701  0.00  0.00    +0.016 A 
ATOM     22  C   UNL     1      -4.726   3.769  24.491  0.00  0.00    +0.039 A 
ATOM     23  C   UNL     1      -6.178   2.660  26.071  0.00  0.00    +0.039 A 
ATOM     24  C   UNL     1      -5.721   3.831  25.466  0.00  0.00    +0.123 A 
ENDBRANCH  18  19
ENDBRANCH  15   7
ENDBRANCH  10  15
TORSDOF 6
ENDMDL
MODEL 2
REMARK VINA RESULT:      -4.6      2.613      5.515
REMARK  Name = 75536635
REMARK  6 active torsions:
REMARK  status: ('A' for Active; 'I' for Inactive)
REMARK    1  A    between atoms: O_3  and  C_9
REMARK    2  A    between atoms: N_6  and  C_8
REMARK    3  A    between atoms: N_6  and  C_11
REMARK    4  A    between atoms: N_7  and  C_15
REMARK    5  A    between atoms: C_10  and  C_15
REMARK    6  A    between atoms: C_18  and  C_19
REMARK                            x       y       z     vdW  Elec       q    Type
REMARK                         _______ _______ _______ _____ _____    ______ ____
ROOT
ATOM      2  O   UNL     1       0.056   3.882  24.461  0.00  0.00    -0.371 OA
ATOM      8  C   UNL     1      -2.192   4.562  24.811  0.00  0.00    +0.111 C 
ATOM      9  C   UNL     1      -1.817   3.537  25.864  0.00  0.00    +0.164 C 
ATOM     10  C   UNL     1      -0.297   3.625  25.831  0.00  0.00    +0.165 C 
ATOM     12  C   UNL     1      -1.120   4.322  23.761  0.00  0.00    +0.181 C 
ENDROOT
BRANCH   9   3
ATOM      3  O   UNL     1      -2.336   3.850  27.141  0.00  0.00    -0.388 OA
ATOM     26  H   UNL     1      -2.399   4.817  27.217  0.00  0.00    +0.210 HD
ENDBRANCH   9   3
BRANCH   8   6
ATOM      6  N   UNL     1      -3.540   4.398  24.291  0.00  0.00    -0.306 NA
ATOM     25  H   UNL     1      -3.514   4.283  23.279  0.00  0.00    +0.123 HD
BRANCH   6  11
ATOM      4  O   UNL     1      -6.507   1.528  25.060  0.00  0.00    -0.380 OA
ATOM     11  C   UNL     1      -4.204   3.250  24.902  0.00  0.00    +0.058 C 
ATOM     13  C   UNL     1      -4.488   2.160  23.864  0.00  0.00    +0.047 C 
ATOM     14  C   UNL     1      -5.508   3.685  25.576  0.00  0.00    +0.047 C 
ATOM     16  C   UNL     1      -5.298   1.030  24.489  0.00  0.00    +0.161 C 
ATOM     17  C   UNL     1      -6.262   2.470  26.106  0.00  0.00    +0.161 C 
ENDBRANCH   6  11
ENDBRANCH   8   6
BRANCH  10  15
ATOM     15  C   UNL     1       0.390   2.359  26.310  0.00  0.00    +0.138 C 
BRANCH  15   7
ATOM      5  O   UNL     1       0.170   0.749  23.943  0.00  0.00    -0.270 OA
ATOM      7  N   UNL     1      -0.450   1.210  26.131  0.00  0.00    -0.309 N 
ATOM     18  C   UNL     1      -0.494   0.487  24.942  0.00  0.00    +0.244 C 
ATOM     27  H   UNL     1      -1.077   0.981  26.894  0.00  0.00    +0.149 HD
BRANCH  18  19
ATOM      1  F   UNL     1      -4.054  -3.853  24.815  0.00  0.00    -0.205 F 
ATOM     19  C   UNL     1      -1.435  -0.662  24.908  0.00  0.00    +0.037 A 
ATOM     20  C   UNL     1      -2.624  -0.610  25.637  0.00  0.00    +0.016 A 
ATOM     21  C   UNL     1      -1.132  -1.791  24.148  0.00  0.00    +0.016 A 
ATOM     22  C   UNL     1      -3.508  -1.688  25.606  0.00  0.00    +0.039 A 
ATOM     23  C   UNL     1      -2.017  -2.869  24.117  0.00  0.00    +0.039 A 
ATOM     24  C   UNL     1      -3.205  -2.817  24.846  0.00  0.00    +0.123 A 
ENDBRANCH  18  19
ENDBRANCH  15   7
ENDBRANCH  10  15
TORSDOF 6
ENDMDL
MODEL 3
REMARK VINA RESULT:      -4.3      2.494      4.954
REMARK  Name = 75536635
REMARK  6 active torsions:
REMARK  status: ('A' for Active; 'I' for Inactive)
REMARK    1  A    between atoms: O_3  and  C_9
REMARK    2  A    between atoms: N_6  and  C_8
REMARK    3  A    between atoms: N_6  and  C_11
REMARK    4  A    between atoms: N_7  and  C_15
REMARK    5  A    between atoms: C_10  and  C_15
REMARK    6  A    between atoms: C_18  and  C_19
REMARK                            x       y       z     vdW  Elec       q    Type
REMARK                         _______ _______ _______ _____ _____    ______ ____
ROOT
ATOM      2  O   UNL     1       0.142   3.514  23.641  0.00  0.00    -0.371 OA
ATOM      8  C   UNL     1      -1.143   4.119  25.544  0.00  0.00    +0.111 C 
ATOM      9  C   UNL     1      -0.685   2.681  25.694  0.00  0.00    +0.164 C 
ATOM     10  C   UNL     1       0.495   2.647  24.732  0.00  0.00    +0.165 C 
ATOM     12  C   UNL     1      -0.962   4.339  24.051  0.00  0.00    +0.181 C 
ENDROOT
BRANCH   9   3
ATOM      3  O   UNL     1      -0.296   2.366  27.017  0.00  0.00    -0.388 OA
ATOM     26  H   UNL     1       0.140   3.146  27.401  0.00  0.00    +0.210 HD
ENDBRANCH   9   3
BRANCH   8   6
ATOM      6  N   UNL     1      -2.510   4.346  25.988  0.00  0.00    -0.306 NA
ATOM     25  H   UNL     1      -2.850   5.237  25.631  0.00  0.00    +0.123 HD
BRANCH   6  11
ATOM      4  O   UNL     1      -5.946   2.438  24.512  0.00  0.00    -0.380 OA
ATOM     11  C   UNL     1      -3.391   3.267  25.549  0.00  0.00    +0.058 C 
ATOM     13  C   UNL     1      -3.772   3.432  24.074  0.00  0.00    +0.047 C 
ATOM     14  C   UNL     1      -4.653   3.225  26.415  0.00  0.00    +0.047 C 
ATOM     16  C   UNL     1      -4.795   2.377  23.670  0.00  0.00    +0.161 C 
ATOM     17  C   UNL     1      -5.628   2.181  25.880  0.00  0.00    +0.161 C 
ENDBRANCH   6  11
ENDBRANCH   8   6
BRANCH  10  15
ATOM     15  C   UNL     1       0.801   1.257  24.205  0.00  0.00    +0.138 C 
BRANCH  15   7
ATOM      5  O   UNL     1      -0.376  -0.615  26.036  0.00  0.00    -0.270 OA
ATOM      7  N   UNL     1      -0.400   0.499  24.001  0.00  0.00    -0.309 N 
ATOM     18  C   UNL     1      -0.899  -0.391  24.948  0.00  0.00    +0.244 C 
ATOM     27  H   UNL     1      -0.843   0.585  23.093  0.00  0.00    +0.149 HD
BRANCH  18  19
ATOM      1  F   UNL     1      -5.586  -3.140  23.533  0.00  0.00    -0.205 F 
ATOM     19  C   UNL     1      -2.139  -1.119  24.574  0.00  0.00    +0.037 A 
ATOM     20  C   UNL     1      -3.309  -0.409  24.306  0.00  0.00    +0.016 A 
ATOM     21  C   UNL     1      -2.133  -2.511  24.490  0.00  0.00    +0.016 A 
ATOM     22  C   UNL     1      -4.474  -1.091  23.955  0.00  0.00    +0.039 A 
ATOM     23  C   UNL     1      -3.298  -3.194  24.139  0.00  0.00    +0.039 A 
ATOM     24  C   UNL     1      -4.468  -2.483  23.871  0.00  0.00    +0.123 A 
ENDBRANCH  18  19
ENDBRANCH  15   7
ENDBRANCH  10  15
TORSDOF 6
ENDMDL
MODEL 4
REMARK VINA RESULT:      -3.7      2.885      5.297
REMARK  Name = 75536635
REMARK  6 active torsions:
REMARK  status: ('A' for Active; 'I' for Inactive)
REMARK    1  A    between atoms: O_3  and  C_9
REMARK    2  A    between atoms: N_6  and  C_8
REMARK    3  A    between atoms: N_6  and  C_11
REMARK    4  A    between atoms: N_7  and  C_15
REMARK    5  A    between atoms: C_10  and  C_15
REMARK    6  A    between atoms: C_18  and  C_19
REMARK                            x       y       z     vdW  Elec       q    Type
REMARK                         _______ _______ _______ _____ _____    ______ ____
ROOT
ATOM      2  O   UNL     1      -5.645   3.207  26.140  0.00  0.00    -0.371 OA
ATOM      8  C   UNL     1      -3.956   4.174  24.779  0.00  0.00    +0.111 C 
ATOM      9  C   UNL     1      -4.177   2.737  24.346  0.00  0.00    +0.164 C 
ATOM     10  C   UNL     1      -5.568   2.472  24.907  0.00  0.00    +0.165 C 
ATOM     12  C   UNL     1      -4.577   4.169  26.166  0.00  0.00    +0.181 C 
ENDROOT
BRANCH   9   3
ATOM      3  O   UNL     1      -4.135   2.577  22.941  0.00  0.00    -0.388 OA
ATOM     26  H   UNL     1      -4.482   1.696  22.724  0.00  0.00    +0.210 HD
ENDBRANCH   9   3
BRANCH   8   6
ATOM      6  N   UNL     1      -2.557   4.573  24.786  0.00  0.00    -0.306 NA
ATOM     25  H   UNL     1      -2.397   5.274  25.508  0.00  0.00    +0.123 HD
BRANCH   6  11
ATOM      4  O   UNL     1       0.949   2.400  25.568  0.00  0.00    -0.380 OA
ATOM     11  C   UNL     1      -1.684   3.424  25.010  0.00  0.00    +0.058 C 
ATOM     13  C   UNL     1      -1.066   3.466  26.411  0.00  0.00    +0.047 C 
ATOM     14  C   UNL     1      -0.579   3.381  23.951  0.00  0.00    +0.047 C 
ATOM     16  C   UNL     1      -0.057   2.336  26.579  0.00  0.00    +0.161 C 
ATOM     17  C   UNL     1       0.404   2.256  24.256  0.00  0.00    +0.161 C 
ENDBRANCH   6  11
ENDBRANCH   8   6
BRANCH  10  15
ATOM     15  C   UNL     1      -5.841   1.002  25.167  0.00  0.00    +0.138 C 
BRANCH  15   7
ATOM      5  O   UNL     1      -4.387  -0.485  23.187  0.00  0.00    -0.270 OA
ATOM      7  N   UNL     1      -4.623   0.272  25.368  0.00  0.00    -0.309 N 
ATOM     18  C   UNL     1      -3.985  -0.425  24.346  0.00  0.00    +0.244 C 
ATOM     27  H   UNL     1      -4.275   0.222  26.319  0.00  0.00    +0.149 HD
BRANCH  18  19
ATOM      1  F   UNL     1       0.697  -3.176  25.773  0.00  0.00    -0.205 F 
ATOM     19  C   UNL     1      -2.747  -1.153  24.723  0.00  0.00    +0.037 A 
ATOM     20  C   UNL     1      -1.740  -0.495  25.430  0.00  0.00    +0.016 A 
ATOM     21  C   UNL     1      -2.589  -2.494  24.370  0.00  0.00    +0.016 A 
ATOM     22  C   UNL     1      -0.577  -1.179  25.785  0.00  0.00    +0.039 A 
ATOM     23  C   UNL     1      -1.426  -3.177  24.725  0.00  0.00    +0.039 A 
ATOM     24  C   UNL     1      -0.420  -2.519  25.432  0.00  0.00    +0.123 A 
ENDBRANCH  18  19
ENDBRANCH  15   7
ENDBRANCH  10  15
TORSDOF 6
ENDMDL
MODEL 5
REMARK VINA RESULT:      -3.5      2.741      5.120
REMARK  Name = 75536635
REMARK  6 active torsions:
REMARK  status: ('A' for Active; 'I' for Inactive)
REMARK    1  A    between atoms: O_3  and  C_9
REMARK    2  A    between atoms: N_6  and  C_8
REMARK    3  A    between atoms: N_6  and  C_11
REMARK    4  A    between atoms: N_7  and  C_15
REMARK    5  A    between atoms: C_10  and  C_15
REMARK    6  A    between atoms: C_18  and  C_19
REMARK                            x       y       z     vdW  Elec       q    Type
REMARK                         _______ _______ _______ _____ _____    ______ ____
ROOT
ATOM      2  O   UNL     1      -3.538   4.187  26.036  0.00  0.00    -0.371 OA
ATOM      8  C   UNL     1      -1.386   3.952  25.061  0.00  0.00    +0.111 C 
ATOM      9  C   UNL     1      -2.413   3.297  24.156  0.00  0.00    +0.164 C 
ATOM     10  C   UNL     1      -3.692   3.980  24.621  0.00  0.00    +0.165 C 
ATOM     12  C   UNL     1      -2.149   4.034  26.373  0.00  0.00    +0.181 C 
ENDROOT
BRANCH   9   3
ATOM      3  O   UNL     1      -2.160   3.530  22.784  0.00  0.00    -0.388 OA
ATOM     26  H   UNL     1      -2.520   4.402  22.550  0.00  0.00    +0.210 HD
ENDBRANCH   9   3
BRANCH   8   6
ATOM      6  N   UNL     1      -0.145   3.203  25.173  0.00  0.00    -0.306 NA
ATOM     25  H   UNL     1       0.065   3.018  26.153  0.00  0.00    +0.123 HD
BRANCH   6  11
ATOM      4  O   UNL     1       0.693  -0.763  24.080  0.00  0.00    -0.380 OA
ATOM     11  C   UNL     1      -0.221   1.943  24.438  0.00  0.00    +0.058 C 
ATOM     13  C   UNL     1      -0.668   0.798  25.352  0.00  0.00    +0.047 C 
ATOM     14  C   UNL     1       1.133   1.612  23.806  0.00  0.00    +0.047 C 
ATOM     16  C   UNL     1      -0.614  -0.529  24.604  0.00  0.00    +0.161 C 
ATOM     17  C   UNL     1       1.087   0.240  23.143  0.00  0.00    +0.161 C 
ENDBRANCH   6  11
ENDBRANCH   8   6
BRANCH  10  15
ATOM     15  C   UNL     1      -4.941   3.160  24.355  0.00  0.00    +0.138 C 
BRANCH  15   7
ATOM      5  O   UNL     1      -5.062   1.134  26.387  0.00  0.00    -0.270 OA
ATOM      7  N   UNL     1      -4.630   1.768  24.197  0.00  0.00    -0.309 N 
ATOM     18  C   UNL     1      -4.715   0.854  25.243  0.00  0.00    +0.244 C 
ATOM     27  H   UNL     1      -4.268   1.483  23.294  0.00  0.00    +0.149 HD
BRANCH  18  19
ATOM      1  F   UNL     1      -3.269  -4.434  24.030  0.00  0.00    -0.205 F 
ATOM     19  C   UNL     1      -4.333  -0.546  24.923  0.00  0.00    +0.037 A 
ATOM     20  C   UNL     1      -4.626  -1.078  23.667  0.00  0.00    +0.016 A 
ATOM     21  C   UNL     1      -3.680  -1.327  25.876  0.00  0.00    +0.016 A 
ATOM     22  C   UNL     1      -4.267  -2.391  23.365  0.00  0.00    +0.039 A 
ATOM     23  C   UNL     1      -3.321  -2.641  25.574  0.00  0.00    +0.039 A 
ATOM     24  C   UNL     1      -3.615  -3.173  24.319  0.00  0.00    +0.123 A 
ENDBRANCH  18  19
ENDBRANCH  15   7
ENDBRANCH  10  15
TORSDOF 6
ENDMDL
MODEL 6
REMARK VINA RESULT:      -2.9      3.134      6.512
REMARK  Name = 75536635
REMARK  6 active torsions:
REMARK  status: ('A' for Active; 'I' for Inactive)
REMARK    1  A    between atoms: O_3  and  C_9
REMARK    2  A    between atoms: N_6  and  C_8
REMARK    3  A    between atoms: N_6  and  C_11
REMARK    4  A    between atoms: N_7  and  C_15
REMARK    5  A    between atoms: C_10  and  C_15
REMARK    6  A    between atoms: C_18  and  C_19
REMARK                            x       y       z     vdW  Elec       q    Type
REMARK                         _______ _______ _______ _____ _____    ______ ____
ROOT
ATOM      2  O   UNL     1      -3.287   3.713  23.471  0.00  0.00    -0.371 OA
ATOM      8  C   UNL     1      -4.687   2.534  24.984  0.00  0.00    +0.111 C 
ATOM      9  C   UNL     1      -3.494   3.086  25.742  0.00  0.00    +0.164 C 
ATOM     10  C   UNL     1      -3.037   4.194  24.803  0.00  0.00    +0.165 C 
ATOM     12  C   UNL     1      -4.187   2.594  23.550  0.00  0.00    +0.181 C 
ENDROOT
BRANCH   9   3
ATOM      3  O   UNL     1      -3.842   3.586  27.018  0.00  0.00    -0.388 OA
ATOM     26  H   UNL     1      -4.321   2.890  27.499  0.00  0.00    +0.210 HD
ENDBRANCH   9   3
BRANCH   8   6
ATOM      6  N   UNL     1      -5.069   1.192  25.394  0.00  0.00    -0.306 NA
ATOM     25  H   UNL     1      -6.024   0.994  25.098  0.00  0.00    +0.123 HD
BRANCH   6  11
ATOM      4  O   UNL     1      -3.193  -2.519  24.813  0.00  0.00    -0.380 OA
ATOM     11  C   UNL     1      -4.161   0.193  24.837  0.00  0.00    +0.058 C 
ATOM     13  C   UNL     1      -4.938  -0.952  24.178  0.00  0.00    +0.047 C 
ATOM     14  C   UNL     1      -3.241  -0.359  25.929  0.00  0.00    +0.047 C 
ATOM     16  C   UNL     1      -3.983  -2.048  23.722  0.00  0.00    +0.161 C 
ATOM     17  C   UNL     1      -2.379  -1.488  25.375  0.00  0.00    +0.161 C 
ENDBRANCH   6  11
ENDBRANCH   8   6
BRANCH  10  15
ATOM     15  C   UNL     1      -1.568   4.542  24.955  0.00  0.00    +0.138 C 
BRANCH  15   7
ATOM      5  O   UNL     1      -0.497   2.114  26.053  0.00  0.00    -0.270 OA
ATOM      7  N   UNL     1      -0.732   3.592  24.279  0.00  0.00    -0.309 N 
ATOM     18  C   UNL     1      -0.256   2.437  24.893  0.00  0.00    +0.244 C 
ATOM     27  H   UNL     1      -0.437   3.834  23.340  0.00  0.00    +0.149 HD
BRANCH  18  19
ATOM      1  F   UNL     1       3.054  -0.845  21.763  0.00  0.00    -0.205 F 
ATOM     19  C   UNL     1       0.621   1.569  24.065  0.00  0.00    +0.037 A 
ATOM     20  C   UNL     1       0.133   0.361  23.566  0.00  0.00    +0.016 A 
ATOM     21  C   UNL     1       1.930   1.961  23.787  0.00  0.00    +0.016 A 
ATOM     22  C   UNL     1       0.955  -0.455  22.789  0.00  0.00    +0.039 A 
ATOM     23  C   UNL     1       2.752   1.145  23.009  0.00  0.00    +0.039 A 
ATOM     24  C   UNL     1       2.264  -0.063  22.510  0.00  0.00    +0.123 A 
ENDBRANCH  18  19
ENDBRANCH  15   7
ENDBRANCH  10  15
TORSDOF 6
ENDMDL
MODEL 7
REMARK VINA RESULT:      -2.8      2.933      5.403
REMARK  Name = 75536635
REMARK  6 active torsions:
REMARK  status: ('A' for Active; 'I' for Inactive)
REMARK    1  A    between atoms: O_3  and  C_9
REMARK    2  A    between atoms: N_6  and  C_8
REMARK    3  A    between atoms: N_6  and  C_11
REMARK    4  A    between atoms: N_7  and  C_15
REMARK    5  A    between atoms: C_10  and  C_15
REMARK    6  A    between atoms: C_18  and  C_19
REMARK                            x       y       z     vdW  Elec       q    Type
REMARK                         _______ _______ _______ _____ _____    ______ ____
ROOT
ATOM      2  O   UNL     1      -6.125   1.706  26.045  0.00  0.00    -0.371 OA
ATOM      8  C   UNL     1      -4.970   3.697  25.458  0.00  0.00    +0.111 C 
ATOM      9  C   UNL     1      -4.542   2.582  24.522  0.00  0.00    +0.164 C 
ATOM     10  C   UNL     1      -5.702   1.608  24.674  0.00  0.00    +0.165 C 
ATOM     12  C   UNL     1      -5.572   2.908  26.609  0.00  0.00    +0.181 C 
ENDROOT
BRANCH   9   3
ATOM      3  O   UNL     1      -4.392   3.020  23.185  0.00  0.00    -0.388 OA
ATOM     26  H   UNL     1      -3.709   3.711  23.164  0.00  0.00    +0.210 HD
ENDBRANCH   9   3
BRANCH   8   6
ATOM      6  N   UNL     1      -3.877   4.561  25.875  0.00  0.00    -0.306 NA
ATOM     25  H   UNL     1      -3.859   4.637  26.891  0.00  0.00    +0.123 HD
BRANCH   6  11
ATOM      4  O   UNL     1       0.269   3.928  25.676  0.00  0.00    -0.380 OA
ATOM     11  C   UNL     1      -2.594   4.057  25.393  0.00  0.00    +0.058 C 
ATOM     13  C   UNL     1      -1.911   3.185  26.452  0.00  0.00    +0.047 C 
ATOM     14  C   UNL     1      -1.678   5.219  25.001  0.00  0.00    +0.047 C 
ATOM     16  C   UNL     1      -0.518   2.779  25.986  0.00  0.00    +0.161 C 
ATOM     17  C   UNL     1      -0.297   4.700  24.615  0.00  0.00    +0.161 C 
ENDBRANCH   6  11
ENDBRANCH   8   6
BRANCH  10  15
ATOM     15  C   UNL     1      -5.329   0.173  24.353  0.00  0.00    +0.138 C 
BRANCH  15   7
ATOM      5  O   UNL     1      -3.209  -0.688  26.088  0.00  0.00    -0.270 OA
ATOM      7  N   UNL     1      -3.939   0.058  24.016  0.00  0.00    -0.309 N 
ATOM     18  C   UNL     1      -2.976  -0.369  24.926  0.00  0.00    +0.244 C 
ATOM     27  H   UNL     1      -3.668   0.373  23.091  0.00  0.00    +0.149 HD
BRANCH  18  19
ATOM      1  F   UNL     1       2.313  -0.522  23.048  0.00  0.00    -0.205 F 
ATOM     19  C   UNL     1      -1.577  -0.408  24.429  0.00  0.00    +0.037 A 
ATOM     20  C   UNL     1      -0.737  -1.460  24.796  0.00  0.00    +0.016 A 
ATOM     21  C   UNL     1      -1.102   0.604  23.595  0.00  0.00    +0.016 A 
ATOM     22  C   UNL     1       0.577  -1.498  24.330  0.00  0.00    +0.039 A 
ATOM     23  C   UNL     1       0.212   0.566  23.129  0.00  0.00    +0.039 A 
ATOM     24  C   UNL     1       1.051  -0.485  23.496  0.00  0.00    +0.123 A 
ENDBRANCH  18  19
ENDBRANCH  15   7
ENDBRANCH  10  15
TORSDOF 6
ENDMDL
MODEL 8
REMARK VINA RESULT:      -2.0      2.152      3.075
REMARK  Name = 75536635
REMARK  6 active torsions:
REMARK  status: ('A' for Active; 'I' for Inactive)
REMARK    1  A    between atoms: O_3  and  C_9
REMARK    2  A    between atoms: N_6  and  C_8
REMARK    3  A    between atoms: N_6  and  C_11
REMARK    4  A    between atoms: N_7  and  C_15
REMARK    5  A    between atoms: C_10  and  C_15
REMARK    6  A    between atoms: C_18  and  C_19
REMARK                            x       y       z     vdW  Elec       q    Type
REMARK                         _______ _______ _______ _____ _____    ______ ____
ROOT
ATOM      2  O   UNL     1      -1.608  -2.819  23.967  0.00  0.00    -0.371 OA
ATOM      8  C   UNL     1      -0.010  -1.076  24.180  0.00  0.00    +0.111 C 
ATOM      9  C   UNL     1      -1.184  -0.785  25.097  0.00  0.00    +0.164 C 
ATOM     10  C   UNL     1      -1.797  -2.172  25.237  0.00  0.00    +0.165 C 
ATOM     12  C   UNL     1      -0.618  -2.088  23.223  0.00  0.00    +0.181 C 
ENDROOT
BRANCH   9   3
ATOM      3  O   UNL     1      -0.783  -0.256  26.346  0.00  0.00    -0.388 OA
ATOM     26  H   UNL     1      -1.274   0.568  26.500  0.00  0.00    +0.210 HD
ENDBRANCH   9   3
BRANCH   8   6
ATOM      6  N   UNL     1       0.508   0.103  23.503  0.00  0.00    -0.306 NA
ATOM     25  H   UNL     1       0.039   0.939  23.848  0.00  0.00    +0.123 HD
BRANCH   6  11
ATOM      4  O   UNL     1       4.612  -0.009  22.623  0.00  0.00    -0.380 OA
ATOM     11  C   UNL     1       1.951   0.229  23.696  0.00  0.00    +0.058 C 
ATOM     13  C   UNL     1       2.546   1.265  22.737  0.00  0.00    +0.047 C 
ATOM     14  C   UNL     1       2.635  -1.125  23.495  0.00  0.00    +0.047 C 
ATOM     16  C   UNL     1       4.065   1.288  22.858  0.00  0.00    +0.161 C 
ATOM     17  C   UNL     1       4.150  -0.970  23.574  0.00  0.00    +0.161 C 
ENDBRANCH   6  11
ENDBRANCH   8   6
BRANCH  10  15
ATOM     15  C   UNL     1      -3.274  -2.143  25.584  0.00  0.00    +0.138 C 
BRANCH  15   7
ATOM      5  O   UNL     1      -4.090  -0.444  23.418  0.00  0.00    -0.270 OA
ATOM      7  N   UNL     1      -3.761  -0.797  25.687  0.00  0.00    -0.309 N 
ATOM     18  C   UNL     1      -4.134  -0.044  24.578  0.00  0.00    +0.244 C 
ATOM     27  H   UNL     1      -3.755  -0.382  26.612  0.00  0.00    +0.149 HD
BRANCH  18  19
ATOM      1  F   UNL     1      -5.867   5.195  25.613  0.00  0.00    -0.205 F 
ATOM     19  C   UNL     1      -4.592   1.342  24.852  0.00  0.00    +0.037 A 
ATOM     20  C   UNL     1      -5.770   1.558  25.566  0.00  0.00    +0.016 A 
ATOM     21  C   UNL     1      -3.845   2.428  24.394  0.00  0.00    +0.016 A 
ATOM     22  C   UNL     1      -6.201   2.860  25.824  0.00  0.00    +0.039 A 
ATOM     23  C   UNL     1      -4.276   3.729  24.651  0.00  0.00    +0.039 A 
ATOM     24  C   UNL     1      -5.454   3.945  25.366  0.00  0.00    +0.123 A 
ENDBRANCH  18  19
ENDBRANCH  15   7
ENDBRANCH  10  15
TORSDOF 6
ENDMDL
MODEL 9
REMARK VINA RESULT:      -1.8      2.053      4.176
REMARK  Name = 75536635
REMARK  6 active torsions:
REMARK  status: ('A' for Active; 'I' for Inactive)
REMARK    1  A    between atoms: O_3  and  C_9
REMARK    2  A    between atoms: N_6  and  C_8
REMARK    3  A    between atoms: N_6  and  C_11
REMARK    4  A    between atoms: N_7  and  C_15
REMARK    5  A    between atoms: C_10  and  C_15
REMARK    6  A    between atoms: C_18  and  C_19
REMARK                            x       y       z     vdW  Elec       q    Type
REMARK                         _______ _______ _______ _____ _____    ______ ____
ROOT
ATOM      2  O   UNL     1       1.156   2.454  24.069  0.00  0.00    -0.371 OA
ATOM      8  C   UNL     1       0.335   0.310  23.464  0.00  0.00    +0.111 C 
ATOM      9  C   UNL     1      -0.829   1.280  23.546  0.00  0.00    +0.164 C 
ATOM     10  C   UNL     1      -0.109   2.615  23.405  0.00  0.00    +0.165 C 
ATOM     12  C   UNL     1       1.399   1.050  24.257  0.00  0.00    +0.181 C 
ENDROOT
BRANCH   9   3
ATOM      3  O   UNL     1      -1.778   1.082  22.516  0.00  0.00    -0.388 OA
ATOM     26  H   UNL     1      -1.776   1.867  21.943  0.00  0.00    +0.210 HD
ENDBRANCH   9   3
BRANCH   8   6
ATOM      6  N   UNL     1       0.036  -1.006  24.007  0.00  0.00    -0.306 NA
ATOM     25  H   UNL     1       0.599  -1.177  24.839  0.00  0.00    +0.123 HD
BRANCH   6  11
ATOM      4  O   UNL     1      -3.456  -2.420  25.861  0.00  0.00    -0.380 OA
ATOM     11  C   UNL     1      -1.382  -1.131  24.335  0.00  0.00    +0.058 C 
ATOM     13  C   UNL     1      -1.636  -0.810  25.811  0.00  0.00    +0.047 C 
ATOM     14  C   UNL     1      -1.881  -2.542  24.012  0.00  0.00    +0.047 C 
ATOM     16  C   UNL     1      -3.095  -1.074  26.167  0.00  0.00    +0.161 C 
ATOM     17  C   UNL     1      -3.326  -2.710  24.468  0.00  0.00    +0.161 C 
ENDBRANCH   6  11
ENDBRANCH   8   6
BRANCH  10  15
ATOM     15  C   UNL     1      -0.868   3.775  24.020  0.00  0.00    +0.138 C 
BRANCH  15   7
ATOM      5  O   UNL     1      -3.462   3.345  22.865  0.00  0.00    -0.270 OA
ATOM      7  N   UNL     1      -2.047   3.325  24.704  0.00  0.00    -0.309 N 
ATOM     18  C   UNL     1      -3.268   3.145  24.061  0.00  0.00    +0.244 C 
ATOM     27  H   UNL     1      -1.973   3.209  25.708  0.00  0.00    +0.149 HD
BRANCH  18  19
ATOM      1  F   UNL     1      -7.542   1.461  27.288  0.00  0.00    -0.205 F 
ATOM     19  C   UNL     1      -4.399   2.700  24.915  0.00  0.00    +0.037 A 
ATOM     20  C   UNL     1      -5.012   1.471  24.673  0.00  0.00    +0.016 A 
ATOM     21  C   UNL     1      -4.848   3.511  25.958  0.00  0.00    +0.016 A 
ATOM     22  C   UNL     1      -6.074   1.052  25.475  0.00  0.00    +0.039 A 
ATOM     23  C   UNL     1      -5.910   3.092  26.759  0.00  0.00    +0.039 A 
ATOM     24  C   UNL     1      -6.523   1.862  26.517  0.00  0.00    +0.123 A 
ENDBRANCH  18  19
ENDBRANCH  15   7
ENDBRANCH  10  15
TORSDOF 6
ENDMDL
MODEL 10
REMARK VINA RESULT:      -1.8      1.763      4.284
REMARK  Name = 75536635
REMARK  6 active torsions:
REMARK  status: ('A' for Active; 'I' for Inactive)
REMARK    1  A    between atoms: O_3  and  C_9
REMARK    2  A    between atoms: N_6  and  C_8
REMARK    3  A    between atoms: N_6  and  C_11
REMARK    4  A    between atoms: N_7  and  C_15
REMARK    5  A    between atoms: C_10  and  C_15
REMARK    6  A    between atoms: C_18  and  C_19
REMARK                            x       y       z     vdW  Elec       q    Type
REMARK                         _______ _______ _______ _____ _____    ______ ____
ROOT
ATOM      2  O   UNL     1      -1.916  -2.346  25.268  0.00  0.00    -0.371 OA
ATOM      8  C   UNL     1      -3.948  -1.504  24.372  0.00  0.00    +0.111 C 
ATOM      9  C   UNL     1      -2.792  -0.689  23.824  0.00  0.00    +0.164 C 
ATOM     10  C   UNL     1      -1.628  -1.646  24.045  0.00  0.00    +0.165 C 
ATOM     12  C   UNL     1      -3.307  -2.161  25.584  0.00  0.00    +0.181 C 
ENDROOT
BRANCH   9   3
ATOM      3  O   UNL     1      -2.953  -0.362  22.458  0.00  0.00    -0.388 OA
ATOM     26  H   UNL     1      -2.253  -0.807  21.952  0.00  0.00    +0.210 HD
ENDBRANCH   9   3
BRANCH   8   6
ATOM      6  N   UNL     1      -5.115  -0.706  24.712  0.00  0.00    -0.306 NA
ATOM     25  H   UNL     1      -5.612  -1.128  25.495  0.00  0.00    +0.123 HD
BRANCH   6  11
ATOM      4  O   UNL     1      -5.339   3.479  24.973  0.00  0.00    -0.380 OA
ATOM     11  C   UNL     1      -4.736   0.664  25.048  0.00  0.00    +0.058 C 
ATOM     13  C   UNL     1      -5.767   1.309  25.980  0.00  0.00    +0.047 C 
ATOM     14  C   UNL     1      -4.583   1.502  23.776  0.00  0.00    +0.047 C 
ATOM     16  C   UNL     1      -5.427   2.776  26.212  0.00  0.00    +0.161 C 
ATOM     17  C   UNL     1      -4.309   2.959  24.131  0.00  0.00    +0.161 C 
ENDBRANCH   6  11
ENDBRANCH   8   6
BRANCH  10  15
ATOM     15  C   UNL     1      -0.287  -0.945  24.159  0.00  0.00    +0.138 C 
BRANCH  15   7
ATOM      5  O   UNL     1      -0.976   0.625  26.462  0.00  0.00    -0.270 OA
ATOM      7  N   UNL     1      -0.444   0.480  24.208  0.00  0.00    -0.309 N 
ATOM     18  C   UNL     1      -0.783   1.161  25.374  0.00  0.00    +0.244 C 
ATOM     27  H   UNL     1      -0.368   0.976  23.327  0.00  0.00    +0.149 HD
BRANCH  18  19
ATOM      1  F   UNL     1      -1.354   6.727  24.912  0.00  0.00    -0.205 F 
ATOM     19  C   UNL     1      -0.935   2.634  25.252  0.00  0.00    +0.037 A 
ATOM     20  C   UNL     1      -0.183   3.335  24.309  0.00  0.00    +0.016 A 
ATOM     21  C   UNL     1      -1.827   3.315  26.080  0.00  0.00    +0.016 A 
ATOM     22  C   UNL     1      -0.325   4.718  24.194  0.00  0.00    +0.039 A 
ATOM     23  C   UNL     1      -1.968   4.698  25.965  0.00  0.00    +0.039 A 
ATOM     24  C   UNL     1      -1.217   5.399  25.022  0.00  0.00    +0.123 A 
ENDBRANCH  18  19
ENDBRANCH  15   7
ENDBRANCH  10  15
TORSDOF 6
ENDMDL
