MODEL 1
REMARK VINA RESULT:      -5.2      0.000      0.000
REMARK  Name = 75536802
REMARK  8 active torsions:
REMARK  status: ('A' for Active; 'I' for Inactive)
REMARK    1  A    between atoms: O_2  and  C_9
REMARK    2  A    between atoms: N_4  and  C_8
REMARK    3  A    between atoms: N_4  and  C_13
REMARK    4  A    between atoms: N_5  and  C_12
REMARK    5  A    between atoms: C_10  and  C_12
REMARK    6  A    between atoms: C_13  and  C_14
REMARK    7  A    between atoms: C_15  and  C_18
REMARK    8  A    between atoms: C_19  and  C_24
REMARK                            x       y       z     vdW  Elec       q    Type
REMARK                         _______ _______ _______ _____ _____    ______ ____
ROOT
ATOM      1  O   UNL     1      -4.041   3.554  26.739  0.00  0.00    -0.371 OA
ATOM      8  C   UNL     1      -2.354   4.344  25.265  0.00  0.00    +0.111 C 
ATOM      9  C   UNL     1      -3.502   3.782  24.448  0.00  0.00    +0.164 C 
ATOM     10  C   UNL     1      -4.637   3.833  25.461  0.00  0.00    +0.165 C 
ATOM     11  C   UNL     1      -2.615   3.714  26.623  0.00  0.00    +0.181 C 
ENDROOT
BRANCH   9   2
ATOM      2  O   UNL     1      -3.785   4.559  23.300  0.00  0.00    -0.388 OA
ATOM     28  H   UNL     1      -3.154   4.315  22.602  0.00  0.00    +0.210 HD
ENDBRANCH   9   2
BRANCH   8   4
ATOM      4  N   UNL     1      -1.042   4.015  24.732  0.00  0.00    -0.305 NA
ATOM     27  H   UNL     1      -0.473   4.861  24.699  0.00  0.00    +0.123 HD
BRANCH   4  13
ATOM     13  C   UNL     1      -0.369   3.026  25.566  0.00  0.00    +0.116 C 
BRANCH  13  14
ATOM     14  C   UNL     1       0.007   1.795  24.786  0.00  0.00    -0.032 A 
ATOM     16  C   UNL     1       1.208   1.757  24.077  0.00  0.00    +0.023 A 
ATOM     17  C   UNL     1      -0.846   0.691  24.772  0.00  0.00    +0.005 A 
ATOM     19  C   UNL     1       1.557   0.616  23.355  0.00  0.00    +0.052 A 
ATOM     20  C   UNL     1      -0.496  -0.450  24.050  0.00  0.00    +0.002 A 
ATOM     21  C   UNL     1       0.704  -0.488  23.342  0.00  0.00    +0.019 A 
BRANCH  19  24
ATOM      7  N   UNL     1       3.787   0.545  22.041  0.00  0.00    -0.191 NA
ATOM     24  C   UNL     1       2.787   0.577  22.630  0.00  0.00    +0.099 C 
ENDBRANCH  19  24
ENDBRANCH  13  14
ENDBRANCH   4  13
ENDBRANCH   8   4
BRANCH  10  12
ATOM     12  C   UNL     1      -5.740   2.829  25.179  0.00  0.00    +0.138 C 
BRANCH  12   5
ATOM      3  O   UNL     1      -4.003   1.418  23.380  0.00  0.00    -0.270 OA
ATOM      5  N   UNL     1      -5.268   1.482  25.324  0.00  0.00    -0.309 N 
ATOM     15  C   UNL     1      -4.425   0.875  24.397  0.00  0.00    +0.244 C 
ATOM     29  H   UNL     1      -5.633   0.953  26.109  0.00  0.00    +0.149 HD
BRANCH  15  18
ATOM      6  N   UNL     1      -3.333  -3.184  25.207  0.00  0.00    -0.263 NA
ATOM     18  C   UNL     1      -4.047  -0.534  24.678  0.00  0.00    +0.040 A 
ATOM     22  C   UNL     1      -3.545  -0.885  25.926  0.00  0.00    +0.033 A 
ATOM     23  C   UNL     1      -4.194  -1.506  23.695  0.00  0.00    +0.033 A 
ATOM     25  C   UNL     1      -3.205  -2.212  26.138  0.00  0.00    +0.111 A 
ATOM     26  C   UNL     1      -3.826  -2.805  24.007  0.00  0.00    +0.111 A 
ENDBRANCH  15  18
ENDBRANCH  12   5
ENDBRANCH  10  12
TORSDOF 8
ENDMDL
MODEL 2
REMARK VINA RESULT:      -4.9      1.581      4.958
REMARK  Name = 75536802
REMARK  8 active torsions:
REMARK  status: ('A' for Active; 'I' for Inactive)
REMARK    1  A    between atoms: O_2  and  C_9
REMARK    2  A    between atoms: N_4  and  C_8
REMARK    3  A    between atoms: N_4  and  C_13
REMARK    4  A    between atoms: N_5  and  C_12
REMARK    5  A    between atoms: C_10  and  C_12
REMARK    6  A    between atoms: C_13  and  C_14
REMARK    7  A    between atoms: C_15  and  C_18
REMARK    8  A    between atoms: C_19  and  C_24
REMARK                            x       y       z     vdW  Elec       q    Type
REMARK                         _______ _______ _______ _____ _____    ______ ____
ROOT
ATOM      1  O   UNL     1      -2.627   3.514  23.239  0.00  0.00    -0.371 OA
ATOM      8  C   UNL     1      -4.620   2.900  24.377  0.00  0.00    +0.111 C 
ATOM      9  C   UNL     1      -3.545   3.221  25.399  0.00  0.00    +0.164 C 
ATOM     10  C   UNL     1      -2.591   4.066  24.566  0.00  0.00    +0.165 C 
ATOM     11  C   UNL     1      -3.786   2.669  23.127  0.00  0.00    +0.181 C 
ENDROOT
BRANCH   9   2
ATOM      2  O   UNL     1      -4.047   3.936  26.512  0.00  0.00    -0.388 OA
ATOM     28  H   UNL     1      -3.363   3.948  27.201  0.00  0.00    +0.210 HD
ENDBRANCH   9   2
BRANCH   8   4
ATOM      4  N   UNL     1      -5.437   1.751  24.732  0.00  0.00    -0.305 NA
ATOM     27  H   UNL     1      -5.585   1.178  23.900  0.00  0.00    +0.123 HD
BRANCH   4  13
ATOM     13  C   UNL     1      -4.786   0.940  25.754  0.00  0.00    +0.116 C 
BRANCH  13  14
ATOM     14  C   UNL     1      -4.115  -0.272  25.166  0.00  0.00    -0.032 A 
ATOM     16  C   UNL     1      -2.799  -0.580  25.514  0.00  0.00    +0.023 A 
ATOM     17  C   UNL     1      -4.809  -1.090  24.274  0.00  0.00    +0.005 A 
ATOM     19  C   UNL     1      -2.178  -1.703  24.970  0.00  0.00    +0.052 A 
ATOM     20  C   UNL     1      -4.187  -2.214  23.731  0.00  0.00    +0.002 A 
ATOM     21  C   UNL     1      -2.872  -2.521  24.078  0.00  0.00    +0.019 A 
BRANCH  19  24
ATOM      7  N   UNL     1       0.265  -2.275  25.616  0.00  0.00    -0.191 NA
ATOM     24  C   UNL     1      -0.830  -2.018  25.326  0.00  0.00    +0.099 C 
ENDBRANCH  19  24
ENDBRANCH  13  14
ENDBRANCH   4  13
ENDBRANCH   8   4
BRANCH  10  12
ATOM     12  C   UNL     1      -1.165   4.054  25.088  0.00  0.00    +0.138 C 
BRANCH  12   5
ATOM      3  O   UNL     1      -0.275   1.400  25.724  0.00  0.00    -0.270 OA
ATOM      5  N   UNL     1      -0.322   3.218  24.283  0.00  0.00    -0.309 N 
ATOM     15  C   UNL     1       0.062   1.937  24.673  0.00  0.00    +0.244 C 
ATOM     29  H   UNL     1       0.047   3.627  23.432  0.00  0.00    +0.149 HD
BRANCH  15  18
ATOM      6  N   UNL     1       2.647  -0.164  21.985  0.00  0.00    -0.263 NA
ATOM     18  C   UNL     1       0.959   1.210  23.739  0.00  0.00    +0.040 A 
ATOM     22  C   UNL     1       0.462   0.167  22.965  0.00  0.00    +0.033 A 
ATOM     23  C   UNL     1       2.299   1.567  23.636  0.00  0.00    +0.033 A 
ATOM     25  C   UNL     1       1.339  -0.483  22.112  0.00  0.00    +0.111 A 
ATOM     26  C   UNL     1       3.094   0.856  22.752  0.00  0.00    +0.111 A 
ENDBRANCH  15  18
ENDBRANCH  12   5
ENDBRANCH  10  12
TORSDOF 8
ENDMDL
MODEL 3
REMARK VINA RESULT:      -4.2      2.443      6.843
REMARK  Name = 75536802
REMARK  8 active torsions:
REMARK  status: ('A' for Active; 'I' for Inactive)
REMARK    1  A    between atoms: O_2  and  C_9
REMARK    2  A    between atoms: N_4  and  C_8
REMARK    3  A    between atoms: N_4  and  C_13
REMARK    4  A    between atoms: N_5  and  C_12
REMARK    5  A    between atoms: C_10  and  C_12
REMARK    6  A    between atoms: C_13  and  C_14
REMARK    7  A    between atoms: C_15  and  C_18
REMARK    8  A    between atoms: C_19  and  C_24
REMARK                            x       y       z     vdW  Elec       q    Type
REMARK                         _______ _______ _______ _____ _____    ______ ____
ROOT
ATOM      1  O   UNL     1      -0.723  -0.591  25.627  0.00  0.00    -0.371 OA
ATOM      8  C   UNL     1      -3.019  -1.183  25.764  0.00  0.00    +0.111 C 
ATOM      9  C   UNL     1      -2.578  -1.240  24.313  0.00  0.00    +0.164 C 
ATOM     10  C   UNL     1      -1.070  -1.369  24.469  0.00  0.00    +0.165 C 
ATOM     11  C   UNL     1      -1.922  -0.328  26.377  0.00  0.00    +0.181 C 
ENDROOT
BRANCH   9   2
ATOM      2  O   UNL     1      -3.133  -2.341  23.618  0.00  0.00    -0.388 OA
ATOM     28  H   UNL     1      -4.090  -2.355  23.782  0.00  0.00    +0.210 HD
ENDBRANCH   9   2
BRANCH   8   4
ATOM      4  N   UNL     1      -4.346  -0.617  25.948  0.00  0.00    -0.305 NA
ATOM     27  H   UNL     1      -4.339  -0.013  26.770  0.00  0.00    +0.123 HD
BRANCH   4  13
ATOM     13  C   UNL     1      -4.748   0.169  24.788  0.00  0.00    +0.116 C 
BRANCH  13  14
ATOM     14  C   UNL     1      -4.638   1.648  25.046  0.00  0.00    -0.032 A 
ATOM     16  C   UNL     1      -3.399   2.283  24.957  0.00  0.00    +0.023 A 
ATOM     17  C   UNL     1      -5.777   2.385  25.373  0.00  0.00    +0.005 A 
ATOM     19  C   UNL     1      -3.299   3.653  25.195  0.00  0.00    +0.052 A 
ATOM     20  C   UNL     1      -5.676   3.755  25.610  0.00  0.00    +0.002 A 
ATOM     21  C   UNL     1      -4.437   4.389  25.522  0.00  0.00    +0.019 A 
BRANCH  19  24
ATOM      7  N   UNL     1      -0.998   4.832  25.030  0.00  0.00    -0.191 NA
ATOM     24  C   UNL     1      -2.029   4.303  25.104  0.00  0.00    +0.099 C 
ENDBRANCH  19  24
ENDBRANCH  13  14
ENDBRANCH   4  13
ENDBRANCH   8   4
BRANCH  10  12
ATOM     12  C   UNL     1      -0.296  -0.867  23.263  0.00  0.00    +0.138 C 
BRANCH  12   5
ATOM      3  O   UNL     1       1.809  -0.264  21.407  0.00  0.00    -0.270 OA
ATOM      5  N   UNL     1       1.093  -0.685  23.573  0.00  0.00    -0.309 N 
ATOM     15  C   UNL     1       2.049  -0.394  22.604  0.00  0.00    +0.244 C 
ATOM     29  H   UNL     1       1.370  -0.845  24.535  0.00  0.00    +0.149 HD
BRANCH  15  18
ATOM      6  N   UNL     1       6.082  -0.012  23.989  0.00  0.00    -0.263 NA
ATOM     18  C   UNL     1       3.449  -0.261  23.083  0.00  0.00    +0.040 A 
ATOM     22  C   UNL     1       4.072  -1.329  23.720  0.00  0.00    +0.033 A 
ATOM     23  C   UNL     1       4.141   0.930  22.898  0.00  0.00    +0.033 A 
ATOM     25  C   UNL     1       5.377  -1.155  24.151  0.00  0.00    +0.111 A 
ATOM     26  C   UNL     1       5.444   1.004  23.365  0.00  0.00    +0.111 A 
ENDBRANCH  15  18
ENDBRANCH  12   5
ENDBRANCH  10  12
TORSDOF 8
ENDMDL
MODEL 4
REMARK VINA RESULT:      -4.0      2.264      5.142
REMARK  Name = 75536802
REMARK  8 active torsions:
REMARK  status: ('A' for Active; 'I' for Inactive)
REMARK    1  A    between atoms: O_2  and  C_9
REMARK    2  A    between atoms: N_4  and  C_8
REMARK    3  A    between atoms: N_4  and  C_13
REMARK    4  A    between atoms: N_5  and  C_12
REMARK    5  A    between atoms: C_10  and  C_12
REMARK    6  A    between atoms: C_13  and  C_14
REMARK    7  A    between atoms: C_15  and  C_18
REMARK    8  A    between atoms: C_19  and  C_24
REMARK                            x       y       z     vdW  Elec       q    Type
REMARK                         _______ _______ _______ _____ _____    ______ ____
ROOT
ATOM      1  O   UNL     1      -2.220  -2.943  23.512  0.00  0.00    -0.371 OA
ATOM      8  C   UNL     1      -1.258  -2.189  25.548  0.00  0.00    +0.111 C 
ATOM      9  C   UNL     1      -2.690  -1.692  25.462  0.00  0.00    +0.164 C 
ATOM     10  C   UNL     1      -3.276  -2.661  24.445  0.00  0.00    +0.165 C 
ATOM     11  C   UNL     1      -0.971  -2.530  24.095  0.00  0.00    +0.181 C 
ENDROOT
BRANCH   9   2
ATOM      2  O   UNL     1      -3.365  -1.758  26.703  0.00  0.00    -0.388 OA
ATOM     28  H   UNL     1      -3.004  -1.069  27.285  0.00  0.00    +0.210 HD
ENDBRANCH   9   2
BRANCH   8   4
ATOM      4  N   UNL     1      -0.332  -1.208  26.092  0.00  0.00    -0.305 NA
ATOM     27  H   UNL     1       0.390  -1.012  25.399  0.00  0.00    +0.123 HD
BRANCH   4  13
ATOM     13  C   UNL     1      -1.019   0.035  26.423  0.00  0.00    +0.116 C 
BRANCH  13  14
ATOM     14  C   UNL     1      -0.613   1.160  25.509  0.00  0.00    -0.032 A 
ATOM     16  C   UNL     1      -1.120   2.444  25.715  0.00  0.00    +0.023 A 
ATOM     17  C   UNL     1       0.270   0.921  24.457  0.00  0.00    +0.005 A 
ATOM     19  C   UNL     1      -0.743   3.487  24.870  0.00  0.00    +0.052 A 
ATOM     20  C   UNL     1       0.648   1.964  23.612  0.00  0.00    +0.002 A 
ATOM     21  C   UNL     1       0.141   3.247  23.818  0.00  0.00    +0.019 A 
BRANCH  19  24
ATOM      7  N   UNL     1      -1.682   5.870  25.251  0.00  0.00    -0.191 NA
ATOM     24  C   UNL     1      -1.261   4.802  25.080  0.00  0.00    +0.099 C 
ENDBRANCH  19  24
ENDBRANCH  13  14
ENDBRANCH   4  13
ENDBRANCH   8   4
BRANCH  10  12
ATOM     12  C   UNL     1      -4.478  -2.100  23.705  0.00  0.00    +0.138 C 
BRANCH  12   5
ATOM      3  O   UNL     1      -3.146   0.385  23.166  0.00  0.00    -0.270 OA
ATOM      5  N   UNL     1      -4.843  -0.807  24.207  0.00  0.00    -0.309 N 
ATOM     15  C   UNL     1      -4.135   0.350  23.892  0.00  0.00    +0.244 C 
ATOM     29  H   UNL     1      -5.611  -0.775  24.867  0.00  0.00    +0.149 HD
BRANCH  15  18
ATOM      6  N   UNL     1      -5.544   3.974  25.684  0.00  0.00    -0.263 NA
ATOM     18  C   UNL     1      -4.625   1.607  24.513  0.00  0.00    +0.040 A 
ATOM     22  C   UNL     1      -4.174   2.838  24.047  0.00  0.00    +0.033 A 
ATOM     23  C   UNL     1      -5.536   1.559  25.562  0.00  0.00    +0.033 A 
ATOM     25  C   UNL     1      -4.658   3.981  24.662  0.00  0.00    +0.111 A 
ATOM     26  C   UNL     1      -5.961   2.760  26.109  0.00  0.00    +0.111 A 
ENDBRANCH  15  18
ENDBRANCH  12   5
ENDBRANCH  10  12
TORSDOF 8
ENDMDL
MODEL 5
REMARK VINA RESULT:      -4.0      2.426      6.623
REMARK  Name = 75536802
REMARK  8 active torsions:
REMARK  status: ('A' for Active; 'I' for Inactive)
REMARK    1  A    between atoms: O_2  and  C_9
REMARK    2  A    between atoms: N_4  and  C_8
REMARK    3  A    between atoms: N_4  and  C_13
REMARK    4  A    between atoms: N_5  and  C_12
REMARK    5  A    between atoms: C_10  and  C_12
REMARK    6  A    between atoms: C_13  and  C_14
REMARK    7  A    between atoms: C_15  and  C_18
REMARK    8  A    between atoms: C_19  and  C_24
REMARK                            x       y       z     vdW  Elec       q    Type
REMARK                         _______ _______ _______ _____ _____    ______ ____
ROOT
ATOM      1  O   UNL     1      -0.973  -0.588  26.235  0.00  0.00    -0.371 OA
ATOM      8  C   UNL     1      -2.403  -2.312  25.444  0.00  0.00    +0.111 C 
ATOM      9  C   UNL     1      -1.556  -1.804  24.292  0.00  0.00    +0.164 C 
ATOM     10  C   UNL     1      -0.403  -1.151  25.041  0.00  0.00    +0.165 C 
ATOM     11  C   UNL     1      -2.273  -1.170  26.439  0.00  0.00    +0.181 C 
ENDROOT
BRANCH   9   2
ATOM      2  O   UNL     1      -1.112  -2.844  23.443  0.00  0.00    -0.388 OA
ATOM     28  H   UNL     1      -0.401  -3.327  23.896  0.00  0.00    +0.210 HD
ENDBRANCH   9   2
BRANCH   8   4
ATOM      4  N   UNL     1      -3.783  -2.587  25.077  0.00  0.00    -0.305 NA
ATOM     27  H   UNL     1      -4.401  -2.194  25.787  0.00  0.00    +0.123 HD
BRANCH   4  13
ATOM     13  C   UNL     1      -4.110  -1.994  23.786  0.00  0.00    +0.116 C 
BRANCH  13  14
ATOM     14  C   UNL     1      -4.116  -0.489  23.844  0.00  0.00    -0.032 A 
ATOM     16  C   UNL     1      -4.891   0.170  24.798  0.00  0.00    +0.023 A 
ATOM     17  C   UNL     1      -3.344   0.246  22.944  0.00  0.00    +0.005 A 
ATOM     19  C   UNL     1      -4.895   1.563  24.853  0.00  0.00    +0.052 A 
ATOM     20  C   UNL     1      -3.347   1.639  23.000  0.00  0.00    +0.002 A 
ATOM     21  C   UNL     1      -4.123   2.298  23.953  0.00  0.00    +0.019 A 
BRANCH  19  24
ATOM      7  N   UNL     1      -6.334   2.788  26.624  0.00  0.00    -0.191 NA
ATOM     24  C   UNL     1      -5.689   2.239  25.831  0.00  0.00    +0.099 C 
ENDBRANCH  19  24
ENDBRANCH  13  14
ENDBRANCH   4  13
ENDBRANCH   8   4
BRANCH  10  12
ATOM     12  C   UNL     1       0.293  -0.063  24.243  0.00  0.00    +0.138 C 
BRANCH  12   5
ATOM      3  O   UNL     1       0.928   2.032  26.100  0.00  0.00    -0.270 OA
ATOM      5  N   UNL     1      -0.382   1.195  24.377  0.00  0.00    -0.309 N 
ATOM     15  C   UNL     1      -0.005   2.157  25.311  0.00  0.00    +0.244 C 
ATOM     29  H   UNL     1      -1.204   1.335  23.800  0.00  0.00    +0.149 HD
BRANCH  15  18
ATOM      6  N   UNL     1      -2.357   5.733  25.401  0.00  0.00    -0.263 NA
ATOM     18  C   UNL     1      -0.822   3.397  25.341  0.00  0.00    +0.040 A 
ATOM     22  C   UNL     1      -0.415   4.518  24.626  0.00  0.00    +0.033 A 
ATOM     23  C   UNL     1      -1.996   3.442  26.085  0.00  0.00    +0.033 A 
ATOM     25  C   UNL     1      -1.209   5.651  24.690  0.00  0.00    +0.111 A 
ATOM     26  C   UNL     1      -2.721   4.623  26.082  0.00  0.00    +0.111 A 
ENDBRANCH  15  18
ENDBRANCH  12   5
ENDBRANCH  10  12
TORSDOF 8
ENDMDL
MODEL 6
REMARK VINA RESULT:      -4.0      2.327      5.403
REMARK  Name = 75536802
REMARK  8 active torsions:
REMARK  status: ('A' for Active; 'I' for Inactive)
REMARK    1  A    between atoms: O_2  and  C_9
REMARK    2  A    between atoms: N_4  and  C_8
REMARK    3  A    between atoms: N_4  and  C_13
REMARK    4  A    between atoms: N_5  and  C_12
REMARK    5  A    between atoms: C_10  and  C_12
REMARK    6  A    between atoms: C_13  and  C_14
REMARK    7  A    between atoms: C_15  and  C_18
REMARK    8  A    between atoms: C_19  and  C_24
REMARK                            x       y       z     vdW  Elec       q    Type
REMARK                         _______ _______ _______ _____ _____    ______ ____
ROOT
ATOM      1  O   UNL     1      -1.514  -2.477  23.768  0.00  0.00    -0.371 OA
ATOM      8  C   UNL     1      -0.018  -0.837  24.612  0.00  0.00    +0.111 C 
ATOM      9  C   UNL     1      -1.261  -0.868  25.482  0.00  0.00    +0.164 C 
ATOM     10  C   UNL     1      -1.814  -2.248  25.154  0.00  0.00    +0.165 C 
ATOM     11  C   UNL     1      -0.514  -1.528  23.353  0.00  0.00    +0.181 C 
ENDROOT
BRANCH   9   2
ATOM      2  O   UNL     1      -0.967  -0.731  26.859  0.00  0.00    -0.388 OA
ATOM     28  H   UNL     1      -0.296  -1.392  27.095  0.00  0.00    +0.210 HD
ENDBRANCH   9   2
BRANCH   8   4
ATOM      4  N   UNL     1       0.484   0.504  24.361  0.00  0.00    -0.305 NA
ATOM     27  H   UNL     1       1.380   0.439  23.877  0.00  0.00    +0.123 HD
BRANCH   4  13
ATOM     13  C   UNL     1      -0.445   1.266  23.534  0.00  0.00    +0.116 C 
BRANCH  13  14
ATOM     14  C   UNL     1      -0.758   2.610  24.134  0.00  0.00    -0.032 A 
ATOM     16  C   UNL     1      -1.646   2.707  25.206  0.00  0.00    +0.023 A 
ATOM     17  C   UNL     1      -0.159   3.760  23.620  0.00  0.00    +0.005 A 
ATOM     19  C   UNL     1      -1.935   3.952  25.762  0.00  0.00    +0.052 A 
ATOM     20  C   UNL     1      -0.447   5.006  24.177  0.00  0.00    +0.002 A 
ATOM     21  C   UNL     1      -1.336   5.102  25.248  0.00  0.00    +0.019 A 
BRANCH  19  24
ATOM      7  N   UNL     1      -3.583   4.133  27.752  0.00  0.00    -0.191 NA
ATOM     24  C   UNL     1      -2.844   4.052  26.860  0.00  0.00    +0.099 C 
ENDBRANCH  19  24
ENDBRANCH  13  14
ENDBRANCH   4  13
ENDBRANCH   8   4
BRANCH  10  12
ATOM     12  C   UNL     1      -3.310  -2.365  25.382  0.00  0.00    +0.138 C 
BRANCH  12   5
ATOM      3  O   UNL     1      -4.007  -0.521  23.295  0.00  0.00    -0.270 OA
ATOM      5  N   UNL     1      -3.916  -1.075  25.546  0.00  0.00    -0.309 N 
ATOM     15  C   UNL     1      -4.220  -0.243  24.472  0.00  0.00    +0.244 C 
ATOM     29  H   UNL     1      -4.056  -0.756  26.498  0.00  0.00    +0.149 HD
BRANCH  15  18
ATOM      6  N   UNL     1      -5.946   3.550  25.451  0.00  0.00    -0.263 NA
ATOM     18  C   UNL     1      -4.820   1.072  24.811  0.00  0.00    +0.040 A 
ATOM     22  C   UNL     1      -4.522   2.194  24.045  0.00  0.00    +0.033 A 
ATOM     23  C   UNL     1      -5.682   1.188  25.896  0.00  0.00    +0.033 A 
ATOM     25  C   UNL     1      -5.104   3.398  24.404  0.00  0.00    +0.111 A 
ATOM     26  C   UNL     1      -6.214   2.437  26.172  0.00  0.00    +0.111 A 
ENDBRANCH  15  18
ENDBRANCH  12   5
ENDBRANCH  10  12
TORSDOF 8
ENDMDL
MODEL 7
REMARK VINA RESULT:      -3.2      2.381      5.104
REMARK  Name = 75536802
REMARK  8 active torsions:
REMARK  status: ('A' for Active; 'I' for Inactive)
REMARK    1  A    between atoms: O_2  and  C_9
REMARK    2  A    between atoms: N_4  and  C_8
REMARK    3  A    between atoms: N_4  and  C_13
REMARK    4  A    between atoms: N_5  and  C_12
REMARK    5  A    between atoms: C_10  and  C_12
REMARK    6  A    between atoms: C_13  and  C_14
REMARK    7  A    between atoms: C_15  and  C_18
REMARK    8  A    between atoms: C_19  and  C_24
REMARK                            x       y       z     vdW  Elec       q    Type
REMARK                         _______ _______ _______ _____ _____    ______ ____
ROOT
ATOM      1  O   UNL     1      -1.888  -3.030  23.886  0.00  0.00    -0.371 OA
ATOM      8  C   UNL     1      -0.096  -1.532  24.317  0.00  0.00    +0.111 C 
ATOM      9  C   UNL     1      -1.246  -1.212  25.254  0.00  0.00    +0.164 C 
ATOM     10  C   UNL     1      -2.024  -2.520  25.222  0.00  0.00    +0.165 C 
ATOM     11  C   UNL     1      -0.801  -2.341  23.241  0.00  0.00    +0.181 C 
ENDROOT
BRANCH   9   2
ATOM      2  O   UNL     1      -0.811  -0.888  26.561  0.00  0.00    -0.388 OA
ATOM     28  H   UNL     1      -0.450  -1.692  26.971  0.00  0.00    +0.210 HD
ENDBRANCH   9   2
BRANCH   8   4
ATOM      4  N   UNL     1       0.574  -0.354  23.791  0.00  0.00    -0.305 NA
ATOM     27  H   UNL     1       1.126  -0.621  22.976  0.00  0.00    +0.123 HD
BRANCH   4  13
ATOM     13  C   UNL     1      -0.391   0.665  23.395  0.00  0.00    +0.116 C 
BRANCH  13  14
ATOM     14  C   UNL     1      -0.373   1.848  24.327  0.00  0.00    -0.032 A 
ATOM     16  C   UNL     1       0.145   1.714  25.615  0.00  0.00    +0.023 A 
ATOM     17  C   UNL     1      -0.872   3.079  23.900  0.00  0.00    +0.005 A 
ATOM     19  C   UNL     1       0.163   2.810  26.477  0.00  0.00    +0.052 A 
ATOM     20  C   UNL     1      -0.853   4.175  24.762  0.00  0.00    +0.002 A 
ATOM     21  C   UNL     1      -0.336   4.041  26.051  0.00  0.00    +0.019 A 
BRANCH  19  24
ATOM      7  N   UNL     1       1.124   2.562  28.870  0.00  0.00    -0.191 NA
ATOM     24  C   UNL     1       0.693   2.673  27.797  0.00  0.00    +0.099 C 
ENDBRANCH  19  24
ENDBRANCH  13  14
ENDBRANCH   4  13
ENDBRANCH   8   4
BRANCH  10  12
ATOM     12  C   UNL     1      -3.495  -2.353  25.561  0.00  0.00    +0.138 C 
BRANCH  12   5
ATOM      3  O   UNL     1      -4.206  -0.663  23.352  0.00  0.00    -0.270 OA
ATOM      5  N   UNL     1      -3.861  -0.967  25.626  0.00  0.00    -0.309 N 
ATOM     15  C   UNL     1      -4.192  -0.222  24.497  0.00  0.00    +0.244 C 
ATOM     29  H   UNL     1      -3.804  -0.523  26.535  0.00  0.00    +0.149 HD
BRANCH  15  18
ATOM      6  N   UNL     1      -5.149   3.897  25.166  0.00  0.00    -0.263 NA
ATOM     18  C   UNL     1      -4.522   1.208  24.730  0.00  0.00    +0.040 A 
ATOM     22  C   UNL     1      -5.400   1.563  25.748  0.00  0.00    +0.033 A 
ATOM     23  C   UNL     1      -3.956   2.195  23.931  0.00  0.00    +0.033 A 
ATOM     25  C   UNL     1      -5.680   2.909  25.923  0.00  0.00    +0.111 A 
ATOM     26  C   UNL     1      -4.299   3.513  24.187  0.00  0.00    +0.111 A 
ENDBRANCH  15  18
ENDBRANCH  12   5
ENDBRANCH  10  12
TORSDOF 8
ENDMDL
MODEL 8
REMARK VINA RESULT:      -2.8      2.361      6.619
REMARK  Name = 75536802
REMARK  8 active torsions:
REMARK  status: ('A' for Active; 'I' for Inactive)
REMARK    1  A    between atoms: O_2  and  C_9
REMARK    2  A    between atoms: N_4  and  C_8
REMARK    3  A    between atoms: N_4  and  C_13
REMARK    4  A    between atoms: N_5  and  C_12
REMARK    5  A    between atoms: C_10  and  C_12
REMARK    6  A    between atoms: C_13  and  C_14
REMARK    7  A    between atoms: C_15  and  C_18
REMARK    8  A    between atoms: C_19  and  C_24
REMARK                            x       y       z     vdW  Elec       q    Type
REMARK                         _______ _______ _______ _____ _____    ______ ____
ROOT
ATOM      1  O   UNL     1      -0.409   0.344  25.177  0.00  0.00    -0.371 OA
ATOM      8  C   UNL     1      -1.602   2.380  24.905  0.00  0.00    +0.111 C 
ATOM      9  C   UNL     1      -1.261   1.819  23.536  0.00  0.00    +0.164 C 
ATOM     10  C   UNL     1      -1.013   0.355  23.873  0.00  0.00    +0.165 C 
ATOM     11  C   UNL     1      -0.622   1.628  25.791  0.00  0.00    +0.181 C 
ENDROOT
BRANCH   9   2
ATOM      2  O   UNL     1      -2.314   1.975  22.605  0.00  0.00    -0.388 OA
ATOM     28  H   UNL     1      -2.310   2.894  22.290  0.00  0.00    +0.210 HD
ENDBRANCH   9   2
BRANCH   8   4
ATOM      4  N   UNL     1      -1.455   3.823  24.997  0.00  0.00    -0.305 NA
ATOM     27  H   UNL     1      -1.299   4.202  24.062  0.00  0.00    +0.123 HD
BRANCH   4  13
ATOM     13  C   UNL     1      -2.650   4.438  25.562  0.00  0.00    +0.116 C 
BRANCH  13  14
ATOM     14  C   UNL     1      -3.849   3.534  25.459  0.00  0.00    -0.032 A 
ATOM     16  C   UNL     1      -3.686   2.197  25.094  0.00  0.00    +0.023 A 
ATOM     17  C   UNL     1      -5.123   4.032  25.730  0.00  0.00    +0.005 A 
ATOM     19  C   UNL     1      -4.797   1.359  25.000  0.00  0.00    +0.052 A 
ATOM     20  C   UNL     1      -6.234   3.194  25.637  0.00  0.00    +0.002 A 
ATOM     21  C   UNL     1      -6.071   1.857  25.271  0.00  0.00    +0.019 A 
BRANCH  19  24
ATOM      7  N   UNL     1      -4.495  -1.122  24.322  0.00  0.00    -0.191 NA
ATOM     24  C   UNL     1      -4.631  -0.010  24.626  0.00  0.00    +0.099 C 
ENDBRANCH  19  24
ENDBRANCH  13  14
ENDBRANCH   4  13
ENDBRANCH   8   4
BRANCH  10  12
ATOM     12  C   UNL     1      -0.102  -0.344  22.879  0.00  0.00    +0.138 C 
BRANCH  12   5
ATOM      3  O   UNL     1       2.230  -0.155  21.215  0.00  0.00    -0.270 OA
ATOM      5  N   UNL     1       1.263  -0.321  23.318  0.00  0.00    -0.309 N 
ATOM     15  C   UNL     1       2.337  -0.227  22.436  0.00  0.00    +0.244 C 
ATOM     29  H   UNL     1       1.425  -0.445  24.311  0.00  0.00    +0.149 HD
BRANCH  15  18
ATOM      6  N   UNL     1       6.236  -0.269  24.202  0.00  0.00    -0.263 NA
ATOM     18  C   UNL     1       3.690  -0.242  23.047  0.00  0.00    +0.040 A 
ATOM     22  C   UNL     1       4.160  -1.391  23.673  0.00  0.00    +0.033 A 
ATOM     23  C   UNL     1       4.492   0.893  22.997  0.00  0.00    +0.033 A 
ATOM     25  C   UNL     1       5.428  -1.354  24.231  0.00  0.00    +0.111 A 
ATOM     26  C   UNL     1       5.746   0.829  23.584  0.00  0.00    +0.111 A 
ENDBRANCH  15  18
ENDBRANCH  12   5
ENDBRANCH  10  12
TORSDOF 8
ENDMDL
MODEL 9
REMARK VINA RESULT:      -2.6      2.287      5.198
REMARK  Name = 75536802
REMARK  8 active torsions:
REMARK  status: ('A' for Active; 'I' for Inactive)
REMARK    1  A    between atoms: O_2  and  C_9
REMARK    2  A    between atoms: N_4  and  C_8
REMARK    3  A    between atoms: N_4  and  C_13
REMARK    4  A    between atoms: N_5  and  C_12
REMARK    5  A    between atoms: C_10  and  C_12
REMARK    6  A    between atoms: C_13  and  C_14
REMARK    7  A    between atoms: C_15  and  C_18
REMARK    8  A    between atoms: C_19  and  C_24
REMARK                            x       y       z     vdW  Elec       q    Type
REMARK                         _______ _______ _______ _____ _____    ______ ____
ROOT
ATOM      1  O   UNL     1      -1.870  -3.021  23.831  0.00  0.00    -0.371 OA
ATOM      8  C   UNL     1      -0.074  -1.539  24.300  0.00  0.00    +0.111 C 
ATOM      9  C   UNL     1      -1.222  -1.242  25.247  0.00  0.00    +0.164 C 
ATOM     10  C   UNL     1      -2.003  -2.547  25.181  0.00  0.00    +0.165 C 
ATOM     11  C   UNL     1      -0.783  -2.317  23.203  0.00  0.00    +0.181 C 
ENDROOT
BRANCH   9   2
ATOM      2  O   UNL     1      -0.784  -0.955  26.562  0.00  0.00    -0.388 OA
ATOM     28  H   UNL     1      -0.533  -1.790  26.989  0.00  0.00    +0.210 HD
ENDBRANCH   9   2
BRANCH   8   4
ATOM      4  N   UNL     1       0.597  -0.348  23.805  0.00  0.00    -0.305 NA
ATOM     27  H   UNL     1       1.115  -0.585  22.959  0.00  0.00    +0.123 HD
BRANCH   4  13
ATOM     13  C   UNL     1      -0.363   0.704  23.493  0.00  0.00    +0.116 C 
BRANCH  13  14
ATOM     14  C   UNL     1      -0.364   1.790  24.535  0.00  0.00    -0.032 A 
ATOM     16  C   UNL     1      -0.911   3.040  24.241  0.00  0.00    +0.023 A 
ATOM     17  C   UNL     1       0.179   1.547  25.796  0.00  0.00    +0.005 A 
ATOM     19  C   UNL     1      -0.913   4.045  25.207  0.00  0.00    +0.052 A 
ATOM     20  C   UNL     1       0.176   2.553  26.763  0.00  0.00    +0.002 A 
ATOM     21  C   UNL     1      -0.370   3.802  26.468  0.00  0.00    +0.019 A 
BRANCH  19  24
ATOM      7  N   UNL     1      -1.928   6.365  24.662  0.00  0.00    -0.191 NA
ATOM     24  C   UNL     1      -1.473   5.325  24.906  0.00  0.00    +0.099 C 
ENDBRANCH  19  24
ENDBRANCH  13  14
ENDBRANCH   4  13
ENDBRANCH   8   4
BRANCH  10  12
ATOM     12  C   UNL     1      -3.472  -2.386  25.527  0.00  0.00    +0.138 C 
BRANCH  12   5
ATOM      3  O   UNL     1      -4.244  -0.705  23.331  0.00  0.00    -0.270 OA
ATOM      5  N   UNL     1      -3.843  -1.002  25.597  0.00  0.00    -0.309 N 
ATOM     15  C   UNL     1      -4.204  -0.261  24.475  0.00  0.00    +0.244 C 
ATOM     29  H   UNL     1      -3.767  -0.556  26.504  0.00  0.00    +0.149 HD
BRANCH  15  18
ATOM      6  N   UNL     1      -5.165   3.855  25.158  0.00  0.00    -0.263 NA
ATOM     18  C   UNL     1      -4.536   1.167  24.713  0.00  0.00    +0.040 A 
ATOM     22  C   UNL     1      -5.380   1.522  25.759  0.00  0.00    +0.033 A 
ATOM     23  C   UNL     1      -4.005   2.154  23.890  0.00  0.00    +0.033 A 
ATOM     25  C   UNL     1      -5.662   2.867  25.937  0.00  0.00    +0.111 A 
ATOM     26  C   UNL     1      -4.346   3.471  24.152  0.00  0.00    +0.111 A 
ENDBRANCH  15  18
ENDBRANCH  12   5
ENDBRANCH  10  12
TORSDOF 8
ENDMDL
MODEL 10
REMARK VINA RESULT:      -1.9      2.142      4.720
REMARK  Name = 75536802
REMARK  8 active torsions:
REMARK  status: ('A' for Active; 'I' for Inactive)
REMARK    1  A    between atoms: O_2  and  C_9
REMARK    2  A    between atoms: N_4  and  C_8
REMARK    3  A    between atoms: N_4  and  C_13
REMARK    4  A    between atoms: N_5  and  C_12
REMARK    5  A    between atoms: C_10  and  C_12
REMARK    6  A    between atoms: C_13  and  C_14
REMARK    7  A    between atoms: C_15  and  C_18
REMARK    8  A    between atoms: C_19  and  C_24
REMARK                            x       y       z     vdW  Elec       q    Type
REMARK                         _______ _______ _______ _____ _____    ______ ____
ROOT
ATOM      1  O   UNL     1      -2.589  -3.152  23.690  0.00  0.00    -0.371 OA
ATOM      8  C   UNL     1      -1.209  -2.180  25.361  0.00  0.00    +0.111 C 
ATOM      9  C   UNL     1      -2.555  -1.479  25.360  0.00  0.00    +0.164 C 
ATOM     10  C   UNL     1      -3.427  -2.519  24.671  0.00  0.00    +0.165 C 
ATOM     11  C   UNL     1      -1.216  -2.845  23.994  0.00  0.00    +0.181 C 
ENDROOT
BRANCH   9   2
ATOM      2  O   UNL     1      -3.016  -1.185  26.665  0.00  0.00    -0.388 OA
ATOM     28  H   UNL     1      -3.824  -0.651  26.591  0.00  0.00    +0.210 HD
ENDBRANCH   9   2
BRANCH   8   4
ATOM      4  N   UNL     1      -0.082  -1.279  25.544  0.00  0.00    -0.305 NA
ATOM     27  H   UNL     1       0.780  -1.771  25.308  0.00  0.00    +0.123 HD
BRANCH   4  13
ATOM     13  C   UNL     1      -0.205  -0.104  24.690  0.00  0.00    +0.116 C 
BRANCH  13  14
ATOM     14  C   UNL     1       0.823  -0.100  23.590  0.00  0.00    -0.032 A 
ATOM     16  C   UNL     1       2.162   0.156  23.885  0.00  0.00    +0.023 A 
ATOM     17  C   UNL     1       0.436  -0.356  22.274  0.00  0.00    +0.005 A 
ATOM     19  C   UNL     1       3.113   0.157  22.866  0.00  0.00    +0.052 A 
ATOM     20  C   UNL     1       1.388  -0.355  21.255  0.00  0.00    +0.002 A 
ATOM     21  C   UNL     1       2.726  -0.098  21.550  0.00  0.00    +0.019 A 
BRANCH  19  24
ATOM      7  N   UNL     1       5.600   0.632  23.414  0.00  0.00    -0.191 NA
ATOM     24  C   UNL     1       4.485   0.420  23.168  0.00  0.00    +0.099 C 
ENDBRANCH  19  24
ENDBRANCH  13  14
ENDBRANCH   4  13
ENDBRANCH   8   4
BRANCH  10  12
ATOM     12  C   UNL     1      -4.649  -1.924  23.995  0.00  0.00    +0.138 C 
BRANCH  12   5
ATOM      3  O   UNL     1      -3.240   0.369  22.997  0.00  0.00    -0.270 OA
ATOM      5  N   UNL     1      -4.850  -0.559  24.386  0.00  0.00    -0.309 N 
ATOM     15  C   UNL     1      -4.116   0.495  23.847  0.00  0.00    +0.244 C 
ATOM     29  H   UNL     1      -5.513  -0.392  25.135  0.00  0.00    +0.149 HD
BRANCH  15  18
ATOM      6  N   UNL     1      -5.006   4.393  25.377  0.00  0.00    -0.263 NA
ATOM     18  C   UNL     1      -4.426   1.847  24.377  0.00  0.00    +0.040 A 
ATOM     22  C   UNL     1      -3.648   2.938  24.004  0.00  0.00    +0.033 A 
ATOM     23  C   UNL     1      -5.494   2.029  25.249  0.00  0.00    +0.033 A 
ATOM     25  C   UNL     1      -3.975   4.178  24.528  0.00  0.00    +0.111 A 
ATOM     26  C   UNL     1      -5.741   3.310  25.716  0.00  0.00    +0.111 A 
ENDBRANCH  15  18
ENDBRANCH  12   5
ENDBRANCH  10  12
TORSDOF 8
ENDMDL
