MODEL 1
REMARK VINA RESULT:      -0.3      0.000      0.000
REMARK  Name = 45784258
REMARK  6 active torsions:
REMARK  status: ('A' for Active; 'I' for Inactive)
REMARK    1  A    between atoms: O_4  and  C_28
REMARK    2  A    between atoms: N_6  and  C_14
REMARK    3  A    between atoms: C_9  and  C_13
REMARK    4  A    between atoms: C_14  and  C_15
REMARK    5  A    between atoms: C_22  and  C_27
REMARK    6  A    between atoms: C_26  and  C_28
REMARK                            x       y       z     vdW  Elec       q    Type
REMARK                         _______ _______ _______ _____ _____    ______ ____
ROOT
ATOM      6  N   UNL     1      -3.770  -0.600  24.720  0.00  0.00    -0.297 NA
ATOM      9  C   UNL     1      -1.807  -1.404  23.722  0.00  0.00    +0.070 C 
ATOM     10  C   UNL     1      -1.981  -2.051  25.108  0.00  0.00    +0.028 C 
ATOM     11  C   UNL     1      -2.767  -0.208  23.728  0.00  0.00    +0.096 C 
ATOM     12  C   UNL     1      -3.002  -1.176  25.824  0.00  0.00    +0.085 C 
ENDROOT
BRANCH   9  13
ATOM      7  N   UNL     1       0.632  -1.178  24.277  0.00  0.00    -0.342 N 
ATOM      8  N   UNL     1       0.037  -0.509  22.242  0.00  0.00    -0.232 NA
ATOM     13  C   UNL     1      -0.386  -1.018  23.378  0.00  0.00    +0.113 A 
ATOM     16  C   UNL     1       1.788  -0.745  23.681  0.00  0.00    +0.067 A 
ATOM     17  C   UNL     1       1.391  -0.332  22.413  0.00  0.00    +0.089 A 
ATOM     18  C   UNL     1       3.108  -0.680  24.130  0.00  0.00    +0.040 A 
ATOM     21  C   UNL     1       2.353   0.179  21.526  0.00  0.00    +0.030 A 
ATOM     22  C   UNL     1       4.053  -0.170  23.234  0.00  0.00    +0.057 A 
ATOM     23  C   UNL     1       3.684   0.253  21.954  0.00  0.00    +0.014 A 
ATOM     29  H   UNL     1       0.550  -1.550  25.214  0.00  0.00    +0.167 HD
BRANCH  22  27
ATOM      1  F   UNL     1       6.366  -0.370  22.657  0.00  0.00    -0.166 F 
ATOM      2  F   UNL     1       5.785  -0.927  24.676  0.00  0.00    -0.166 F 
ATOM      3  F   UNL     1       5.840   1.168  24.093  0.00  0.00    -0.166 F 
ATOM     27  C   UNL     1       5.483  -0.075  23.655  0.00  0.00    +0.417 C 
ENDBRANCH  22  27
ENDBRANCH   9  13
BRANCH   6  14
ATOM     14  C   UNL     1      -4.597   0.519  25.146  0.00  0.00    +0.119 C 
BRANCH  14  15
ATOM     15  C   UNL     1      -3.838   1.820  25.120  0.00  0.00    -0.033 A 
ATOM     19  C   UNL     1      -2.549   1.884  25.647  0.00  0.00    +0.006 A 
ATOM     20  C   UNL     1      -4.424   2.958  24.568  0.00  0.00    +0.006 A 
ATOM     24  C   UNL     1      -1.845   3.088  25.623  0.00  0.00    +0.015 A 
ATOM     25  C   UNL     1      -3.721   4.163  24.544  0.00  0.00    +0.015 A 
ATOM     26  C   UNL     1      -2.430   4.228  25.071  0.00  0.00    +0.059 A 
BRANCH  26  28
ATOM      5  O   UNL     1      -2.183   6.600  25.249  0.00  0.00    -0.245 OA
ATOM     28  C   UNL     1      -1.697   5.483  25.045  0.00  0.00    +0.337 C 
BRANCH  28   4
ATOM      4  O   UNL     1      -0.375   5.308  24.768  0.00  0.00    -0.477 OA
ATOM     30  H   UNL     1      -0.046   5.975  24.128  0.00  0.00    +0.295 HD
ENDBRANCH  28   4
ENDBRANCH  26  28
ENDBRANCH  14  15
ENDBRANCH   6  14
TORSDOF 6
ENDMDL
MODEL 2
REMARK VINA RESULT:       2.8      1.479      2.142
REMARK  Name = 45784258
REMARK  6 active torsions:
REMARK  status: ('A' for Active; 'I' for Inactive)
REMARK    1  A    between atoms: O_4  and  C_28
REMARK    2  A    between atoms: N_6  and  C_14
REMARK    3  A    between atoms: C_9  and  C_13
REMARK    4  A    between atoms: C_14  and  C_15
REMARK    5  A    between atoms: C_22  and  C_27
REMARK    6  A    between atoms: C_26  and  C_28
REMARK                            x       y       z     vdW  Elec       q    Type
REMARK                         _______ _______ _______ _____ _____    ______ ____
ROOT
ATOM      6  N   UNL     1      -3.161  -1.402  24.661  0.00  0.00    -0.297 NA
ATOM      9  C   UNL     1      -1.250  -1.281  23.307  0.00  0.00    +0.070 C 
ATOM     10  C   UNL     1      -1.365  -2.692  23.911  0.00  0.00    +0.028 C 
ATOM     11  C   UNL     1      -2.203  -0.420  24.147  0.00  0.00    +0.096 C 
ATOM     12  C   UNL     1      -2.347  -2.547  25.066  0.00  0.00    +0.085 C 
ENDROOT
BRANCH   9  13
ATOM      7  N   UNL     1       1.234  -1.488  23.609  0.00  0.00    -0.342 N 
ATOM      8  N   UNL     1       0.509   0.485  22.887  0.00  0.00    -0.232 NA
ATOM     13  C   UNL     1       0.155  -0.726  23.255  0.00  0.00    +0.113 A 
ATOM     16  C   UNL     1       2.358  -0.719  23.458  0.00  0.00    +0.067 A 
ATOM     17  C   UNL     1       1.880   0.509  23.007  0.00  0.00    +0.089 A 
ATOM     18  C   UNL     1       3.711  -0.981  23.671  0.00  0.00    +0.040 A 
ATOM     21  C   UNL     1       2.791   1.546  22.748  0.00  0.00    +0.030 A 
ATOM     22  C   UNL     1       4.605   0.062  23.409  0.00  0.00    +0.057 A 
ATOM     23  C   UNL     1       4.154   1.305  22.956  0.00  0.00    +0.014 A 
ATOM     29  H   UNL     1       1.211  -2.449  23.924  0.00  0.00    +0.167 HD
BRANCH  22  27
ATOM      1  F   UNL     1       6.349  -1.036  24.623  0.00  0.00    -0.166 F 
ATOM      2  F   UNL     1       6.728   0.991  23.938  0.00  0.00    -0.166 F 
ATOM      3  F   UNL     1       6.705  -0.656  22.518  0.00  0.00    -0.166 F 
ATOM     27  C   UNL     1       6.067  -0.158  23.617  0.00  0.00    +0.417 C 
ENDBRANCH  22  27
ENDBRANCH   9  13
BRANCH   6  14
ATOM     14  C   UNL     1      -3.961  -0.875  25.756  0.00  0.00    +0.119 C 
BRANCH  14  15
ATOM     15  C   UNL     1      -4.297   0.579  25.557  0.00  0.00    -0.033 A 
ATOM     19  C   UNL     1      -5.630   0.985  25.502  0.00  0.00    +0.006 A 
ATOM     20  C   UNL     1      -3.275   1.520  25.429  0.00  0.00    +0.006 A 
ATOM     24  C   UNL     1      -5.941   2.333  25.318  0.00  0.00    +0.015 A 
ATOM     25  C   UNL     1      -3.586   2.867  25.244  0.00  0.00    +0.015 A 
ATOM     26  C   UNL     1      -4.920   3.274  25.190  0.00  0.00    +0.059 A 
BRANCH  26  28
ATOM      5  O   UNL     1      -6.180   5.277  25.537  0.00  0.00    -0.245 OA
ATOM     28  C   UNL     1      -5.244   4.678  24.998  0.00  0.00    +0.337 C 
BRANCH  28   4
ATOM      4  O   UNL     1      -4.387   5.298  24.140  0.00  0.00    -0.477 OA
ATOM     30  H   UNL     1      -4.833   6.008  23.630  0.00  0.00    +0.295 HD
ENDBRANCH  28   4
ENDBRANCH  26  28
ENDBRANCH  14  15
ENDBRANCH   6  14
TORSDOF 6
ENDMDL
MODEL 3
REMARK VINA RESULT:       3.4      3.152      4.555
REMARK  Name = 45784258
REMARK  6 active torsions:
REMARK  status: ('A' for Active; 'I' for Inactive)
REMARK    1  A    between atoms: O_4  and  C_28
REMARK    2  A    between atoms: N_6  and  C_14
REMARK    3  A    between atoms: C_9  and  C_13
REMARK    4  A    between atoms: C_14  and  C_15
REMARK    5  A    between atoms: C_22  and  C_27
REMARK    6  A    between atoms: C_26  and  C_28
REMARK                            x       y       z     vdW  Elec       q    Type
REMARK                         _______ _______ _______ _____ _____    ______ ____
ROOT
ATOM      6  N   UNL     1      -3.502   3.019  25.090  0.00  0.00    -0.297 NA
ATOM      9  C   UNL     1      -1.210   3.090  24.599  0.00  0.00    +0.070 C 
ATOM     10  C   UNL     1      -1.991   3.870  23.526  0.00  0.00    +0.028 C 
ATOM     11  C   UNL     1      -2.275   2.255  25.324  0.00  0.00    +0.096 C 
ATOM     12  C   UNL     1      -3.436   3.417  23.684  0.00  0.00    +0.085 C 
ENDROOT
BRANCH   9  13
ATOM      7  N   UNL     1       1.210   2.428  24.526  0.00  0.00    -0.342 N 
ATOM      8  N   UNL     1      -0.139   1.310  23.158  0.00  0.00    -0.232 NA
ATOM     13  C   UNL     1      -0.067   2.255  24.069  0.00  0.00    +0.113 A 
ATOM     16  C   UNL     1       2.015   1.536  23.866  0.00  0.00    +0.067 A 
ATOM     17  C   UNL     1       1.150   0.850  23.018  0.00  0.00    +0.089 A 
ATOM     18  C   UNL     1       3.385   1.278  23.936  0.00  0.00    +0.040 A 
ATOM     21  C   UNL     1       1.664  -0.156  22.183  0.00  0.00    +0.030 A 
ATOM     22  C   UNL     1       3.879   0.273  23.099  0.00  0.00    +0.057 A 
ATOM     23  C   UNL     1       3.036  -0.432  22.236  0.00  0.00    +0.014 A 
ATOM     29  H   UNL     1       1.511   3.094  25.226  0.00  0.00    +0.167 HD
BRANCH  22  27
ATOM      1  F   UNL     1       5.899  -0.144  21.886  0.00  0.00    -0.166 F 
ATOM      2  F   UNL     1       5.597  -1.242  23.739  0.00  0.00    -0.166 F 
ATOM      3  F   UNL     1       6.088   0.877  23.791  0.00  0.00    -0.166 F 
ATOM     27  C   UNL     1       5.337  -0.051  23.127  0.00  0.00    +0.417 C 
ENDBRANCH  22  27
ENDBRANCH   9  13
BRANCH   6  14
ATOM     14  C   UNL     1      -4.700   2.250  25.393  0.00  0.00    +0.119 C 
BRANCH  14  15
ATOM     15  C   UNL     1      -4.496   0.777  25.157  0.00  0.00    -0.033 A 
ATOM     19  C   UNL     1      -4.848   0.213  23.931  0.00  0.00    +0.006 A 
ATOM     20  C   UNL     1      -3.954  -0.022  26.163  0.00  0.00    +0.006 A 
ATOM     24  C   UNL     1      -4.658  -1.152  23.712  0.00  0.00    +0.015 A 
ATOM     25  C   UNL     1      -3.766  -1.387  25.944  0.00  0.00    +0.015 A 
ATOM     26  C   UNL     1      -4.117  -1.952  24.718  0.00  0.00    +0.059 A 
BRANCH  26  28
ATOM      5  O   UNL     1      -4.305  -4.000  23.497  0.00  0.00    -0.245 OA
ATOM     28  C   UNL     1      -3.920  -3.374  24.489  0.00  0.00    +0.337 C 
BRANCH  28   4
ATOM      4  O   UNL     1      -3.244  -3.976  25.507  0.00  0.00    -0.477 OA
ATOM     30  H   UNL     1      -3.049  -4.917  25.309  0.00  0.00    +0.295 HD
ENDBRANCH  28   4
ENDBRANCH  26  28
ENDBRANCH  14  15
ENDBRANCH   6  14
TORSDOF 6
ENDMDL
