MODEL 1
REMARK VINA RESULT:      -1.7      0.000      0.000
REMARK  Name = 75536457
REMARK  15 active torsions:
REMARK  status: ('A' for Active; 'I' for Inactive)
REMARK    1  A    between atoms: S_1  and  N_11
REMARK    2  A    between atoms: S_1  and  C_25
REMARK    3  A    between atoms: O_3  and  C_13
REMARK    4  A    between atoms: O_6  and  C_32
REMARK    5  A    between atoms: O_6  and  C_34
REMARK    6  A    between atoms: O_7  and  C_33
REMARK    7  A    between atoms: N_10  and  C_12
REMARK    8  A    between atoms: N_10  and  C_17
REMARK    9  A    between atoms: N_10  and  C_18
REMARK   10  A    between atoms: N_11  and  C_16
REMARK   11  A    between atoms: C_14  and  C_16
REMARK   12  A    between atoms: C_17  and  C_19
REMARK   13  A    between atoms: C_18  and  C_20
REMARK   14  A    between atoms: C_30  and  C_32
REMARK   15  A    between atoms: C_31  and  C_33
REMARK                            x       y       z     vdW  Elec       q    Type
REMARK                         _______ _______ _______ _____ _____    ______ ____
ROOT
ATOM     10  N   UNL     1       0.241   1.951  25.578  0.00  0.00    -0.286 NA
ENDROOT
BRANCH  10  12
ATOM      2  O   UNL     1       1.011  -0.814  23.343  0.00  0.00    -0.371 OA
ATOM     12  C   UNL     1       0.272   1.220  24.321  0.00  0.00    +0.114 C 
ATOM     13  C   UNL     1       1.512   1.492  23.490  0.00  0.00    +0.164 C 
ATOM     14  C   UNL     1       1.516   0.284  22.564  0.00  0.00    +0.164 C 
ATOM     15  C   UNL     1       0.363  -0.285  24.513  0.00  0.00    +0.181 C 
BRANCH  13   3
ATOM      3  O   UNL     1       1.431   2.708  22.770  0.00  0.00    -0.388 OA
ATOM     35  H   UNL     1       2.108   3.313  23.116  0.00  0.00    +0.210 HD
ENDBRANCH  13   3
BRANCH  14  16
ATOM     16  C   UNL     1       2.895  -0.059  22.029  0.00  0.00    +0.139 C 
BRANCH  16  11
ATOM     11  N   UNL     1       3.912   0.760  22.718  0.00  0.00    -0.192 NA
ATOM     36  H   UNL     1       3.526   1.611  23.148  0.00  0.00    +0.148 HD
BRANCH  11   1
ATOM      1  S   UNL     1       5.161  -0.019  23.579  0.00  0.00    +0.027 S 
ATOM      4  O   UNL     1       5.352   0.627  24.864  0.00  0.00    -0.158 OA
ATOM      5  O   UNL     1       6.280  -0.226  22.680  0.00  0.00    -0.158 OA
ATOM     25  C   UNL     1       4.415  -1.608  23.872  0.00  0.00    +0.214 C 
ENDBRANCH  11   1
ENDBRANCH  16  11
ENDBRANCH  14  16
ENDBRANCH  10  12
BRANCH  10  17
ATOM     17  C   UNL     1      -0.138   3.349  25.359  0.00  0.00    +0.120 C 
BRANCH  17  19
ATOM     19  C   UNL     1      -1.632   3.534  25.379  0.00  0.00    -0.033 A 
ATOM     21  C   UNL     1      -2.284   3.814  26.580  0.00  0.00    +0.006 A 
ATOM     22  C   UNL     1      -2.364   3.427  24.197  0.00  0.00    +0.006 A 
ATOM     26  C   UNL     1      -3.669   3.986  26.600  0.00  0.00    +0.015 A 
ATOM     27  C   UNL     1      -3.749   3.599  24.217  0.00  0.00    +0.015 A 
ATOM     30  C   UNL     1      -4.401   3.878  25.418  0.00  0.00    +0.059 A 
BRANCH  30  32
ATOM      8  O   UNL     1      -6.412   5.130  25.688  0.00  0.00    -0.245 OA
ATOM     32  C   UNL     1      -5.844   4.059  25.436  0.00  0.00    +0.339 C 
BRANCH  32   6
ATOM      6  O   UNL     1      -6.501   2.896  25.140  0.00  0.00    -0.464 OA
ATOM     34  C   UNL     1      -6.176   1.749  25.932  0.00  0.00    +0.280 C 
ENDBRANCH  32   6
ENDBRANCH  30  32
ENDBRANCH  17  19
ENDBRANCH  10  17
BRANCH  10  18
ATOM     18  C   UNL     1      -0.684   1.319  26.524  0.00  0.00    +0.120 C 
BRANCH  18  20
ATOM     20  C   UNL     1      -1.547   0.282  25.857  0.00  0.00    -0.033 A 
ATOM     23  C   UNL     1      -2.550   0.673  24.970  0.00  0.00    +0.006 A 
ATOM     24  C   UNL     1      -1.344  -1.073  26.127  0.00  0.00    +0.006 A 
ATOM     28  C   UNL     1      -3.349  -0.288  24.353  0.00  0.00    +0.015 A 
ATOM     29  C   UNL     1      -2.143  -2.034  25.509  0.00  0.00    +0.015 A 
ATOM     31  C   UNL     1      -3.147  -1.642  24.621  0.00  0.00    +0.059 A 
BRANCH  31  33
ATOM      9  O   UNL     1      -4.925  -2.410  23.217  0.00  0.00    -0.245 OA
ATOM     33  C   UNL     1      -3.979  -2.644  23.977  0.00  0.00    +0.337 C 
BRANCH  33   7
ATOM      7  O   UNL     1      -3.608  -3.914  24.299  0.00  0.00    -0.477 OA
ATOM     37  H   UNL     1      -4.000  -4.203  25.152  0.00  0.00    +0.295 HD
ENDBRANCH  33   7
ENDBRANCH  31  33
ENDBRANCH  18  20
ENDBRANCH  10  18
TORSDOF 13
ENDMDL
MODEL 2
REMARK VINA RESULT:      -1.4      2.843      5.949
REMARK  Name = 75536457
REMARK  15 active torsions:
REMARK  status: ('A' for Active; 'I' for Inactive)
REMARK    1  A    between atoms: S_1  and  N_11
REMARK    2  A    between atoms: S_1  and  C_25
REMARK    3  A    between atoms: O_3  and  C_13
REMARK    4  A    between atoms: O_6  and  C_32
REMARK    5  A    between atoms: O_6  and  C_34
REMARK    6  A    between atoms: O_7  and  C_33
REMARK    7  A    between atoms: N_10  and  C_12
REMARK    8  A    between atoms: N_10  and  C_17
REMARK    9  A    between atoms: N_10  and  C_18
REMARK   10  A    between atoms: N_11  and  C_16
REMARK   11  A    between atoms: C_14  and  C_16
REMARK   12  A    between atoms: C_17  and  C_19
REMARK   13  A    between atoms: C_18  and  C_20
REMARK   14  A    between atoms: C_30  and  C_32
REMARK   15  A    between atoms: C_31  and  C_33
REMARK                            x       y       z     vdW  Elec       q    Type
REMARK                         _______ _______ _______ _____ _____    ______ ____
ROOT
ATOM     10  N   UNL     1      -0.201  -0.187  23.823  0.00  0.00    -0.286 NA
ENDROOT
BRANCH  10  12
ATOM      2  O   UNL     1       0.331   3.245  24.905  0.00  0.00    -0.371 OA
ATOM     12  C   UNL     1      -0.527   1.074  24.470  0.00  0.00    +0.114 C 
ATOM     13  C   UNL     1      -0.080   1.148  25.918  0.00  0.00    +0.164 C 
ATOM     14  C   UNL     1      -0.081   2.652  26.149  0.00  0.00    +0.164 C 
ATOM     15  C   UNL     1       0.209   2.258  23.867  0.00  0.00    +0.181 C 
BRANCH  13   3
ATOM      3  O   UNL     1      -0.963   0.479  26.798  0.00  0.00    -0.388 OA
ATOM     35  H   UNL     1      -1.009   0.984  27.627  0.00  0.00    +0.210 HD
ENDBRANCH  13   3
BRANCH  14  16
ATOM     16  C   UNL     1       0.856   3.091  27.260  0.00  0.00    +0.139 C 
BRANCH  16  11
ATOM     11  N   UNL     1       0.855   2.080  28.337  0.00  0.00    -0.192 NA
ATOM     36  H   UNL     1       0.943   1.116  27.990  0.00  0.00    +0.148 HD
BRANCH  11   1
ATOM      1  S   UNL     1       1.651   2.430  29.805  0.00  0.00    +0.027 S 
ATOM      4  O   UNL     1       2.308   1.238  30.304  0.00  0.00    -0.158 OA
ATOM      5  O   UNL     1       0.747   3.187  30.649  0.00  0.00    -0.158 OA
ATOM     25  C   UNL     1       2.910   3.550  29.235  0.00  0.00    +0.214 C 
ENDBRANCH  11   1
ENDBRANCH  16  11
ENDBRANCH  14  16
ENDBRANCH  10  12
BRANCH  10  17
ATOM     17  C   UNL     1      -1.418  -0.931  23.488  0.00  0.00    +0.120 C 
BRANCH  17  19
ATOM     19  C   UNL     1      -2.660  -0.202  23.925  0.00  0.00    -0.033 A 
ATOM     21  C   UNL     1      -3.476  -0.747  24.917  0.00  0.00    +0.006 A 
ATOM     22  C   UNL     1      -2.996   1.018  23.339  0.00  0.00    +0.006 A 
ATOM     26  C   UNL     1      -4.627  -0.072  25.322  0.00  0.00    +0.015 A 
ATOM     27  C   UNL     1      -4.147   1.693  23.744  0.00  0.00    +0.015 A 
ATOM     30  C   UNL     1      -4.963   1.148  24.736  0.00  0.00    +0.059 A 
BRANCH  30  32
ATOM      8  O   UNL     1      -7.285   1.683  24.665  0.00  0.00    -0.245 OA
ATOM     32  C   UNL     1      -6.162   1.854  25.158  0.00  0.00    +0.339 C 
BRANCH  32   6
ATOM      6  O   UNL     1      -5.899   2.733  26.173  0.00  0.00    -0.464 OA
ATOM     34  C   UNL     1      -5.041   3.836  25.867  0.00  0.00    +0.280 C 
ENDBRANCH  32   6
ENDBRANCH  30  32
ENDBRANCH  17  19
ENDBRANCH  10  17
BRANCH  10  18
ATOM     18  C   UNL     1       0.600   0.040  22.616  0.00  0.00    +0.120 C 
BRANCH  18  20
ATOM     20  C   UNL     1       2.074  -0.100  22.887  0.00  0.00    -0.033 A 
ATOM     23  C   UNL     1       2.947   0.935  22.552  0.00  0.00    +0.006 A 
ATOM     24  C   UNL     1       2.568  -1.267  23.472  0.00  0.00    +0.006 A 
ATOM     28  C   UNL     1       4.313   0.805  22.802  0.00  0.00    +0.015 A 
ATOM     29  C   UNL     1       3.934  -1.396  23.723  0.00  0.00    +0.015 A 
ATOM     31  C   UNL     1       4.807  -0.360  23.388  0.00  0.00    +0.059 A 
BRANCH  31  33
ATOM      9  O   UNL     1       7.136  -0.151  22.884  0.00  0.00    -0.245 OA
ATOM     33  C   UNL     1       6.230  -0.496  23.650  0.00  0.00    +0.337 C 
BRANCH  33   7
ATOM      7  O   UNL     1       6.484  -1.059  24.863  0.00  0.00    -0.477 OA
ATOM     37  H   UNL     1       6.223  -2.005  24.888  0.00  0.00    +0.295 HD
ENDBRANCH  33   7
ENDBRANCH  31  33
ENDBRANCH  18  20
ENDBRANCH  10  18
TORSDOF 13
ENDMDL
MODEL 3
REMARK VINA RESULT:      -1.4      2.026      3.333
REMARK  Name = 75536457
REMARK  15 active torsions:
REMARK  status: ('A' for Active; 'I' for Inactive)
REMARK    1  A    between atoms: S_1  and  N_11
REMARK    2  A    between atoms: S_1  and  C_25
REMARK    3  A    between atoms: O_3  and  C_13
REMARK    4  A    between atoms: O_6  and  C_32
REMARK    5  A    between atoms: O_6  and  C_34
REMARK    6  A    between atoms: O_7  and  C_33
REMARK    7  A    between atoms: N_10  and  C_12
REMARK    8  A    between atoms: N_10  and  C_17
REMARK    9  A    between atoms: N_10  and  C_18
REMARK   10  A    between atoms: N_11  and  C_16
REMARK   11  A    between atoms: C_14  and  C_16
REMARK   12  A    between atoms: C_17  and  C_19
REMARK   13  A    between atoms: C_18  and  C_20
REMARK   14  A    between atoms: C_30  and  C_32
REMARK   15  A    between atoms: C_31  and  C_33
REMARK                            x       y       z     vdW  Elec       q    Type
REMARK                         _______ _______ _______ _____ _____    ______ ____
ROOT
ATOM     10  N   UNL     1      -0.430  -1.303  24.338  0.00  0.00    -0.286 NA
ENDROOT
BRANCH  10  12
ATOM      2  O   UNL     1       1.184  -0.460  21.190  0.00  0.00    -0.371 OA
ATOM     12  C   UNL     1       0.131  -0.432  23.318  0.00  0.00    +0.114 C 
ATOM     13  C   UNL     1       1.614  -0.163  23.497  0.00  0.00    +0.164 C 
ATOM     14  C   UNL     1       1.997   0.302  22.099  0.00  0.00    +0.164 C 
ATOM     15  C   UNL     1       0.102  -1.050  21.931  0.00  0.00    +0.181 C 
BRANCH  13   3
ATOM      3  O   UNL     1       1.876   0.827  24.472  0.00  0.00    -0.388 OA
ATOM     35  H   UNL     1       2.810   1.086  24.402  0.00  0.00    +0.210 HD
ENDBRANCH  13   3
BRANCH  14  16
ATOM     16  C   UNL     1       3.466   0.087  21.776  0.00  0.00    +0.139 C 
BRANCH  16  11
ATOM     11  N   UNL     1       4.298   0.863  22.717  0.00  0.00    -0.192 NA
ATOM     36  H   UNL     1       3.797   1.650  23.150  0.00  0.00    +0.148 HD
BRANCH  11   1
ATOM      1  S   UNL     1       5.413   0.040  23.711  0.00  0.00    +0.027 S 
ATOM      4  O   UNL     1       5.462   0.666  25.019  0.00  0.00    -0.158 OA
ATOM      5  O   UNL     1       6.627  -0.186  22.952  0.00  0.00    -0.158 OA
ATOM     25  C   UNL     1       4.597  -1.531  23.888  0.00  0.00    +0.214 C 
ENDBRANCH  11   1
ENDBRANCH  16  11
ENDBRANCH  14  16
ENDBRANCH  10  12
BRANCH  10  17
ATOM     17  C   UNL     1      -0.527  -0.606  25.623  0.00  0.00    +0.120 C 
BRANCH  17  19
ATOM     19  C   UNL     1      -0.714   0.877  25.445  0.00  0.00    -0.033 A 
ATOM     21  C   UNL     1      -0.644   1.727  26.548  0.00  0.00    +0.006 A 
ATOM     22  C   UNL     1      -0.957   1.401  24.175  0.00  0.00    +0.006 A 
ATOM     26  C   UNL     1      -0.818   3.102  26.383  0.00  0.00    +0.015 A 
ATOM     27  C   UNL     1      -1.130   2.776  24.010  0.00  0.00    +0.015 A 
ATOM     30  C   UNL     1      -1.060   3.626  25.113  0.00  0.00    +0.059 A 
BRANCH  30  32
ATOM      8  O   UNL     1      -0.351   5.834  24.561  0.00  0.00    -0.245 OA
ATOM     32  C   UNL     1      -1.240   5.058  24.939  0.00  0.00    +0.339 C 
BRANCH  32   6
ATOM      6  O   UNL     1      -2.515   5.447  25.245  0.00  0.00    -0.464 OA
ATOM     34  C   UNL     1      -3.569   4.548  24.887  0.00  0.00    +0.280 C 
ENDBRANCH  32   6
ENDBRANCH  30  32
ENDBRANCH  17  19
ENDBRANCH  10  17
BRANCH  10  18
ATOM     18  C   UNL     1      -1.749  -1.798  23.932  0.00  0.00    +0.120 C 
BRANCH  18  20
ATOM     20  C   UNL     1      -2.853  -0.869  24.361  0.00  0.00    -0.033 A 
ATOM     23  C   UNL     1      -3.376  -0.954  25.651  0.00  0.00    +0.006 A 
ATOM     24  C   UNL     1      -3.354   0.079  23.466  0.00  0.00    +0.006 A 
ATOM     28  C   UNL     1      -4.399  -0.094  26.047  0.00  0.00    +0.015 A 
ATOM     29  C   UNL     1      -4.376   0.940  23.864  0.00  0.00    +0.015 A 
ATOM     31  C   UNL     1      -4.900   0.854  25.154  0.00  0.00    +0.059 A 
BRANCH  31  33
ATOM      9  O   UNL     1      -5.927   2.506  26.546  0.00  0.00    -0.245 OA
ATOM     33  C   UNL     1      -5.965   1.752  25.568  0.00  0.00    +0.337 C 
BRANCH  33   7
ATOM      7  O   UNL     1      -7.050   1.684  24.748  0.00  0.00    -0.477 OA
ATOM     37  H   UNL     1      -6.865   2.072  23.865  0.00  0.00    +0.295 HD
ENDBRANCH  33   7
ENDBRANCH  31  33
ENDBRANCH  18  20
ENDBRANCH  10  18
TORSDOF 13
ENDMDL
MODEL 4
REMARK VINA RESULT:      -1.3      2.701      7.403
REMARK  Name = 75536457
REMARK  15 active torsions:
REMARK  status: ('A' for Active; 'I' for Inactive)
REMARK    1  A    between atoms: S_1  and  N_11
REMARK    2  A    between atoms: S_1  and  C_25
REMARK    3  A    between atoms: O_3  and  C_13
REMARK    4  A    between atoms: O_6  and  C_32
REMARK    5  A    between atoms: O_6  and  C_34
REMARK    6  A    between atoms: O_7  and  C_33
REMARK    7  A    between atoms: N_10  and  C_12
REMARK    8  A    between atoms: N_10  and  C_17
REMARK    9  A    between atoms: N_10  and  C_18
REMARK   10  A    between atoms: N_11  and  C_16
REMARK   11  A    between atoms: C_14  and  C_16
REMARK   12  A    between atoms: C_17  and  C_19
REMARK   13  A    between atoms: C_18  and  C_20
REMARK   14  A    between atoms: C_30  and  C_32
REMARK   15  A    between atoms: C_31  and  C_33
REMARK                            x       y       z     vdW  Elec       q    Type
REMARK                         _______ _______ _______ _____ _____    ______ ____
ROOT
ATOM     10  N   UNL     1       0.418   2.116  24.262  0.00  0.00    -0.286 NA
ENDROOT
BRANCH  10  12
ATOM      2  O   UNL     1      -2.641   4.037  24.693  0.00  0.00    -0.371 OA
ATOM     12  C   UNL     1      -0.675   2.991  23.868  0.00  0.00    +0.114 C 
ATOM     13  C   UNL     1      -1.889   2.248  23.341  0.00  0.00    +0.164 C 
ATOM     14  C   UNL     1      -2.972   3.306  23.500  0.00  0.00    +0.164 C 
ATOM     15  C   UNL     1      -1.274   3.755  25.037  0.00  0.00    +0.181 C 
BRANCH  13   3
ATOM      3  O   UNL     1      -1.740   1.843  21.994  0.00  0.00    -0.388 OA
ATOM     35  H   UNL     1      -2.513   2.155  21.494  0.00  0.00    +0.210 HD
ENDBRANCH  13   3
BRANCH  14  16
ATOM     16  C   UNL     1      -4.368   2.723  23.627  0.00  0.00    +0.139 C 
BRANCH  16  11
ATOM     11  N   UNL     1      -4.591   2.268  25.014  0.00  0.00    -0.192 NA
ATOM     36  H   UNL     1      -3.785   2.432  25.630  0.00  0.00    +0.148 HD
BRANCH  11   1
ATOM      1  S   UNL     1      -6.132   2.472  25.716  0.00  0.00    +0.027 S 
ATOM      4  O   UNL     1      -6.085   2.110  27.120  0.00  0.00    -0.158 OA
ATOM      5  O   UNL     1      -7.121   1.885  24.833  0.00  0.00    -0.158 OA
ATOM     25  C   UNL     1      -6.308   4.239  25.613  0.00  0.00    +0.214 C 
ENDBRANCH  11   1
ENDBRANCH  16  11
ENDBRANCH  14  16
ENDBRANCH  10  12
BRANCH  10  17
ATOM     17  C   UNL     1       0.119   1.448  25.531  0.00  0.00    +0.120 C 
BRANCH  17  19
ATOM     19  C   UNL     1      -0.833   0.296  25.349  0.00  0.00    -0.033 A 
ATOM     21  C   UNL     1      -0.422  -0.847  24.664  0.00  0.00    +0.006 A 
ATOM     22  C   UNL     1      -2.126   0.373  25.865  0.00  0.00    +0.006 A 
ATOM     26  C   UNL     1      -1.305  -1.914  24.494  0.00  0.00    +0.015 A 
ATOM     27  C   UNL     1      -3.009  -0.695  25.696  0.00  0.00    +0.015 A 
ATOM     30  C   UNL     1      -2.598  -1.838  25.010  0.00  0.00    +0.059 A 
BRANCH  30  32
ATOM      8  O   UNL     1      -3.523  -3.971  25.537  0.00  0.00    -0.245 OA
ATOM     32  C   UNL     1      -3.518  -2.950  24.836  0.00  0.00    +0.339 C 
BRANCH  32   6
ATOM      6  O   UNL     1      -4.383  -2.731  23.799  0.00  0.00    -0.464 OA
ATOM     34  C   UNL     1      -4.703  -1.368  23.500  0.00  0.00    +0.280 C 
ENDBRANCH  32   6
ENDBRANCH  30  32
ENDBRANCH  17  19
ENDBRANCH  10  17
BRANCH  10  18
ATOM     18  C   UNL     1       0.689   1.121  23.220  0.00  0.00    +0.120 C 
BRANCH  18  20
ATOM     20  C   UNL     1       2.122   0.661  23.244  0.00  0.00    -0.033 A 
ATOM     23  C   UNL     1       3.153   1.580  23.050  0.00  0.00    +0.006 A 
ATOM     24  C   UNL     1       2.419  -0.686  23.458  0.00  0.00    +0.006 A 
ATOM     28  C   UNL     1       4.481   1.153  23.072  0.00  0.00    +0.015 A 
ATOM     29  C   UNL     1       3.746  -1.112  23.480  0.00  0.00    +0.015 A 
ATOM     31  C   UNL     1       4.778  -0.193  23.287  0.00  0.00    +0.059 A 
BRANCH  31  33
ATOM      9  O   UNL     1       6.952  -0.573  22.362  0.00  0.00    -0.245 OA
ATOM     33  C   UNL     1       6.162  -0.638  23.310  0.00  0.00    +0.337 C 
BRANCH  33   7
ATOM      7  O   UNL     1       6.522  -1.152  24.518  0.00  0.00    -0.477 OA
ATOM     37  H   UNL     1       6.306  -2.107  24.587  0.00  0.00    +0.295 HD
ENDBRANCH  33   7
ENDBRANCH  31  33
ENDBRANCH  18  20
ENDBRANCH  10  18
TORSDOF 13
ENDMDL
MODEL 5
REMARK VINA RESULT:      -0.8      2.505      6.402
REMARK  Name = 75536457
REMARK  15 active torsions:
REMARK  status: ('A' for Active; 'I' for Inactive)
REMARK    1  A    between atoms: S_1  and  N_11
REMARK    2  A    between atoms: S_1  and  C_25
REMARK    3  A    between atoms: O_3  and  C_13
REMARK    4  A    between atoms: O_6  and  C_32
REMARK    5  A    between atoms: O_6  and  C_34
REMARK    6  A    between atoms: O_7  and  C_33
REMARK    7  A    between atoms: N_10  and  C_12
REMARK    8  A    between atoms: N_10  and  C_17
REMARK    9  A    between atoms: N_10  and  C_18
REMARK   10  A    between atoms: N_11  and  C_16
REMARK   11  A    between atoms: C_14  and  C_16
REMARK   12  A    between atoms: C_17  and  C_19
REMARK   13  A    between atoms: C_18  and  C_20
REMARK   14  A    between atoms: C_30  and  C_32
REMARK   15  A    between atoms: C_31  and  C_33
REMARK                            x       y       z     vdW  Elec       q    Type
REMARK                         _______ _______ _______ _____ _____    ______ ____
ROOT
ATOM     10  N   UNL     1       0.131   0.250  23.131  0.00  0.00    -0.286 NA
ENDROOT
BRANCH  10  12
ATOM      2  O   UNL     1      -1.451  -2.853  24.180  0.00  0.00    -0.371 OA
ATOM     12  C   UNL     1      -0.101  -0.909  23.977  0.00  0.00    +0.114 C 
ATOM     13  C   UNL     1      -1.146  -0.676  25.054  0.00  0.00    +0.164 C 
ATOM     14  C   UNL     1      -1.526  -2.107  25.407  0.00  0.00    +0.164 C 
ATOM     15  C   UNL     1      -0.703  -2.082  23.223  0.00  0.00    +0.181 C 
BRANCH  13   3
ATOM      3  O   UNL     1      -0.632   0.025  26.170  0.00  0.00    -0.388 OA
ATOM     35  H   UNL     1      -1.291   0.684  26.446  0.00  0.00    +0.210 HD
ENDBRANCH  13   3
BRANCH  14  16
ATOM     16  C   UNL     1      -2.920  -2.230  25.997  0.00  0.00    +0.139 C 
BRANCH  16  11
ATOM     11  N   UNL     1      -3.650  -0.960  25.812  0.00  0.00    -0.192 NA
ATOM     36  H   UNL     1      -3.194  -0.158  26.267  0.00  0.00    +0.148 HD
BRANCH  11   1
ATOM      1  S   UNL     1      -4.406  -0.647  24.315  0.00  0.00    +0.027 S 
ATOM      4  O   UNL     1      -3.473   0.010  23.420  0.00  0.00    -0.158 OA
ATOM      5  O   UNL     1      -5.714  -0.077  24.570  0.00  0.00    -0.158 OA
ATOM     25  C   UNL     1      -4.655  -2.306  23.721  0.00  0.00    +0.214 C 
ENDBRANCH  11   1
ENDBRANCH  16  11
ENDBRANCH  14  16
ENDBRANCH  10  12
BRANCH  10  17
ATOM     17  C   UNL     1       0.612   1.386  23.922  0.00  0.00    +0.120 C 
BRANCH  17  19
ATOM     19  C   UNL     1      -0.524   2.221  24.452  0.00  0.00    -0.033 A 
ATOM     21  C   UNL     1      -1.675   2.399  23.686  0.00  0.00    +0.006 A 
ATOM     22  C   UNL     1      -0.424   2.816  25.709  0.00  0.00    +0.006 A 
ATOM     26  C   UNL     1      -2.728   3.173  24.177  0.00  0.00    +0.015 A 
ATOM     27  C   UNL     1      -1.476   3.590  26.200  0.00  0.00    +0.015 A 
ATOM     30  C   UNL     1      -2.628   3.768  25.434  0.00  0.00    +0.059 A 
BRANCH  30  32
ATOM      8  O   UNL     1      -3.607   5.433  26.831  0.00  0.00    -0.245 OA
ATOM     32  C   UNL     1      -3.724   4.573  25.947  0.00  0.00    +0.339 C 
BRANCH  32   6
ATOM      6  O   UNL     1      -4.907   4.266  25.332  0.00  0.00    -0.464 OA
ATOM     34  C   UNL     1      -5.636   3.149  25.853  0.00  0.00    +0.280 C 
ENDBRANCH  32   6
ENDBRANCH  30  32
ENDBRANCH  17  19
ENDBRANCH  10  17
BRANCH  10  18
ATOM     18  C   UNL     1       1.091  -0.066  22.068  0.00  0.00    +0.120 C 
BRANCH  18  20
ATOM     20  C   UNL     1       2.500  -0.150  22.592  0.00  0.00    -0.033 A 
ATOM     23  C   UNL     1       2.934  -1.302  23.248  0.00  0.00    +0.006 A 
ATOM     24  C   UNL     1       3.372   0.926  22.423  0.00  0.00    +0.006 A 
ATOM     28  C   UNL     1       4.239  -1.379  23.734  0.00  0.00    +0.015 A 
ATOM     29  C   UNL     1       4.677   0.848  22.908  0.00  0.00    +0.015 A 
ATOM     31  C   UNL     1       5.111  -0.304  23.564  0.00  0.00    +0.059 A 
BRANCH  31  33
ATOM      9  O   UNL     1       7.468   0.105  23.526  0.00  0.00    -0.245 OA
ATOM     33  C   UNL     1       6.472  -0.385  24.069  0.00  0.00    +0.337 C 
BRANCH  33   7
ATOM      7  O   UNL     1       6.552  -1.075  25.240  0.00  0.00    -0.477 OA
ATOM     37  H   UNL     1       7.047  -1.916  25.134  0.00  0.00    +0.295 HD
ENDBRANCH  33   7
ENDBRANCH  31  33
ENDBRANCH  18  20
ENDBRANCH  10  18
TORSDOF 13
ENDMDL
MODEL 6
REMARK VINA RESULT:       0.0      2.380      7.674
REMARK  Name = 75536457
REMARK  15 active torsions:
REMARK  status: ('A' for Active; 'I' for Inactive)
REMARK    1  A    between atoms: S_1  and  N_11
REMARK    2  A    between atoms: S_1  and  C_25
REMARK    3  A    between atoms: O_3  and  C_13
REMARK    4  A    between atoms: O_6  and  C_32
REMARK    5  A    between atoms: O_6  and  C_34
REMARK    6  A    between atoms: O_7  and  C_33
REMARK    7  A    between atoms: N_10  and  C_12
REMARK    8  A    between atoms: N_10  and  C_17
REMARK    9  A    between atoms: N_10  and  C_18
REMARK   10  A    between atoms: N_11  and  C_16
REMARK   11  A    between atoms: C_14  and  C_16
REMARK   12  A    between atoms: C_17  and  C_19
REMARK   13  A    between atoms: C_18  and  C_20
REMARK   14  A    between atoms: C_30  and  C_32
REMARK   15  A    between atoms: C_31  and  C_33
REMARK                            x       y       z     vdW  Elec       q    Type
REMARK                         _______ _______ _______ _____ _____    ______ ____
ROOT
ATOM     10  N   UNL     1       0.285   2.315  24.315  0.00  0.00    -0.286 NA
ENDROOT
BRANCH  10  12
ATOM      2  O   UNL     1      -0.716  -0.274  26.665  0.00  0.00    -0.371 OA
ATOM     12  C   UNL     1      -0.636   1.455  25.039  0.00  0.00    +0.114 C 
ATOM     13  C   UNL     1      -0.911   0.135  24.344  0.00  0.00    +0.164 C 
ATOM     14  C   UNL     1      -1.443  -0.700  25.500  0.00  0.00    +0.164 C 
ATOM     15  C   UNL     1      -0.082   0.984  26.373  0.00  0.00    +0.181 C 
BRANCH  13   3
ATOM      3  O   UNL     1      -1.858   0.254  23.300  0.00  0.00    -0.388 OA
ATOM     35  H   UNL     1      -2.441  -0.524  23.327  0.00  0.00    +0.210 HD
ENDBRANCH  13   3
BRANCH  14  16
ATOM     16  C   UNL     1      -1.257  -2.194  25.298  0.00  0.00    +0.139 C 
BRANCH  16  11
ATOM     11  N   UNL     1      -2.065  -2.643  24.147  0.00  0.00    -0.192 NA
ATOM     36  H   UNL     1      -1.753  -3.541  23.756  0.00  0.00    +0.148 HD
BRANCH  11   1
ATOM      1  S   UNL     1      -3.748  -2.368  24.158  0.00  0.00    +0.027 S 
ATOM      4  O   UNL     1      -4.454  -3.635  24.191  0.00  0.00    -0.158 OA
ATOM      5  O   UNL     1      -4.059  -1.374  23.149  0.00  0.00    -0.158 OA
ATOM     25  C   UNL     1      -3.944  -1.592  25.747  0.00  0.00    +0.214 C 
ENDBRANCH  11   1
ENDBRANCH  16  11
ENDBRANCH  14  16
ENDBRANCH  10  12
BRANCH  10  17
ATOM     17  C   UNL     1       0.691   1.696  23.050  0.00  0.00    +0.120 C 
BRANCH  17  19
ATOM     19  C   UNL     1       2.020   0.997  23.169  0.00  0.00    -0.033 A 
ATOM     21  C   UNL     1       3.203   1.719  23.020  0.00  0.00    +0.006 A 
ATOM     22  C   UNL     1       2.066  -0.373  23.428  0.00  0.00    +0.006 A 
ATOM     26  C   UNL     1       4.435   1.071  23.130  0.00  0.00    +0.015 A 
ATOM     27  C   UNL     1       3.297  -1.020  23.537  0.00  0.00    +0.015 A 
ATOM     30  C   UNL     1       4.481  -0.298  23.389  0.00  0.00    +0.059 A 
BRANCH  30  32
ATOM      8  O   UNL     1       5.900  -2.173  23.783  0.00  0.00    -0.245 OA
ATOM     32  C   UNL     1       5.763  -0.974  23.505  0.00  0.00    +0.339 C 
BRANCH  32   6
ATOM      6  O   UNL     1       6.806  -0.121  23.266  0.00  0.00    -0.464 OA
ATOM     34  C   UNL     1       8.000  -0.695  22.723  0.00  0.00    +0.280 C 
ENDBRANCH  32   6
ENDBRANCH  30  32
ENDBRANCH  17  19
ENDBRANCH  10  17
BRANCH  10  18
ATOM     18  C   UNL     1      -0.317   3.628  24.062  0.00  0.00    +0.120 C 
BRANCH  18  20
ATOM     20  C   UNL     1      -1.749   3.686  24.523  0.00  0.00    -0.033 A 
ATOM     23  C   UNL     1      -2.053   4.152  25.802  0.00  0.00    +0.006 A 
ATOM     24  C   UNL     1      -2.773   3.272  23.670  0.00  0.00    +0.006 A 
ATOM     28  C   UNL     1      -3.380   4.205  26.228  0.00  0.00    +0.015 A 
ATOM     29  C   UNL     1      -4.100   3.325  24.096  0.00  0.00    +0.015 A 
ATOM     31  C   UNL     1      -4.404   3.792  25.376  0.00  0.00    +0.059 A 
BRANCH  31  33
ATOM      9  O   UNL     1      -6.529   4.831  25.727  0.00  0.00    -0.245 OA
ATOM     33  C   UNL     1      -5.787   3.848  25.820  0.00  0.00    +0.337 C 
BRANCH  33   7
ATOM      7  O   UNL     1      -6.206   2.674  26.366  0.00  0.00    -0.477 OA
ATOM     37  H   UNL     1      -7.009   2.794  26.919  0.00  0.00    +0.295 HD
ENDBRANCH  33   7
ENDBRANCH  31  33
ENDBRANCH  18  20
ENDBRANCH  10  18
TORSDOF 13
ENDMDL
MODEL 7
REMARK VINA RESULT:       0.3      2.858      8.188
REMARK  Name = 75536457
REMARK  15 active torsions:
REMARK  status: ('A' for Active; 'I' for Inactive)
REMARK    1  A    between atoms: S_1  and  N_11
REMARK    2  A    between atoms: S_1  and  C_25
REMARK    3  A    between atoms: O_3  and  C_13
REMARK    4  A    between atoms: O_6  and  C_32
REMARK    5  A    between atoms: O_6  and  C_34
REMARK    6  A    between atoms: O_7  and  C_33
REMARK    7  A    between atoms: N_10  and  C_12
REMARK    8  A    between atoms: N_10  and  C_17
REMARK    9  A    between atoms: N_10  and  C_18
REMARK   10  A    between atoms: N_11  and  C_16
REMARK   11  A    between atoms: C_14  and  C_16
REMARK   12  A    between atoms: C_17  and  C_19
REMARK   13  A    between atoms: C_18  and  C_20
REMARK   14  A    between atoms: C_30  and  C_32
REMARK   15  A    between atoms: C_31  and  C_33
REMARK                            x       y       z     vdW  Elec       q    Type
REMARK                         _______ _______ _______ _____ _____    ______ ____
ROOT
ATOM     10  N   UNL     1      -0.978  -1.141  24.205  0.00  0.00    -0.286 NA
ENDROOT
BRANCH  10  12
ATOM      2  O   UNL     1      -4.300   0.204  23.585  0.00  0.00    -0.371 OA
ATOM     12  C   UNL     1      -2.430  -1.155  24.130  0.00  0.00    +0.114 C 
ATOM     13  C   UNL     1      -3.109  -0.712  25.412  0.00  0.00    +0.164 C 
ATOM     14  C   UNL     1      -4.495  -0.347  24.899  0.00  0.00    +0.164 C 
ATOM     15  C   UNL     1      -2.980  -0.148  23.134  0.00  0.00    +0.181 C 
BRANCH  13   3
ATOM      3  O   UNL     1      -3.160  -1.737  26.386  0.00  0.00    -0.388 OA
ATOM     35  H   UNL     1      -2.351  -1.688  26.923  0.00  0.00    +0.210 HD
ENDBRANCH  13   3
BRANCH  14  16
ATOM     16  C   UNL     1      -5.215   0.662  25.776  0.00  0.00    +0.139 C 
BRANCH  16  11
ATOM     11  N   UNL     1      -5.636   1.818  24.959  0.00  0.00    -0.192 NA
ATOM     36  H   UNL     1      -6.622   1.775  24.672  0.00  0.00    +0.148 HD
BRANCH  11   1
ATOM      1  S   UNL     1      -5.025   3.366  25.336  0.00  0.00    +0.027 S 
ATOM      4  O   UNL     1      -3.923   3.246  26.270  0.00  0.00    -0.158 OA
ATOM      5  O   UNL     1      -6.144   4.245  25.617  0.00  0.00    -0.158 OA
ATOM     25  C   UNL     1      -4.356   3.846  23.759  0.00  0.00    +0.214 C 
ENDBRANCH  11   1
ENDBRANCH  16  11
ENDBRANCH  14  16
ENDBRANCH  10  12
BRANCH  10  17
ATOM     17  C   UNL     1      -0.400  -0.494  23.024  0.00  0.00    +0.120 C 
BRANCH  17  19
ATOM     19  C   UNL     1       1.085  -0.289  23.166  0.00  0.00    -0.033 A 
ATOM     21  C   UNL     1       1.903  -1.354  23.543  0.00  0.00    +0.006 A 
ATOM     22  C   UNL     1       1.642   0.966  22.921  0.00  0.00    +0.006 A 
ATOM     26  C   UNL     1       3.279  -1.164  23.674  0.00  0.00    +0.015 A 
ATOM     27  C   UNL     1       3.018   1.155  23.053  0.00  0.00    +0.015 A 
ATOM     30  C   UNL     1       3.836   0.090  23.430  0.00  0.00    +0.059 A 
BRANCH  30  32
ATOM      8  O   UNL     1       5.803   0.947  24.469  0.00  0.00    -0.245 OA
ATOM     32  C   UNL     1       5.270   0.289  23.566  0.00  0.00    +0.339 C 
BRANCH  32   6
ATOM      6  O   UNL     1       5.963  -0.342  22.570  0.00  0.00    -0.464 OA
ATOM     34  C   UNL     1       7.325  -0.685  22.846  0.00  0.00    +0.280 C 
ENDBRANCH  32   6
ENDBRANCH  30  32
ENDBRANCH  17  19
ENDBRANCH  10  17
BRANCH  10  18
ATOM     18  C   UNL     1      -0.526  -0.462  25.423  0.00  0.00    +0.120 C 
BRANCH  18  20
ATOM     20  C   UNL     1      -0.646   1.034  25.308  0.00  0.00    -0.033 A 
ATOM     23  C   UNL     1      -0.153   1.854  26.323  0.00  0.00    +0.006 A 
ATOM     24  C   UNL     1      -1.253   1.601  24.186  0.00  0.00    +0.006 A 
ATOM     28  C   UNL     1      -0.265   3.240  26.217  0.00  0.00    +0.015 A 
ATOM     29  C   UNL     1      -1.364   2.987  24.080  0.00  0.00    +0.015 A 
ATOM     31  C   UNL     1      -0.870   3.807  25.096  0.00  0.00    +0.059 A 
BRANCH  31  33
ATOM      9  O   UNL     1      -0.142   6.002  24.482  0.00  0.00    -0.245 OA
ATOM     33  C   UNL     1      -0.986   5.252  24.984  0.00  0.00    +0.337 C 
BRANCH  33   7
ATOM      7  O   UNL     1      -2.154   5.722  25.501  0.00  0.00    -0.477 OA
ATOM     37  H   UNL     1      -2.266   6.683  25.337  0.00  0.00    +0.295 HD
ENDBRANCH  33   7
ENDBRANCH  31  33
ENDBRANCH  18  20
ENDBRANCH  10  18
TORSDOF 13
ENDMDL
MODEL 8
REMARK VINA RESULT:       0.4      2.923      8.484
REMARK  Name = 75536457
REMARK  15 active torsions:
REMARK  status: ('A' for Active; 'I' for Inactive)
REMARK    1  A    between atoms: S_1  and  N_11
REMARK    2  A    between atoms: S_1  and  C_25
REMARK    3  A    between atoms: O_3  and  C_13
REMARK    4  A    between atoms: O_6  and  C_32
REMARK    5  A    between atoms: O_6  and  C_34
REMARK    6  A    between atoms: O_7  and  C_33
REMARK    7  A    between atoms: N_10  and  C_12
REMARK    8  A    between atoms: N_10  and  C_17
REMARK    9  A    between atoms: N_10  and  C_18
REMARK   10  A    between atoms: N_11  and  C_16
REMARK   11  A    between atoms: C_14  and  C_16
REMARK   12  A    between atoms: C_17  and  C_19
REMARK   13  A    between atoms: C_18  and  C_20
REMARK   14  A    between atoms: C_30  and  C_32
REMARK   15  A    between atoms: C_31  and  C_33
REMARK                            x       y       z     vdW  Elec       q    Type
REMARK                         _______ _______ _______ _____ _____    ______ ____
ROOT
ATOM     10  N   UNL     1       0.160  -0.388  23.752  0.00  0.00    -0.286 NA
ENDROOT
BRANCH  10  12
ATOM      2  O   UNL     1      -2.950  -2.141  24.447  0.00  0.00    -0.371 OA
ATOM     12  C   UNL     1      -0.776  -1.190  24.524  0.00  0.00    +0.114 C 
ATOM     13  C   UNL     1      -1.707  -0.367  25.396  0.00  0.00    +0.164 C 
ATOM     14  C   UNL     1      -2.827  -1.366  25.652  0.00  0.00    +0.164 C 
ATOM     15  C   UNL     1      -1.766  -1.945  23.655  0.00  0.00    +0.181 C 
BRANCH  13   3
ATOM      3  O   UNL     1      -1.095   0.059  26.598  0.00  0.00    -0.388 OA
ATOM     35  H   UNL     1      -0.339  -0.526  26.780  0.00  0.00    +0.210 HD
ENDBRANCH  13   3
BRANCH  14  16
ATOM     16  C   UNL     1      -4.156  -0.707  25.976  0.00  0.00    +0.139 C 
BRANCH  16  11
ATOM     11  N   UNL     1      -4.193   0.648  25.391  0.00  0.00    -0.192 NA
ATOM     36  H   UNL     1      -3.907   0.673  24.404  0.00  0.00    +0.148 HD
BRANCH  11   1
ATOM      1  S   UNL     1      -5.449   1.711  25.841  0.00  0.00    +0.027 S 
ATOM      4  O   UNL     1      -4.922   3.052  26.011  0.00  0.00    -0.158 OA
ATOM      5  O   UNL     1      -6.230   1.084  26.889  0.00  0.00    -0.158 OA
ATOM     25  C   UNL     1      -6.436   1.696  24.361  0.00  0.00    +0.214 C 
ENDBRANCH  11   1
ENDBRANCH  16  11
ENDBRANCH  14  16
ENDBRANCH  10  12
BRANCH  10  17
ATOM     17  C   UNL     1       1.080  -1.243  22.998  0.00  0.00    +0.120 C 
BRANCH  17  19
ATOM     19  C   UNL     1       2.510  -0.793  23.142  0.00  0.00    -0.033 A 
ATOM     21  C   UNL     1       3.444  -1.624  23.759  0.00  0.00    +0.006 A 
ATOM     22  C   UNL     1       2.900   0.456  22.659  0.00  0.00    +0.006 A 
ATOM     26  C   UNL     1       4.769  -1.208  23.894  0.00  0.00    +0.015 A 
ATOM     27  C   UNL     1       4.225   0.873  22.793  0.00  0.00    +0.015 A 
ATOM     30  C   UNL     1       5.159   0.041  23.410  0.00  0.00    +0.059 A 
BRANCH  30  32
ATOM      8  O   UNL     1       6.901   1.460  24.208  0.00  0.00    -0.245 OA
ATOM     32  C   UNL     1       6.540   0.476  23.548  0.00  0.00    +0.339 C 
BRANCH  32   6
ATOM      6  O   UNL     1       7.396  -0.337  22.858  0.00  0.00    -0.464 OA
ATOM     34  C   UNL     1       8.795  -0.155  23.096  0.00  0.00    +0.280 C 
ENDBRANCH  32   6
ENDBRANCH  30  32
ENDBRANCH  17  19
ENDBRANCH  10  17
BRANCH  10  18
ATOM     18  C   UNL     1      -0.555   0.511  22.841  0.00  0.00    +0.120 C 
BRANCH  18  20
ATOM     20  C   UNL     1      -0.990   1.777  23.529  0.00  0.00    -0.033 A 
ATOM     23  C   UNL     1      -2.258   2.304  23.285  0.00  0.00    +0.006 A 
ATOM     24  C   UNL     1      -0.124   2.425  24.412  0.00  0.00    +0.006 A 
ATOM     28  C   UNL     1      -2.661   3.477  23.922  0.00  0.00    +0.015 A 
ATOM     29  C   UNL     1      -0.527   3.597  25.049  0.00  0.00    +0.015 A 
ATOM     31  C   UNL     1      -1.796   4.124  24.805  0.00  0.00    +0.059 A 
BRANCH  31  33
ATOM      9  O   UNL     1      -1.811   6.483  25.204  0.00  0.00    -0.245 OA
ATOM     33  C   UNL     1      -2.216   5.347  25.470  0.00  0.00    +0.337 C 
BRANCH  33   7
ATOM      7  O   UNL     1      -3.132   5.116  26.451  0.00  0.00    -0.477 OA
ATOM     37  H   UNL     1      -2.802   5.398  27.332  0.00  0.00    +0.295 HD
ENDBRANCH  33   7
ENDBRANCH  31  33
ENDBRANCH  18  20
ENDBRANCH  10  18
TORSDOF 13
ENDMDL
MODEL 9
REMARK VINA RESULT:       1.4      2.973      5.438
REMARK  Name = 75536457
REMARK  15 active torsions:
REMARK  status: ('A' for Active; 'I' for Inactive)
REMARK    1  A    between atoms: S_1  and  N_11
REMARK    2  A    between atoms: S_1  and  C_25
REMARK    3  A    between atoms: O_3  and  C_13
REMARK    4  A    between atoms: O_6  and  C_32
REMARK    5  A    between atoms: O_6  and  C_34
REMARK    6  A    between atoms: O_7  and  C_33
REMARK    7  A    between atoms: N_10  and  C_12
REMARK    8  A    between atoms: N_10  and  C_17
REMARK    9  A    between atoms: N_10  and  C_18
REMARK   10  A    between atoms: N_11  and  C_16
REMARK   11  A    between atoms: C_14  and  C_16
REMARK   12  A    between atoms: C_17  and  C_19
REMARK   13  A    between atoms: C_18  and  C_20
REMARK   14  A    between atoms: C_30  and  C_32
REMARK   15  A    between atoms: C_31  and  C_33
REMARK                            x       y       z     vdW  Elec       q    Type
REMARK                         _______ _______ _______ _____ _____    ______ ____
ROOT
ATOM     10  N   UNL     1      -0.310   2.275  23.481  0.00  0.00    -0.286 NA
ENDROOT
BRANCH  10  12
ATOM      2  O   UNL     1       1.125  -1.037  23.932  0.00  0.00    -0.371 OA
ATOM     12  C   UNL     1       0.223   1.141  24.219  0.00  0.00    +0.114 C 
ATOM     13  C   UNL     1      -0.829   0.115  24.599  0.00  0.00    +0.164 C 
ATOM     14  C   UNL     1       0.038  -1.107  24.869  0.00  0.00    +0.164 C 
ATOM     15  C   UNL     1       1.182   0.297  23.397  0.00  0.00    +0.181 C 
BRANCH  13   3
ATOM      3  O   UNL     1      -1.575   0.494  25.740  0.00  0.00    -0.388 OA
ATOM     35  H   UNL     1      -1.699   1.458  25.717  0.00  0.00    +0.210 HD
ENDBRANCH  13   3
BRANCH  14  16
ATOM     16  C   UNL     1      -0.705  -2.421  24.695  0.00  0.00    +0.139 C 
BRANCH  16  11
ATOM     11  N   UNL     1      -2.006  -2.171  24.043  0.00  0.00    -0.192 NA
ATOM     36  H   UNL     1      -2.029  -2.460  23.056  0.00  0.00    +0.148 HD
BRANCH  11   1
ATOM      1  S   UNL     1      -3.441  -2.416  24.933  0.00  0.00    +0.027 S 
ATOM      4  O   UNL     1      -3.558  -1.404  25.966  0.00  0.00    -0.158 OA
ATOM      5  O   UNL     1      -3.544  -3.824  25.261  0.00  0.00    -0.158 OA
ATOM     25  C   UNL     1      -4.663  -2.069  23.688  0.00  0.00    +0.214 C 
ENDBRANCH  11   1
ENDBRANCH  16  11
ENDBRANCH  14  16
ENDBRANCH  10  12
BRANCH  10  17
ATOM     17  C   UNL     1      -1.522   1.899  22.750  0.00  0.00    +0.120 C 
BRANCH  17  19
ATOM     19  C   UNL     1      -2.770   2.244  23.518  0.00  0.00    -0.033 A 
ATOM     21  C   UNL     1      -3.004   3.561  23.914  0.00  0.00    +0.006 A 
ATOM     22  C   UNL     1      -3.693   1.247  23.833  0.00  0.00    +0.006 A 
ATOM     26  C   UNL     1      -4.161   3.881  24.626  0.00  0.00    +0.015 A 
ATOM     27  C   UNL     1      -4.850   1.567  24.545  0.00  0.00    +0.015 A 
ATOM     30  C   UNL     1      -5.083   2.884  24.941  0.00  0.00    +0.059 A 
BRANCH  30  32
ATOM      8  O   UNL     1      -6.649   4.371  25.953  0.00  0.00    -0.245 OA
ATOM     32  C   UNL     1      -6.290   3.217  25.682  0.00  0.00    +0.339 C 
BRANCH  32   6
ATOM      6  O   UNL     1      -6.984   2.095  26.045  0.00  0.00    -0.464 OA
ATOM     34  C   UNL     1      -6.550   1.421  27.230  0.00  0.00    +0.280 C 
ENDBRANCH  32   6
ENDBRANCH  30  32
ENDBRANCH  17  19
ENDBRANCH  10  17
BRANCH  10  18
ATOM     18  C   UNL     1      -0.592   3.396  24.383  0.00  0.00    +0.120 C 
BRANCH  18  20
ATOM     20  C   UNL     1      -0.130   3.115  25.788  0.00  0.00    -0.033 A 
ATOM     23  C   UNL     1       1.229   2.949  26.056  0.00  0.00    +0.006 A 
ATOM     24  C   UNL     1      -1.062   3.020  26.823  0.00  0.00    +0.006 A 
ATOM     28  C   UNL     1       1.656   2.689  27.358  0.00  0.00    +0.015 A 
ATOM     29  C   UNL     1      -0.634   2.761  28.125  0.00  0.00    +0.015 A 
ATOM     31  C   UNL     1       0.726   2.594  28.393  0.00  0.00    +0.059 A 
BRANCH  31  33
ATOM      9  O   UNL     1       0.618   2.726  30.779  0.00  0.00    -0.245 OA
ATOM     33  C   UNL     1       1.171   2.324  29.750  0.00  0.00    +0.337 C 
BRANCH  33   7
ATOM      7  O   UNL     1       2.296   1.559  29.785  0.00  0.00    -0.477 OA
ATOM     37  H   UNL     1       2.914   1.784  29.055  0.00  0.00    +0.295 HD
ENDBRANCH  33   7
ENDBRANCH  31  33
ENDBRANCH  18  20
ENDBRANCH  10  18
TORSDOF 13
ENDMDL
MODEL 10
REMARK VINA RESULT:       1.5      2.747      7.485
REMARK  Name = 75536457
REMARK  15 active torsions:
REMARK  status: ('A' for Active; 'I' for Inactive)
REMARK    1  A    between atoms: S_1  and  N_11
REMARK    2  A    between atoms: S_1  and  C_25
REMARK    3  A    between atoms: O_3  and  C_13
REMARK    4  A    between atoms: O_6  and  C_32
REMARK    5  A    between atoms: O_6  and  C_34
REMARK    6  A    between atoms: O_7  and  C_33
REMARK    7  A    between atoms: N_10  and  C_12
REMARK    8  A    between atoms: N_10  and  C_17
REMARK    9  A    between atoms: N_10  and  C_18
REMARK   10  A    between atoms: N_11  and  C_16
REMARK   11  A    between atoms: C_14  and  C_16
REMARK   12  A    between atoms: C_17  and  C_19
REMARK   13  A    between atoms: C_18  and  C_20
REMARK   14  A    between atoms: C_30  and  C_32
REMARK   15  A    between atoms: C_31  and  C_33
REMARK                            x       y       z     vdW  Elec       q    Type
REMARK                         _______ _______ _______ _____ _____    ______ ____
ROOT
ATOM     10  N   UNL     1      -1.212   2.658  23.963  0.00  0.00    -0.286 NA
ENDROOT
BRANCH  10  12
ATOM      2  O   UNL     1      -3.312   4.636  26.178  0.00  0.00    -0.371 OA
ATOM     12  C   UNL     1      -2.075   3.762  24.349  0.00  0.00    +0.114 C 
ATOM     13  C   UNL     1      -3.551   3.488  24.124  0.00  0.00    +0.164 C 
ATOM     14  C   UNL     1      -4.185   4.525  25.041  0.00  0.00    +0.164 C 
ATOM     15  C   UNL     1      -2.045   4.045  25.841  0.00  0.00    +0.181 C 
BRANCH  13   3
ATOM      3  O   UNL     1      -3.941   3.666  22.776  0.00  0.00    -0.388 OA
ATOM     35  H   UNL     1      -4.818   3.263  22.657  0.00  0.00    +0.210 HD
ENDBRANCH  13   3
BRANCH  14  16
ATOM     16  C   UNL     1      -5.582   4.147  25.501  0.00  0.00    +0.139 C 
BRANCH  16  11
ATOM     11  N   UNL     1      -5.494   3.102  26.541  0.00  0.00    -0.192 NA
ATOM     36  H   UNL     1      -5.655   3.459  27.492  0.00  0.00    +0.148 HD
BRANCH  11   1
ATOM      1  S   UNL     1      -6.108   1.546  26.206  0.00  0.00    +0.027 S 
ATOM      4  O   UNL     1      -7.213   1.250  27.098  0.00  0.00    -0.158 OA
ATOM      5  O   UNL     1      -4.992   0.629  26.080  0.00  0.00    -0.158 OA
ATOM     25  C   UNL     1      -6.775   1.800  24.577  0.00  0.00    +0.214 C 
ENDBRANCH  11   1
ENDBRANCH  16  11
ENDBRANCH  14  16
ENDBRANCH  10  12
BRANCH  10  17
ATOM     17  C   UNL     1       0.080   3.151  23.477  0.00  0.00    +0.120 C 
BRANCH  17  19
ATOM     19  C   UNL     1       1.116   2.060  23.435  0.00  0.00    -0.033 A 
ATOM     21  C   UNL     1       2.461   2.382  23.253  0.00  0.00    +0.006 A 
ATOM     22  C   UNL     1       0.732   0.727  23.577  0.00  0.00    +0.006 A 
ATOM     26  C   UNL     1       3.422   1.371  23.214  0.00  0.00    +0.015 A 
ATOM     27  C   UNL     1       1.693  -0.284  23.538  0.00  0.00    +0.015 A 
ATOM     30  C   UNL     1       3.038   0.038  23.356  0.00  0.00    +0.059 A 
BRANCH  30  32
ATOM      8  O   UNL     1       3.823  -2.197  23.620  0.00  0.00    -0.245 OA
ATOM     32  C   UNL     1       4.038  -1.016  23.316  0.00  0.00    +0.339 C 
BRANCH  32   6
ATOM      6  O   UNL     1       5.253  -0.543  22.900  0.00  0.00    -0.464 OA
ATOM     34  C   UNL     1       6.163  -0.114  23.918  0.00  0.00    +0.280 C 
ENDBRANCH  32   6
ENDBRANCH  30  32
ENDBRANCH  17  19
ENDBRANCH  10  17
BRANCH  10  18
ATOM     18  C   UNL     1      -1.010   1.738  25.087  0.00  0.00    +0.120 C 
BRANCH  18  20
ATOM     20  C   UNL     1      -1.770   0.452  24.902  0.00  0.00    -0.033 A 
ATOM     23  C   UNL     1      -1.512  -0.637  25.735  0.00  0.00    +0.006 A 
ATOM     24  C   UNL     1      -2.732   0.348  23.897  0.00  0.00    +0.006 A 
ATOM     28  C   UNL     1      -2.215  -1.829  25.563  0.00  0.00    +0.015 A 
ATOM     29  C   UNL     1      -3.436  -0.844  23.726  0.00  0.00    +0.015 A 
ATOM     31  C   UNL     1      -3.177  -1.933  24.559  0.00  0.00    +0.059 A 
BRANCH  31  33
ATOM      9  O   UNL     1      -3.750  -4.204  25.044  0.00  0.00    -0.245 OA
ATOM     33  C   UNL     1      -3.911  -3.175  24.380  0.00  0.00    +0.337 C 
BRANCH  33   7
ATOM      7  O   UNL     1      -4.828  -3.097  23.377  0.00  0.00    -0.477 OA
ATOM     37  H   UNL     1      -4.895  -3.940  22.878  0.00  0.00    +0.295 HD
ENDBRANCH  33   7
ENDBRANCH  31  33
ENDBRANCH  18  20
ENDBRANCH  10  18
TORSDOF 13
ENDMDL
