MODEL 1
REMARK VINA RESULT:      -6.8      0.000      0.000
REMARK  Name = 40779435
REMARK  8 active torsions:
REMARK  status: ('A' for Active; 'I' for Inactive)
REMARK    1  A    between atoms: N_3  and  C_11
REMARK    2  A    between atoms: C_5  and  C_11
REMARK    3  A    between atoms: C_6  and  C_12
REMARK    4  A    between atoms: C_14  and  C_15
REMARK    5  A    between atoms: C_15  and  C_16
REMARK    6  A    between atoms: C_16  and  C_17
REMARK    7  A    between atoms: C_16  and  C_18
REMARK    8  A    between atoms: C_16  and  C_19
REMARK                            x       y       z     vdW  Elec       q    Type
REMARK                         _______ _______ _______ _____ _____    ______ ____
ROOT
ATOM      2  N   UNL     1      -2.067  -1.774  23.788  0.00  0.00    -0.297 NA
ATOM      4  C   UNL     1      -3.592  -1.385  25.858  0.00  0.00    -0.000 C 
ATOM      5  C   UNL     1      -1.236  -1.452  24.978  0.00  0.00    +0.074 C 
ATOM      6  C   UNL     1      -4.049  -0.508  24.668  0.00  0.00    +0.028 C 
ATOM      7  C   UNL     1      -2.121  -1.061  26.183  0.00  0.00    +0.024 C 
ATOM      8  C   UNL     1      -3.650  -2.852  25.389  0.00  0.00    +0.019 C 
ATOM      9  C   UNL     1      -3.029  -0.677  23.517  0.00  0.00    +0.092 C 
ATOM     10  C   UNL     1      -2.842  -3.002  24.090  0.00  0.00    +0.085 C 
ENDROOT
BRANCH   6  12
ATOM     12  C   UNL     1      -4.234   0.932  25.043  0.00  0.00    -0.030 C 
ATOM     13  C   UNL     1      -5.417   1.557  25.054  0.00  0.00    +0.004 C 
ENDBRANCH   6  12
BRANCH   5  11
ATOM     11  C   UNL     1      -0.179  -0.386  24.680  0.00  0.00    +0.123 C 
BRANCH  11   3
ATOM      1  O   UNL     1       0.939   2.230  24.140  0.00  0.00    -0.276 OA
ATOM      3  N   UNL     1      -0.498   0.845  25.333  0.00  0.00    -0.314 N 
ATOM     14  C   UNL     1       0.088   2.067  25.012  0.00  0.00    +0.214 C 
ATOM     20  H   UNL     1      -1.194   0.818  26.074  0.00  0.00    +0.149 HD
BRANCH  14  15
ATOM     15  C   UNL     1      -0.416   3.224  25.858  0.00  0.00    +0.102 C 
BRANCH  15  16
ATOM     16  C   UNL     1      -1.636   3.973  25.270  0.00  0.00    -0.029 C 
ATOM     17  C   UNL     1      -2.786   4.045  26.288  0.00  0.00    +0.011 C 
ATOM     18  C   UNL     1      -1.196   5.410  24.929  0.00  0.00    +0.011 C 
ATOM     19  C   UNL     1      -2.140   3.301  23.981  0.00  0.00    +0.011 C 
ENDBRANCH  15  16
ENDBRANCH  14  15
ENDBRANCH  11   3
ENDBRANCH   5  11
TORSDOF 5
ENDMDL
MODEL 2
REMARK VINA RESULT:      -6.1      1.531      5.231
REMARK  Name = 40779435
REMARK  8 active torsions:
REMARK  status: ('A' for Active; 'I' for Inactive)
REMARK    1  A    between atoms: N_3  and  C_11
REMARK    2  A    between atoms: C_5  and  C_11
REMARK    3  A    between atoms: C_6  and  C_12
REMARK    4  A    between atoms: C_14  and  C_15
REMARK    5  A    between atoms: C_15  and  C_16
REMARK    6  A    between atoms: C_16  and  C_17
REMARK    7  A    between atoms: C_16  and  C_18
REMARK    8  A    between atoms: C_16  and  C_19
REMARK                            x       y       z     vdW  Elec       q    Type
REMARK                         _______ _______ _______ _____ _____    ______ ____
ROOT
ATOM      2  N   UNL     1      -1.262   3.685  25.700  0.00  0.00    -0.297 NA
ATOM      4  C   UNL     1      -3.209   3.612  23.978  0.00  0.00    -0.000 C 
ATOM      5  C   UNL     1      -0.915   2.772  24.578  0.00  0.00    +0.074 C 
ATOM      6  C   UNL     1      -3.729   3.319  25.406  0.00  0.00    +0.028 C 
ATOM      7  C   UNL     1      -2.114   2.586  23.623  0.00  0.00    +0.024 C 
ATOM      8  C   UNL     1      -2.546   5.002  24.013  0.00  0.00    +0.019 C 
ATOM      9  C   UNL     1      -2.513   3.239  26.360  0.00  0.00    +0.092 C 
ATOM     10  C   UNL     1      -1.494   5.036  25.134  0.00  0.00    +0.085 C 
ENDROOT
BRANCH   6  12
ATOM     12  C   UNL     1      -4.575   2.083  25.476  0.00  0.00    -0.030 C 
ATOM     13  C   UNL     1      -5.849   2.025  25.074  0.00  0.00    +0.004 C 
ENDBRANCH   6  12
BRANCH   5  11
ATOM     11  C   UNL     1      -0.366   1.430  25.069  0.00  0.00    +0.123 C 
BRANCH  11   3
ATOM      1  O   UNL     1      -0.145  -1.376  25.750  0.00  0.00    -0.276 OA
ATOM      3  N   UNL     1      -1.108   0.341  24.512  0.00  0.00    -0.314 N 
ATOM     14  C   UNL     1      -0.941  -0.986  24.897  0.00  0.00    +0.214 C 
ATOM     20  H   UNL     1      -1.794   0.559  23.795  0.00  0.00    +0.149 HD
BRANCH  14  15
ATOM     15  C   UNL     1      -1.844  -1.954  24.150  0.00  0.00    +0.102 C 
BRANCH  15  16
ATOM     16  C   UNL     1      -3.342  -1.863  24.528  0.00  0.00    -0.029 C 
ATOM     17  C   UNL     1      -4.080  -0.857  23.630  0.00  0.00    +0.011 C 
ATOM     18  C   UNL     1      -3.971  -3.255  24.320  0.00  0.00    +0.011 C 
ATOM     19  C   UNL     1      -3.528  -1.461  26.000  0.00  0.00    +0.011 C 
ENDBRANCH  15  16
ENDBRANCH  14  15
ENDBRANCH  11   3
ENDBRANCH   5  11
TORSDOF 5
ENDMDL
MODEL 3
REMARK VINA RESULT:      -5.5      1.977      3.430
REMARK  Name = 40779435
REMARK  8 active torsions:
REMARK  status: ('A' for Active; 'I' for Inactive)
REMARK    1  A    between atoms: N_3  and  C_11
REMARK    2  A    between atoms: C_5  and  C_11
REMARK    3  A    between atoms: C_6  and  C_12
REMARK    4  A    between atoms: C_14  and  C_15
REMARK    5  A    between atoms: C_15  and  C_16
REMARK    6  A    between atoms: C_16  and  C_17
REMARK    7  A    between atoms: C_16  and  C_18
REMARK    8  A    between atoms: C_16  and  C_19
REMARK                            x       y       z     vdW  Elec       q    Type
REMARK                         _______ _______ _______ _____ _____    ______ ____
ROOT
ATOM      2  N   UNL     1      -3.578  -1.382  25.972  0.00  0.00    -0.297 NA
ATOM      4  C   UNL     1      -2.164  -1.528  23.795  0.00  0.00    -0.000 C 
ATOM      5  C   UNL     1      -4.258  -0.644  24.874  0.00  0.00    +0.074 C 
ATOM      6  C   UNL     1      -1.300  -1.027  24.977  0.00  0.00    +0.028 C 
ATOM      7  C   UNL     1      -3.365  -0.579  23.615  0.00  0.00    +0.024 C 
ATOM      8  C   UNL     1      -2.721  -2.909  24.193  0.00  0.00    +0.019 C 
ATOM      9  C   UNL     1      -2.222  -0.828  26.204  0.00  0.00    +0.092 C 
ATOM     10  C   UNL     1      -3.434  -2.796  25.551  0.00  0.00    +0.085 C 
ENDROOT
BRANCH   6  12
ATOM     12  C   UNL     1      -0.532   0.218  24.650  0.00  0.00    -0.030 C 
ATOM     13  C   UNL     1       0.310   0.328  23.616  0.00  0.00    +0.004 C 
ENDBRANCH   6  12
BRANCH   5  11
ATOM     11  C   UNL     1      -4.726   0.747  25.309  0.00  0.00    +0.123 C 
BRANCH  11   3
ATOM      1  O   UNL     1      -5.038   3.613  25.576  0.00  0.00    -0.276 OA
ATOM      3  N   UNL     1      -3.911   1.766  24.725  0.00  0.00    -0.314 N 
ATOM     14  C   UNL     1      -4.130   3.130  24.904  0.00  0.00    +0.214 C 
ATOM     20  H   UNL     1      -3.130   1.469  24.147  0.00  0.00    +0.149 HD
BRANCH  14  15
ATOM     15  C   UNL     1      -3.129   4.007  24.170  0.00  0.00    +0.102 C 
BRANCH  15  16
ATOM     16  C   UNL     1      -1.759   4.154  24.875  0.00  0.00    -0.029 C 
ATOM     17  C   UNL     1      -0.624   3.586  24.006  0.00  0.00    +0.011 C 
ATOM     18  C   UNL     1      -1.496   5.656  25.099  0.00  0.00    +0.011 C 
ATOM     19  C   UNL     1      -1.751   3.451  26.243  0.00  0.00    +0.011 C 
ENDBRANCH  15  16
ENDBRANCH  14  15
ENDBRANCH  11   3
ENDBRANCH   5  11
TORSDOF 5
ENDMDL
MODEL 4
REMARK VINA RESULT:      -5.3      1.916      3.235
REMARK  Name = 40779435
REMARK  8 active torsions:
REMARK  status: ('A' for Active; 'I' for Inactive)
REMARK    1  A    between atoms: N_3  and  C_11
REMARK    2  A    between atoms: C_5  and  C_11
REMARK    3  A    between atoms: C_6  and  C_12
REMARK    4  A    between atoms: C_14  and  C_15
REMARK    5  A    between atoms: C_15  and  C_16
REMARK    6  A    between atoms: C_16  and  C_17
REMARK    7  A    between atoms: C_16  and  C_18
REMARK    8  A    between atoms: C_16  and  C_19
REMARK                            x       y       z     vdW  Elec       q    Type
REMARK                         _______ _______ _______ _____ _____    ______ ____
ROOT
ATOM      2  N   UNL     1      -0.097   1.143  23.535  0.00  0.00    -0.297 NA
ATOM      4  C   UNL     1      -1.203  -0.683  25.018  0.00  0.00    -0.000 C 
ATOM      5  C   UNL     1       0.054   1.496  24.971  0.00  0.00    +0.074 C 
ATOM      6  C   UNL     1      -2.194  -0.177  23.944  0.00  0.00    +0.028 C 
ATOM      7  C   UNL     1      -0.730   0.513  25.869  0.00  0.00    +0.024 C 
ATOM      8  C   UNL     1       0.028  -1.237  24.275  0.00  0.00    +0.019 C 
ATOM      9  C   UNL     1      -1.532   0.998  23.186  0.00  0.00    +0.092 C 
ATOM     10  C   UNL     1       0.566  -0.165  23.313  0.00  0.00    +0.085 C 
ENDROOT
BRANCH   6  12
ATOM     12  C   UNL     1      -3.525   0.208  24.515  0.00  0.00    -0.030 C 
ATOM     13  C   UNL     1      -4.185  -0.513  25.429  0.00  0.00    +0.004 C 
ENDBRANCH   6  12
BRANCH   5  11
ATOM     11  C   UNL     1      -0.326   2.951  25.256  0.00  0.00    +0.123 C 
BRANCH  11   3
ATOM      1  O   UNL     1      -2.032   5.289  25.364  0.00  0.00    -0.276 OA
ATOM      3  N   UNL     1      -1.647   3.037  25.798  0.00  0.00    -0.314 N 
ATOM     14  C   UNL     1      -2.404   4.206  25.811  0.00  0.00    +0.214 C 
ATOM     20  H   UNL     1      -2.047   2.192  26.195  0.00  0.00    +0.149 HD
BRANCH  14  15
ATOM     15  C   UNL     1      -3.772   4.036  26.450  0.00  0.00    +0.102 C 
BRANCH  15  16
ATOM     16  C   UNL     1      -4.912   3.699  25.459  0.00  0.00    -0.029 C 
ATOM     17  C   UNL     1      -5.713   2.474  25.932  0.00  0.00    +0.011 C 
ATOM     18  C   UNL     1      -5.864   4.909  25.396  0.00  0.00    +0.011 C 
ATOM     19  C   UNL     1      -4.368   3.434  24.045  0.00  0.00    +0.011 C 
ENDBRANCH  15  16
ENDBRANCH  14  15
ENDBRANCH  11   3
ENDBRANCH   5  11
TORSDOF 5
ENDMDL
MODEL 5
REMARK VINA RESULT:      -5.1      2.152      5.743
REMARK  Name = 40779435
REMARK  8 active torsions:
REMARK  status: ('A' for Active; 'I' for Inactive)
REMARK    1  A    between atoms: N_3  and  C_11
REMARK    2  A    between atoms: C_5  and  C_11
REMARK    3  A    between atoms: C_6  and  C_12
REMARK    4  A    between atoms: C_14  and  C_15
REMARK    5  A    between atoms: C_15  and  C_16
REMARK    6  A    between atoms: C_16  and  C_17
REMARK    7  A    between atoms: C_16  and  C_18
REMARK    8  A    between atoms: C_16  and  C_19
REMARK                            x       y       z     vdW  Elec       q    Type
REMARK                         _______ _______ _______ _____ _____    ______ ____
ROOT
ATOM      2  N   UNL     1      -1.314   3.633  24.241  0.00  0.00    -0.297 NA
ATOM      4  C   UNL     1      -0.344   1.702  25.686  0.00  0.00    -0.000 C 
ATOM      5  C   UNL     1      -2.418   2.782  24.758  0.00  0.00    +0.074 C 
ATOM      6  C   UNL     1       0.343   1.747  24.300  0.00  0.00    +0.028 C 
ATOM      7  C   UNL     1      -1.863   1.538  25.487  0.00  0.00    +0.024 C 
ATOM      8  C   UNL     1      -0.110   3.070  26.354  0.00  0.00    +0.019 C 
ATOM      9  C   UNL     1      -0.366   2.820  23.440  0.00  0.00    +0.092 C 
ATOM     10  C   UNL     1      -0.579   4.186  25.404  0.00  0.00    +0.085 C 
ENDROOT
BRANCH   6  12
ATOM     12  C   UNL     1       0.368   0.413  23.618  0.00  0.00    -0.030 C 
ATOM     13  C   UNL     1       1.349   0.007  22.803  0.00  0.00    +0.004 C 
ENDBRANCH   6  12
BRANCH   5  11
ATOM     11  C   UNL     1      -3.420   2.401  23.666  0.00  0.00    +0.123 C 
BRANCH  11   3
ATOM      1  O   UNL     1      -5.178   0.574  25.066  0.00  0.00    -0.276 OA
ATOM      3  N   UNL     1      -3.494   0.981  23.514  0.00  0.00    -0.314 N 
ATOM     14  C   UNL     1      -4.372   0.171  24.230  0.00  0.00    +0.214 C 
ATOM     20  H   UNL     1      -2.866   0.547  22.844  0.00  0.00    +0.149 HD
BRANCH  14  15
ATOM     15  C   UNL     1      -4.249  -1.306  23.891  0.00  0.00    +0.102 C 
BRANCH  15  16
ATOM     16  C   UNL     1      -3.243  -2.089  24.769  0.00  0.00    -0.029 C 
ATOM     17  C   UNL     1      -3.276  -1.595  26.225  0.00  0.00    +0.011 C 
ATOM     18  C   UNL     1      -3.650  -3.575  24.750  0.00  0.00    +0.011 C 
ATOM     19  C   UNL     1      -1.810  -1.971  24.225  0.00  0.00    +0.011 C 
ENDBRANCH  15  16
ENDBRANCH  14  15
ENDBRANCH  11   3
ENDBRANCH   5  11
TORSDOF 5
ENDMDL
MODEL 6
REMARK VINA RESULT:      -4.4      1.582      5.108
REMARK  Name = 40779435
REMARK  8 active torsions:
REMARK  status: ('A' for Active; 'I' for Inactive)
REMARK    1  A    between atoms: N_3  and  C_11
REMARK    2  A    between atoms: C_5  and  C_11
REMARK    3  A    between atoms: C_6  and  C_12
REMARK    4  A    between atoms: C_14  and  C_15
REMARK    5  A    between atoms: C_15  and  C_16
REMARK    6  A    between atoms: C_16  and  C_17
REMARK    7  A    between atoms: C_16  and  C_18
REMARK    8  A    between atoms: C_16  and  C_19
REMARK                            x       y       z     vdW  Elec       q    Type
REMARK                         _______ _______ _______ _____ _____    ______ ____
ROOT
ATOM      2  N   UNL     1      -2.164   2.404  26.042  0.00  0.00    -0.297 NA
ATOM      4  C   UNL     1      -2.231   4.372  24.344  0.00  0.00    -0.000 C 
ATOM      5  C   UNL     1      -0.787   2.722  25.578  0.00  0.00    +0.074 C 
ATOM      6  C   UNL     1      -3.214   3.253  23.925  0.00  0.00    +0.028 C 
ATOM      7  C   UNL     1      -0.813   3.779  24.451  0.00  0.00    +0.024 C 
ATOM      8  C   UNL     1      -2.646   4.836  25.754  0.00  0.00    +0.019 C 
ATOM      9  C   UNL     1      -3.030   2.057  24.889  0.00  0.00    +0.092 C 
ATOM     10  C   UNL     1      -2.720   3.617  26.689  0.00  0.00    +0.085 C 
ENDROOT
BRANCH   6  12
ATOM     12  C   UNL     1      -3.054   2.844  22.492  0.00  0.00    -0.030 C 
ATOM     13  C   UNL     1      -2.505   1.688  22.101  0.00  0.00    +0.004 C 
ENDBRANCH   6  12
BRANCH   5  11
ATOM     11  C   UNL     1      -0.008   1.471  25.165  0.00  0.00    +0.123 C 
BRANCH  11   3
ATOM      1  O   UNL     1      -0.221  -1.367  25.702  0.00  0.00    -0.276 OA
ATOM      3  N   UNL     1      -0.865   0.528  24.516  0.00  0.00    -0.314 N 
ATOM     14  C   UNL     1      -0.906  -0.827  24.835  0.00  0.00    +0.214 C 
ATOM     20  H   UNL     1      -1.474   0.874  23.781  0.00  0.00    +0.149 HD
BRANCH  14  15
ATOM     15  C   UNL     1      -1.895  -1.619  23.995  0.00  0.00    +0.102 C 
BRANCH  15  16
ATOM     16  C   UNL     1      -3.274  -1.844  24.660  0.00  0.00    -0.029 C 
ATOM     17  C   UNL     1      -3.283  -1.329  26.108  0.00  0.00    +0.011 C 
ATOM     18  C   UNL     1      -4.326  -1.054  23.856  0.00  0.00    +0.011 C 
ATOM     19  C   UNL     1      -3.670  -3.330  24.647  0.00  0.00    +0.011 C 
ENDBRANCH  15  16
ENDBRANCH  14  15
ENDBRANCH  11   3
ENDBRANCH   5  11
TORSDOF 5
ENDMDL
MODEL 7
REMARK VINA RESULT:      -4.2      2.265      5.686
REMARK  Name = 40779435
REMARK  8 active torsions:
REMARK  status: ('A' for Active; 'I' for Inactive)
REMARK    1  A    between atoms: N_3  and  C_11
REMARK    2  A    between atoms: C_5  and  C_11
REMARK    3  A    between atoms: C_6  and  C_12
REMARK    4  A    between atoms: C_14  and  C_15
REMARK    5  A    between atoms: C_15  and  C_16
REMARK    6  A    between atoms: C_16  and  C_17
REMARK    7  A    between atoms: C_16  and  C_18
REMARK    8  A    between atoms: C_16  and  C_19
REMARK                            x       y       z     vdW  Elec       q    Type
REMARK                         _______ _______ _______ _____ _____    ______ ____
ROOT
ATOM      2  N   UNL     1      -3.866   3.274  23.705  0.00  0.00    -0.297 NA
ATOM      4  C   UNL     1      -2.538   4.159  25.757  0.00  0.00    -0.000 C 
ATOM      5  C   UNL     1      -4.647   3.048  24.950  0.00  0.00    +0.074 C 
ATOM      6  C   UNL     1      -1.667   3.199  24.914  0.00  0.00    +0.028 C 
ATOM      7  C   UNL     1      -3.816   3.418  26.199  0.00  0.00    +0.024 C 
ATOM      8  C   UNL     1      -2.970   5.313  24.832  0.00  0.00    +0.019 C 
ATOM      9  C   UNL     1      -2.548   2.600  23.791  0.00  0.00    +0.092 C 
ATOM     10  C   UNL     1      -3.632   4.732  23.571  0.00  0.00    +0.085 C 
ENDROOT
BRANCH   6  12
ATOM     12  C   UNL     1      -1.011   2.131  25.737  0.00  0.00    -0.030 C 
ATOM     13  C   UNL     1       0.123   2.307  26.424  0.00  0.00    +0.004 C 
ENDBRANCH   6  12
BRANCH   5  11
ATOM     11  C   UNL     1      -5.202   1.624  25.039  0.00  0.00    +0.123 C 
BRANCH  11   3
ATOM      1  O   UNL     1      -4.621  -1.045  24.080  0.00  0.00    -0.276 OA
ATOM      3  N   UNL     1      -4.212   0.721  25.537  0.00  0.00    -0.314 N 
ATOM     14  C   UNL     1      -3.995  -0.553  25.016  0.00  0.00    +0.214 C 
ATOM     20  H   UNL     1      -3.638   1.034  26.315  0.00  0.00    +0.149 HD
BRANCH  14  15
ATOM     15  C   UNL     1      -2.891  -1.319  25.725  0.00  0.00    +0.102 C 
BRANCH  15  16
ATOM     16  C   UNL     1      -1.665  -1.653  24.842  0.00  0.00    -0.029 C 
ATOM     17  C   UNL     1      -0.394  -1.811  25.693  0.00  0.00    +0.011 C 
ATOM     18  C   UNL     1      -1.942  -2.989  24.126  0.00  0.00    +0.011 C 
ATOM     19  C   UNL     1      -1.429  -0.571  23.775  0.00  0.00    +0.011 C 
ENDBRANCH  15  16
ENDBRANCH  14  15
ENDBRANCH  11   3
ENDBRANCH   5  11
TORSDOF 5
ENDMDL
MODEL 8
REMARK VINA RESULT:      -4.2      2.351      4.058
REMARK  Name = 40779435
REMARK  8 active torsions:
REMARK  status: ('A' for Active; 'I' for Inactive)
REMARK    1  A    between atoms: N_3  and  C_11
REMARK    2  A    between atoms: C_5  and  C_11
REMARK    3  A    between atoms: C_6  and  C_12
REMARK    4  A    between atoms: C_14  and  C_15
REMARK    5  A    between atoms: C_15  and  C_16
REMARK    6  A    between atoms: C_16  and  C_17
REMARK    7  A    between atoms: C_16  and  C_18
REMARK    8  A    between atoms: C_16  and  C_19
REMARK                            x       y       z     vdW  Elec       q    Type
REMARK                         _______ _______ _______ _____ _____    ______ ____
ROOT
ATOM      2  N   UNL     1      -1.623  -1.191  24.924  0.00  0.00    -0.297 NA
ATOM      4  C   UNL     1      -0.658   0.950  23.809  0.00  0.00    -0.000 C 
ATOM      5  C   UNL     1      -2.605  -0.637  23.953  0.00  0.00    +0.074 C 
ATOM      6  C   UNL     1      -0.582   1.054  25.350  0.00  0.00    +0.028 C 
ATOM      7  C   UNL     1      -2.125   0.720  23.394  0.00  0.00    +0.024 C 
ATOM      8  C   UNL     1       0.140  -0.302  23.398  0.00  0.00    +0.019 C 
ATOM      9  C   UNL     1      -1.292  -0.179  25.958  0.00  0.00    +0.092 C 
ATOM     10  C   UNL     1      -0.381  -1.517  24.183  0.00  0.00    +0.085 C 
ENDROOT
BRANCH   6  12
ATOM     12  C   UNL     1      -1.148   2.338  25.877  0.00  0.00    -0.030 C 
ATOM     13  C   UNL     1      -0.724   3.551  25.504  0.00  0.00    +0.004 C 
ENDBRANCH   6  12
BRANCH   5  11
ATOM     11  C   UNL     1      -4.015  -0.543  24.540  0.00  0.00    +0.123 C 
BRANCH  11   3
ATOM      1  O   UNL     1      -6.286   1.253  24.567  0.00  0.00    -0.276 OA
ATOM      3  N   UNL     1      -4.167   0.651  25.312  0.00  0.00    -0.314 N 
ATOM     14  C   UNL     1      -5.298   1.463  25.267  0.00  0.00    +0.214 C 
ATOM     20  H   UNL     1      -3.402   0.914  25.926  0.00  0.00    +0.149 HD
BRANCH  14  15
ATOM     15  C   UNL     1      -5.210   2.677  26.177  0.00  0.00    +0.102 C 
BRANCH  15  16
ATOM     16  C   UNL     1      -4.697   3.966  25.489  0.00  0.00    -0.029 C 
ATOM     17  C   UNL     1      -4.152   3.664  24.083  0.00  0.00    +0.011 C 
ATOM     18  C   UNL     1      -5.884   4.939  25.353  0.00  0.00    +0.011 C 
ATOM     19  C   UNL     1      -3.601   4.651  26.322  0.00  0.00    +0.011 C 
ENDBRANCH  15  16
ENDBRANCH  14  15
ENDBRANCH  11   3
ENDBRANCH   5  11
TORSDOF 5
ENDMDL
MODEL 9
REMARK VINA RESULT:      -4.0      2.297      5.898
REMARK  Name = 40779435
REMARK  8 active torsions:
REMARK  status: ('A' for Active; 'I' for Inactive)
REMARK    1  A    between atoms: N_3  and  C_11
REMARK    2  A    between atoms: C_5  and  C_11
REMARK    3  A    between atoms: C_6  and  C_12
REMARK    4  A    between atoms: C_14  and  C_15
REMARK    5  A    between atoms: C_15  and  C_16
REMARK    6  A    between atoms: C_16  and  C_17
REMARK    7  A    between atoms: C_16  and  C_18
REMARK    8  A    between atoms: C_16  and  C_19
REMARK                            x       y       z     vdW  Elec       q    Type
REMARK                         _______ _______ _______ _____ _____    ______ ____
ROOT
ATOM      2  N   UNL     1      -2.943   4.254  24.123  0.00  0.00    -0.297 NA
ATOM      4  C   UNL     1      -0.789   3.660  25.451  0.00  0.00    -0.000 C 
ATOM      5  C   UNL     1      -3.286   3.954  25.538  0.00  0.00    +0.074 C 
ATOM      6  C   UNL     1      -0.899   2.797  24.173  0.00  0.00    +0.028 C 
ATOM      7  C   UNL     1      -2.050   3.445  26.312  0.00  0.00    +0.024 C 
ATOM      8  C   UNL     1      -0.781   5.135  25.004  0.00  0.00    +0.019 C 
ATOM      9  C   UNL     1      -2.260   3.094  23.500  0.00  0.00    +0.092 C 
ATOM     10  C   UNL     1      -2.005   5.402  24.113  0.00  0.00    +0.085 C 
ENDROOT
BRANCH   6  12
ATOM     12  C   UNL     1      -0.717   1.333  24.441  0.00  0.00    -0.030 C 
ATOM     13  C   UNL     1       0.187   0.566  23.823  0.00  0.00    +0.004 C 
ENDBRANCH   6  12
BRANCH   5  11
ATOM     11  C   UNL     1      -4.469   2.991  25.660  0.00  0.00    +0.123 C 
BRANCH  11   3
ATOM      1  O   UNL     1      -5.794   0.605  24.690  0.00  0.00    -0.276 OA
ATOM      3  N   UNL     1      -4.016   1.639  25.775  0.00  0.00    -0.314 N 
ATOM     14  C   UNL     1      -4.716   0.543  25.279  0.00  0.00    +0.214 C 
ATOM     20  H   UNL     1      -3.131   1.479  26.249  0.00  0.00    +0.149 HD
BRANCH  14  15
ATOM     15  C   UNL     1      -4.026  -0.786  25.537  0.00  0.00    +0.102 C 
BRANCH  15  16
ATOM     16  C   UNL     1      -3.489  -1.494  24.269  0.00  0.00    -0.029 C 
ATOM     17  C   UNL     1      -3.295  -0.494  23.117  0.00  0.00    +0.011 C 
ATOM     18  C   UNL     1      -2.121  -2.114  24.612  0.00  0.00    +0.011 C 
ATOM     19  C   UNL     1      -4.432  -2.619  23.811  0.00  0.00    +0.011 C 
ENDBRANCH  15  16
ENDBRANCH  14  15
ENDBRANCH  11   3
ENDBRANCH   5  11
TORSDOF 5
ENDMDL
MODEL 10
REMARK VINA RESULT:      -3.7      2.004      5.195
REMARK  Name = 40779435
REMARK  8 active torsions:
REMARK  status: ('A' for Active; 'I' for Inactive)
REMARK    1  A    between atoms: N_3  and  C_11
REMARK    2  A    between atoms: C_5  and  C_11
REMARK    3  A    between atoms: C_6  and  C_12
REMARK    4  A    between atoms: C_14  and  C_15
REMARK    5  A    between atoms: C_15  and  C_16
REMARK    6  A    between atoms: C_16  and  C_17
REMARK    7  A    between atoms: C_16  and  C_18
REMARK    8  A    between atoms: C_16  and  C_19
REMARK                            x       y       z     vdW  Elec       q    Type
REMARK                         _______ _______ _______ _____ _____    ______ ____
ROOT
ATOM      2  N   UNL     1      -2.103   2.344  24.866  0.00  0.00    -0.297 NA
ATOM      4  C   UNL     1      -3.595   4.467  24.694  0.00  0.00    -0.000 C 
ATOM      5  C   UNL     1      -2.587   2.514  23.469  0.00  0.00    +0.074 C 
ATOM      6  C   UNL     1      -4.084   3.545  25.836  0.00  0.00    +0.028 C 
ATOM      7  C   UNL     1      -3.602   3.675  23.372  0.00  0.00    +0.024 C 
ATOM      8  C   UNL     1      -2.131   4.836  25.004  0.00  0.00    +0.019 C 
ATOM      9  C   UNL     1      -3.250   2.241  25.801  0.00  0.00    +0.092 C 
ATOM     10  C   UNL     1      -1.319   3.549  25.228  0.00  0.00    +0.085 C 
ENDROOT
BRANCH   6  12
ATOM     12  C   UNL     1      -5.555   3.267  25.771  0.00  0.00    -0.030 C 
ATOM     13  C   UNL     1      -6.079   2.070  25.484  0.00  0.00    +0.004 C 
ENDBRANCH   6  12
BRANCH   5  11
ATOM     11  C   UNL     1      -3.151   1.216  22.887  0.00  0.00    +0.123 C 
BRANCH  11   3
ATOM      1  O   UNL     1      -4.274  -1.029  24.330  0.00  0.00    -0.276 OA
ATOM      3  N   UNL     1      -2.453   0.079  23.402  0.00  0.00    -0.314 N 
ATOM     14  C   UNL     1      -3.071  -0.963  24.088  0.00  0.00    +0.214 C 
ATOM     20  H   UNL     1      -1.448   0.039  23.254  0.00  0.00    +0.149 HD
BRANCH  14  15
ATOM     15  C   UNL     1      -2.108  -2.048  24.539  0.00  0.00    +0.102 C 
BRANCH  15  16
ATOM     16  C   UNL     1      -0.777  -1.527  25.134  0.00  0.00    -0.029 C 
ATOM     17  C   UNL     1      -1.028  -0.663  26.381  0.00  0.00    +0.011 C 
ATOM     18  C   UNL     1       0.071  -2.745  25.548  0.00  0.00    +0.011 C 
ATOM     19  C   UNL     1       0.018  -0.710  24.102  0.00  0.00    +0.011 C 
ENDBRANCH  15  16
ENDBRANCH  14  15
ENDBRANCH  11   3
ENDBRANCH   5  11
TORSDOF 5
ENDMDL
