MODEL 1
REMARK VINA RESULT:      -0.5      0.000      0.000
REMARK  Name = 11883409
REMARK  11 active torsions:
REMARK  status: ('A' for Active; 'I' for Inactive)
REMARK    1  A    between atoms: S_1  and  N_13
REMARK    2  A    between atoms: S_1  and  C_21
REMARK    3  A    between atoms: O_7  and  C_18
REMARK    4  A    between atoms: O_7  and  C_22
REMARK    5  A    between atoms: O_11  and  C_23
REMARK    6  A    between atoms: O_11  and  C_31
REMARK    7  A    between atoms: O_12  and  C_25
REMARK    8  A    between atoms: O_12  and  C_35
REMARK    9  A    between atoms: N_13  and  C_17
REMARK   10  A    between atoms: N_14  and  C_27
REMARK   11  A    between atoms: C_32  and  C_36
REMARK                            x       y       z     vdW  Elec       q    Type
REMARK                         _______ _______ _______ _____ _____    ______ ____
ROOT
ATOM      5  O   UNL     1      -3.530   3.705  24.051  0.00  0.00    -0.369 OA
ATOM      6  O   UNL     1      -3.173   5.243  26.691  0.00  0.00    -0.368 OA
ATOM     15  C   UNL     1      -2.366   4.233  26.051  0.00  0.00    +0.171 C 
ATOM     16  C   UNL     1      -3.322   3.253  25.400  0.00  0.00    +0.191 C 
ATOM     17  C   UNL     1      -1.615   4.834  24.890  0.00  0.00    +0.133 C 
ATOM     18  C   UNL     1      -4.569   3.405  26.239  0.00  0.00    +0.235 C 
ATOM     19  C   UNL     1      -2.636   4.791  23.770  0.00  0.00    +0.183 C 
ATOM     20  C   UNL     1      -4.555   4.882  26.565  0.00  0.00    +0.207 C 
ENDROOT
BRANCH  17  13
ATOM     13  N   UNL     1      -0.453   3.981  24.541  0.00  0.00    -0.182 NA
ATOM     37  H   UNL     1       0.012   4.154  23.641  0.00  0.00    +0.148 HD
BRANCH  13   1
ATOM      1  S   UNL     1      -0.176   2.540  25.395  0.00  0.00    +0.062 S 
ATOM      8  O   UNL     1      -1.436   2.029  25.901  0.00  0.00    -0.153 OA
ATOM      9  O   UNL     1       0.945   2.737  26.294  0.00  0.00    -0.153 OA
BRANCH   1  21
ATOM     21  C   UNL     1       0.375   1.456  24.113  0.00  0.00    +0.150 A 
ATOM     23  C   UNL     1      -0.508   0.992  23.138  0.00  0.00    +0.147 A 
ATOM     24  C   UNL     1       1.713   1.065  24.083  0.00  0.00    +0.077 A 
ATOM     25  C   UNL     1       2.169   0.210  23.080  0.00  0.00    +0.122 A 
ATOM     26  C   UNL     1      -0.053   0.138  22.134  0.00  0.00    +0.051 A 
ATOM     28  C   UNL     1       1.285  -0.254  22.105  0.00  0.00    +0.049 A 
BRANCH  23  11
ATOM     11  O   UNL     1      -1.820   1.362  23.146  0.00  0.00    -0.493 OA
ATOM     31  C   UNL     1      -2.390   1.756  21.900  0.00  0.00    +0.277 C 
ENDBRANCH  23  11
BRANCH  25  12
ATOM     12  O   UNL     1       3.475  -0.172  23.051  0.00  0.00    -0.495 OA
ATOM     35  C   UNL     1       4.440   0.838  22.763  0.00  0.00    +0.277 C 
ENDBRANCH  25  12
ENDBRANCH   1  21
ENDBRANCH  13   1
ENDBRANCH  17  13
BRANCH  18   7
ATOM      7  O   UNL     1      -5.748   3.020  25.570  0.00  0.00    -0.442 OA
BRANCH   7  22
ATOM     10  O   UNL     1      -6.739   1.311  24.418  0.00  0.00    -0.226 OA
ATOM     14  N   UNL     1      -4.552   1.136  25.238  0.00  0.00    -0.251 N 
ATOM     22  C   UNL     1      -5.765   1.758  25.013  0.00  0.00    +0.405 C 
ATOM     38  H   UNL     1      -3.861   1.673  25.756  0.00  0.00    +0.158 HD
BRANCH  14  27
ATOM     27  C   UNL     1      -4.151  -0.159  24.838  0.00  0.00    +0.037 A 
ATOM     29  C   UNL     1      -2.843  -0.586  25.065  0.00  0.00    +0.035 A 
ATOM     30  C   UNL     1      -5.065  -1.011  24.216  0.00  0.00    +0.023 A 
ATOM     32  C   UNL     1      -2.448  -1.864  24.669  0.00  0.00    +0.057 A 
ATOM     33  C   UNL     1      -4.670  -2.289  23.821  0.00  0.00    +0.002 A 
ATOM     34  C   UNL     1      -3.361  -2.715  24.048  0.00  0.00    +0.012 A 
BRANCH  32  36
ATOM      2  F   UNL     1      -0.315  -1.453  25.672  0.00  0.00    -0.166 F 
ATOM      3  F   UNL     1      -0.968  -3.518  25.561  0.00  0.00    -0.166 F 
ATOM      4  F   UNL     1      -0.341  -2.481  23.756  0.00  0.00    -0.166 F 
ATOM     36  C   UNL     1      -1.049  -2.319  24.911  0.00  0.00    +0.417 C 
ENDBRANCH  32  36
ENDBRANCH  14  27
ENDBRANCH   7  22
ENDBRANCH  18   7
TORSDOF 9
ENDMDL
MODEL 2
REMARK VINA RESULT:      -0.2      2.743      5.941
REMARK  Name = 11883409
REMARK  11 active torsions:
REMARK  status: ('A' for Active; 'I' for Inactive)
REMARK    1  A    between atoms: S_1  and  N_13
REMARK    2  A    between atoms: S_1  and  C_21
REMARK    3  A    between atoms: O_7  and  C_18
REMARK    4  A    between atoms: O_7  and  C_22
REMARK    5  A    between atoms: O_11  and  C_23
REMARK    6  A    between atoms: O_11  and  C_31
REMARK    7  A    between atoms: O_12  and  C_25
REMARK    8  A    between atoms: O_12  and  C_35
REMARK    9  A    between atoms: N_13  and  C_17
REMARK   10  A    between atoms: N_14  and  C_27
REMARK   11  A    between atoms: C_32  and  C_36
REMARK                            x       y       z     vdW  Elec       q    Type
REMARK                         _______ _______ _______ _____ _____    ______ ____
ROOT
ATOM      5  O   UNL     1      -2.366  -0.139  24.084  0.00  0.00    -0.369 OA
ATOM      6  O   UNL     1      -4.903  -1.877  24.132  0.00  0.00    -0.368 OA
ATOM     15  C   UNL     1      -4.413  -0.868  25.039  0.00  0.00    +0.171 C 
ATOM     16  C   UNL     1      -2.905  -1.016  25.088  0.00  0.00    +0.191 C 
ATOM     17  C   UNL     1      -4.625   0.502  24.447  0.00  0.00    +0.133 C 
ATOM     18  C   UNL     1      -2.705  -2.469  24.726  0.00  0.00    +0.235 C 
ATOM     19  C   UNL     1      -3.421   0.668  23.541  0.00  0.00    +0.183 C 
ATOM     20  C   UNL     1      -3.804  -2.698  23.712  0.00  0.00    +0.207 C 
ENDROOT
BRANCH  17  13
ATOM     13  N   UNL     1      -4.592   1.528  25.517  0.00  0.00    -0.182 NA
ATOM     37  H   UNL     1      -4.839   1.232  26.469  0.00  0.00    +0.148 HD
BRANCH  13   1
ATOM      1  S   UNL     1      -4.551   3.175  25.108  0.00  0.00    +0.062 S 
ATOM      8  O   UNL     1      -5.242   3.943  26.126  0.00  0.00    -0.153 OA
ATOM      9  O   UNL     1      -4.918   3.319  23.712  0.00  0.00    -0.153 OA
BRANCH   1  21
ATOM     21  C   UNL     1      -2.826   3.539  25.228  0.00  0.00    +0.150 A 
ATOM     23  C   UNL     1      -2.305   4.719  24.697  0.00  0.00    +0.147 A 
ATOM     24  C   UNL     1      -1.982   2.628  25.862  0.00  0.00    +0.077 A 
ATOM     25  C   UNL     1      -0.617   2.897  25.967  0.00  0.00    +0.122 A 
ATOM     26  C   UNL     1      -0.940   4.988  24.802  0.00  0.00    +0.051 A 
ATOM     28  C   UNL     1      -0.096   4.077  25.436  0.00  0.00    +0.049 A 
BRANCH  23  11
ATOM     11  O   UNL     1      -3.111   5.624  24.073  0.00  0.00    -0.493 OA
ATOM     31  C   UNL     1      -2.492   6.808  23.575  0.00  0.00    +0.277 C 
ENDBRANCH  23  11
BRANCH  25  12
ATOM     12  O   UNL     1       0.207   2.008  26.587  0.00  0.00    -0.495 OA
ATOM     35  C   UNL     1       0.851   2.445  27.782  0.00  0.00    +0.277 C 
ENDBRANCH  25  12
ENDBRANCH   1  21
ENDBRANCH  13   1
ENDBRANCH  17  13
BRANCH  18   7
ATOM      7  O   UNL     1      -1.429  -2.747  24.198  0.00  0.00    -0.442 OA
BRANCH   7  22
ATOM     10  O   UNL     1      -0.049  -1.748  25.723  0.00  0.00    -0.226 OA
ATOM     14  N   UNL     1       0.110  -1.286  23.433  0.00  0.00    -0.251 N 
ATOM     22  C   UNL     1      -0.405  -1.897  24.560  0.00  0.00    +0.405 C 
ATOM     38  H   UNL     1      -0.321  -1.539  22.548  0.00  0.00    +0.158 HD
BRANCH  14  27
ATOM     27  C   UNL     1       1.164  -0.347  23.357  0.00  0.00    +0.037 A 
ATOM     29  C   UNL     1       2.488  -0.774  23.453  0.00  0.00    +0.035 A 
ATOM     30  C   UNL     1       0.879   1.009  23.187  0.00  0.00    +0.023 A 
ATOM     32  C   UNL     1       3.527   0.153  23.379  0.00  0.00    +0.057 A 
ATOM     33  C   UNL     1       1.919   1.936  23.112  0.00  0.00    +0.002 A 
ATOM     34  C   UNL     1       3.243   1.508  23.209  0.00  0.00    +0.012 A 
BRANCH  32  36
ATOM      2  F   UNL     1       5.669  -0.099  22.343  0.00  0.00    -0.166 F 
ATOM      3  F   UNL     1       5.649   0.319  24.471  0.00  0.00    -0.166 F 
ATOM      4  F   UNL     1       5.046  -1.639  23.747  0.00  0.00    -0.166 F 
ATOM     36  C   UNL     1       4.943  -0.304  23.483  0.00  0.00    +0.417 C 
ENDBRANCH  32  36
ENDBRANCH  14  27
ENDBRANCH   7  22
ENDBRANCH  18   7
TORSDOF 9
ENDMDL
MODEL 3
REMARK VINA RESULT:       0.9      2.598      5.511
REMARK  Name = 11883409
REMARK  11 active torsions:
REMARK  status: ('A' for Active; 'I' for Inactive)
REMARK    1  A    between atoms: S_1  and  N_13
REMARK    2  A    between atoms: S_1  and  C_21
REMARK    3  A    between atoms: O_7  and  C_18
REMARK    4  A    between atoms: O_7  and  C_22
REMARK    5  A    between atoms: O_11  and  C_23
REMARK    6  A    between atoms: O_11  and  C_31
REMARK    7  A    between atoms: O_12  and  C_25
REMARK    8  A    between atoms: O_12  and  C_35
REMARK    9  A    between atoms: N_13  and  C_17
REMARK   10  A    between atoms: N_14  and  C_27
REMARK   11  A    between atoms: C_32  and  C_36
REMARK                            x       y       z     vdW  Elec       q    Type
REMARK                         _______ _______ _______ _____ _____    ______ ____
ROOT
ATOM      5  O   UNL     1      -2.799   3.198  26.077  0.00  0.00    -0.369 OA
ATOM      6  O   UNL     1      -2.665   5.955  24.719  0.00  0.00    -0.368 OA
ATOM     15  C   UNL     1      -3.230   4.699  24.289  0.00  0.00    +0.171 C 
ATOM     16  C   UNL     1      -2.305   3.607  24.790  0.00  0.00    +0.191 C 
ATOM     17  C   UNL     1      -4.525   4.441  25.017  0.00  0.00    +0.133 C 
ATOM     18  C   UNL     1      -0.980   4.323  24.901  0.00  0.00    +0.235 C 
ATOM     19  C   UNL     1      -4.060   3.836  26.327  0.00  0.00    +0.183 C 
ATOM     20  C   UNL     1      -1.402   5.704  25.352  0.00  0.00    +0.207 C 
ENDROOT
BRANCH  17  13
ATOM     13  N   UNL     1      -5.339   3.454  24.270  0.00  0.00    -0.182 NA
ATOM     37  H   UNL     1      -5.753   3.755  23.378  0.00  0.00    +0.148 HD
BRANCH  13   1
ATOM      1  S   UNL     1      -5.892   2.052  25.049  0.00  0.00    +0.062 S 
ATOM      8  O   UNL     1      -7.091   1.571  24.388  0.00  0.00    -0.153 OA
ATOM      9  O   UNL     1      -5.893   2.282  26.482  0.00  0.00    -0.153 OA
BRANCH   1  21
ATOM     21  C   UNL     1      -4.589   0.908  24.712  0.00  0.00    +0.150 A 
ATOM     23  C   UNL     1      -3.723   1.105  23.635  0.00  0.00    +0.147 A 
ATOM     24  C   UNL     1      -4.430  -0.205  25.538  0.00  0.00    +0.077 A 
ATOM     25  C   UNL     1      -3.407  -1.119  25.288  0.00  0.00    +0.122 A 
ATOM     26  C   UNL     1      -2.700   0.191  23.386  0.00  0.00    +0.051 A 
ATOM     28  C   UNL     1      -2.542  -0.922  24.212  0.00  0.00    +0.049 A 
BRANCH  23  11
ATOM     11  O   UNL     1      -3.859   2.185  22.815  0.00  0.00    -0.493 OA
ATOM     31  C   UNL     1      -2.895   2.334  21.775  0.00  0.00    +0.277 C 
ENDBRANCH  23  11
BRANCH  25  12
ATOM     12  O   UNL     1      -3.252  -2.205  26.095  0.00  0.00    -0.495 OA
ATOM     35  C   UNL     1      -3.225  -3.484  25.463  0.00  0.00    +0.277 C 
ENDBRANCH  25  12
ENDBRANCH   1  21
ENDBRANCH  13   1
ENDBRANCH  17  13
BRANCH  18   7
ATOM      7  O   UNL     1      -0.088   3.718  25.808  0.00  0.00    -0.442 OA
BRANCH   7  22
ATOM     10  O   UNL     1       0.115   1.477  26.216  0.00  0.00    -0.226 OA
ATOM     14  N   UNL     1       1.045   2.469  24.310  0.00  0.00    -0.251 N 
ATOM     22  C   UNL     1       0.346   2.445  25.502  0.00  0.00    +0.405 C 
ATOM     38  H   UNL     1       1.133   3.376  23.859  0.00  0.00    +0.158 HD
BRANCH  14  27
ATOM     27  C   UNL     1       1.658   1.386  23.639  0.00  0.00    +0.037 A 
ATOM     29  C   UNL     1       3.029   1.168  23.772  0.00  0.00    +0.035 A 
ATOM     30  C   UNL     1       0.890   0.535  22.843  0.00  0.00    +0.023 A 
ATOM     32  C   UNL     1       3.633   0.100  23.108  0.00  0.00    +0.057 A 
ATOM     33  C   UNL     1       1.494  -0.533  22.180  0.00  0.00    +0.002 A 
ATOM     34  C   UNL     1       2.865  -0.750  22.313  0.00  0.00    +0.012 A 
BRANCH  32  36
ATOM      2  F   UNL     1       5.763  -0.178  22.057  0.00  0.00    -0.166 F 
ATOM      3  F   UNL     1       5.738   0.832  23.975  0.00  0.00    -0.166 F 
ATOM      4  F   UNL     1       5.387  -1.311  23.875  0.00  0.00    -0.166 F 
ATOM     36  C   UNL     1       5.099  -0.132  23.250  0.00  0.00    +0.417 C 
ENDBRANCH  32  36
ENDBRANCH  14  27
ENDBRANCH   7  22
ENDBRANCH  18   7
TORSDOF 9
ENDMDL
MODEL 4
REMARK VINA RESULT:       1.3      2.693      5.756
REMARK  Name = 11883409
REMARK  11 active torsions:
REMARK  status: ('A' for Active; 'I' for Inactive)
REMARK    1  A    between atoms: S_1  and  N_13
REMARK    2  A    between atoms: S_1  and  C_21
REMARK    3  A    between atoms: O_7  and  C_18
REMARK    4  A    between atoms: O_7  and  C_22
REMARK    5  A    between atoms: O_11  and  C_23
REMARK    6  A    between atoms: O_11  and  C_31
REMARK    7  A    between atoms: O_12  and  C_25
REMARK    8  A    between atoms: O_12  and  C_35
REMARK    9  A    between atoms: N_13  and  C_17
REMARK   10  A    between atoms: N_14  and  C_27
REMARK   11  A    between atoms: C_32  and  C_36
REMARK                            x       y       z     vdW  Elec       q    Type
REMARK                         _______ _______ _______ _____ _____    ______ ____
ROOT
ATOM      5  O   UNL     1      -2.115   0.214  24.204  0.00  0.00    -0.369 OA
ATOM      6  O   UNL     1      -4.432  -1.763  24.638  0.00  0.00    -0.368 OA
ATOM     15  C   UNL     1      -4.376  -0.322  24.688  0.00  0.00    +0.171 C 
ATOM     16  C   UNL     1      -3.036   0.046  25.295  0.00  0.00    +0.191 C 
ATOM     17  C   UNL     1      -4.308   0.239  23.289  0.00  0.00    +0.133 C 
ATOM     18  C   UNL     1      -2.706  -1.172  26.124  0.00  0.00    +0.235 C 
ATOM     19  C   UNL     1      -2.831   0.148  22.962  0.00  0.00    +0.183 C 
ATOM     20  C   UNL     1      -3.261  -2.294  25.275  0.00  0.00    +0.207 C 
ENDROOT
BRANCH  17  13
ATOM     13  N   UNL     1      -4.735   1.658  23.291  0.00  0.00    -0.182 NA
ATOM     37  H   UNL     1      -5.744   1.853  23.314  0.00  0.00    +0.148 HD
BRANCH  13   1
ATOM      1  S   UNL     1      -3.631   2.873  22.859  0.00  0.00    +0.062 S 
ATOM      8  O   UNL     1      -4.355   4.058  22.440  0.00  0.00    -0.153 OA
ATOM      9  O   UNL     1      -2.615   2.297  21.997  0.00  0.00    -0.153 OA
BRANCH   1  21
ATOM     21  C   UNL     1      -2.854   3.228  24.406  0.00  0.00    +0.150 A 
ATOM     23  C   UNL     1      -3.592   3.728  25.479  0.00  0.00    +0.147 A 
ATOM     24  C   UNL     1      -1.485   3.002  24.546  0.00  0.00    +0.077 A 
ATOM     25  C   UNL     1      -0.853   3.276  25.759  0.00  0.00    +0.122 A 
ATOM     26  C   UNL     1      -2.960   4.002  26.692  0.00  0.00    +0.051 A 
ATOM     28  C   UNL     1      -1.590   3.776  26.832  0.00  0.00    +0.049 A 
BRANCH  23  11
ATOM     11  O   UNL     1      -4.930   3.957  25.365  0.00  0.00    -0.493 OA
ATOM     31  C   UNL     1      -5.804   2.979  25.925  0.00  0.00    +0.277 C 
ENDBRANCH  23  11
BRANCH  25  12
ATOM     12  O   UNL     1       0.483   3.055  25.896  0.00  0.00    -0.495 OA
ATOM     35  C   UNL     1       0.936   2.587  27.165  0.00  0.00    +0.277 C 
ENDBRANCH  25  12
ENDBRANCH   1  21
ENDBRANCH  13   1
ENDBRANCH  17  13
BRANCH  18   7
ATOM      7  O   UNL     1      -1.327  -1.327  26.371  0.00  0.00    -0.442 OA
BRANCH   7  22
ATOM     10  O   UNL     1      -0.466  -2.768  24.818  0.00  0.00    -0.226 OA
ATOM     14  N   UNL     1       0.137  -0.506  24.865  0.00  0.00    -0.251 N 
ATOM     22  C   UNL     1      -0.530  -1.639  25.289  0.00  0.00    +0.405 C 
ATOM     38  H   UNL     1      -0.047   0.347  25.387  0.00  0.00    +0.158 HD
BRANCH  14  27
ATOM     27  C   UNL     1       1.050  -0.384  23.792  0.00  0.00    +0.037 A 
ATOM     29  C   UNL     1       2.417  -0.273  24.047  0.00  0.00    +0.035 A 
ATOM     30  C   UNL     1       0.583  -0.374  22.477  0.00  0.00    +0.023 A 
ATOM     32  C   UNL     1       3.316  -0.152  22.989  0.00  0.00    +0.057 A 
ATOM     33  C   UNL     1       1.483  -0.254  21.418  0.00  0.00    +0.002 A 
ATOM     34  C   UNL     1       2.850  -0.143  21.675  0.00  0.00    +0.012 A 
BRANCH  32  36
ATOM      2  F   UNL     1       5.295  -1.099  23.942  0.00  0.00    -0.166 F 
ATOM      3  F   UNL     1       5.539   0.074  22.135  0.00  0.00    -0.166 F 
ATOM      4  F   UNL     1       5.083   1.064  24.015  0.00  0.00    -0.166 F 
ATOM     36  C   UNL     1       4.777  -0.032  23.263  0.00  0.00    +0.417 C 
ENDBRANCH  32  36
ENDBRANCH  14  27
ENDBRANCH   7  22
ENDBRANCH  18   7
TORSDOF 9
ENDMDL
MODEL 5
REMARK VINA RESULT:       2.1      2.801      6.511
REMARK  Name = 11883409
REMARK  11 active torsions:
REMARK  status: ('A' for Active; 'I' for Inactive)
REMARK    1  A    between atoms: S_1  and  N_13
REMARK    2  A    between atoms: S_1  and  C_21
REMARK    3  A    between atoms: O_7  and  C_18
REMARK    4  A    between atoms: O_7  and  C_22
REMARK    5  A    between atoms: O_11  and  C_23
REMARK    6  A    between atoms: O_11  and  C_31
REMARK    7  A    between atoms: O_12  and  C_25
REMARK    8  A    between atoms: O_12  and  C_35
REMARK    9  A    between atoms: N_13  and  C_17
REMARK   10  A    between atoms: N_14  and  C_27
REMARK   11  A    between atoms: C_32  and  C_36
REMARK                            x       y       z     vdW  Elec       q    Type
REMARK                         _______ _______ _______ _____ _____    ______ ____
ROOT
ATOM      5  O   UNL     1      -2.412  -1.782  23.806  0.00  0.00    -0.369 OA
ATOM      6  O   UNL     1      -3.662  -0.295  26.192  0.00  0.00    -0.368 OA
ATOM     15  C   UNL     1      -3.169   0.174  24.919  0.00  0.00    +0.171 C 
ATOM     16  C   UNL     1      -1.950  -0.664  24.584  0.00  0.00    +0.191 C 
ATOM     17  C   UNL     1      -4.155  -0.166  23.829  0.00  0.00    +0.133 C 
ATOM     18  C   UNL     1      -1.463  -1.094  25.947  0.00  0.00    +0.235 C 
ATOM     19  C   UNL     1      -3.800  -1.601  23.490  0.00  0.00    +0.183 C 
ATOM     20  C   UNL     1      -2.759  -1.286  26.702  0.00  0.00    +0.207 C 
ENDROOT
BRANCH  17  13
ATOM     13  N   UNL     1      -3.924   0.700  22.649  0.00  0.00    -0.182 NA
ATOM     37  H   UNL     1      -4.403   0.452  21.774  0.00  0.00    +0.148 HD
BRANCH  13   1
ATOM      1  S   UNL     1      -2.622   1.789  22.641  0.00  0.00    +0.062 S 
ATOM      8  O   UNL     1      -2.723   2.655  21.482  0.00  0.00    -0.153 OA
ATOM      9  O   UNL     1      -1.397   1.055  22.899  0.00  0.00    -0.153 OA
BRANCH   1  21
ATOM     21  C   UNL     1      -2.952   2.763  24.078  0.00  0.00    +0.150 A 
ATOM     23  C   UNL     1      -1.927   3.454  24.725  0.00  0.00    +0.147 A 
ATOM     24  C   UNL     1      -4.256   2.836  24.565  0.00  0.00    +0.077 A 
ATOM     25  C   UNL     1      -4.537   3.600  25.698  0.00  0.00    +0.122 A 
ATOM     26  C   UNL     1      -2.207   4.218  25.858  0.00  0.00    +0.051 A 
ATOM     28  C   UNL     1      -3.513   4.290  26.345  0.00  0.00    +0.049 A 
BRANCH  23  11
ATOM     11  O   UNL     1      -0.644   3.398  24.268  0.00  0.00    -0.493 OA
ATOM     31  C   UNL     1       0.265   2.570  24.989  0.00  0.00    +0.277 C 
ENDBRANCH  23  11
BRANCH  25  12
ATOM     12  O   UNL     1      -5.811   3.671  26.173  0.00  0.00    -0.495 OA
ATOM     35  C   UNL     1      -6.508   2.439  26.348  0.00  0.00    +0.277 C 
ENDBRANCH  25  12
ENDBRANCH   1  21
ENDBRANCH  13   1
ENDBRANCH  17  13
BRANCH  18   7
ATOM      7  O   UNL     1      -0.685  -2.269  25.922  0.00  0.00    -0.442 OA
BRANCH   7  22
ATOM     10  O   UNL     1       1.410  -3.029  25.410  0.00  0.00    -0.226 OA
ATOM     14  N   UNL     1       0.517  -1.112  24.404  0.00  0.00    -0.251 N 
ATOM     22  C   UNL     1       0.516  -2.207  25.247  0.00  0.00    +0.405 C 
ATOM     38  H   UNL     1      -0.324  -0.542  24.407  0.00  0.00    +0.158 HD
BRANCH  14  27
ATOM     27  C   UNL     1       1.548  -0.683  23.536  0.00  0.00    +0.037 A 
ATOM     29  C   UNL     1       2.856  -0.574  24.007  0.00  0.00    +0.035 A 
ATOM     30  C   UNL     1       1.255  -0.367  22.209  0.00  0.00    +0.023 A 
ATOM     32  C   UNL     1       3.872  -0.149  23.151  0.00  0.00    +0.057 A 
ATOM     33  C   UNL     1       2.272   0.057  21.353  0.00  0.00    +0.002 A 
ATOM     34  C   UNL     1       3.580   0.166  21.824  0.00  0.00    +0.012 A 
BRANCH  32  36
ATOM      2  F   UNL     1       5.548  -0.872  24.697  0.00  0.00    -0.166 F 
ATOM      3  F   UNL     1       6.218  -0.313  22.712  0.00  0.00    -0.166 F 
ATOM      4  F   UNL     1       5.564   1.221  24.106  0.00  0.00    -0.166 F 
ATOM     36  C   UNL     1       5.271  -0.033  23.655  0.00  0.00    +0.417 C 
ENDBRANCH  32  36
ENDBRANCH  14  27
ENDBRANCH   7  22
ENDBRANCH  18   7
TORSDOF 9
ENDMDL
MODEL 6
REMARK VINA RESULT:       2.8      1.550      1.937
REMARK  Name = 11883409
REMARK  11 active torsions:
REMARK  status: ('A' for Active; 'I' for Inactive)
REMARK    1  A    between atoms: S_1  and  N_13
REMARK    2  A    between atoms: S_1  and  C_21
REMARK    3  A    between atoms: O_7  and  C_18
REMARK    4  A    between atoms: O_7  and  C_22
REMARK    5  A    between atoms: O_11  and  C_23
REMARK    6  A    between atoms: O_11  and  C_31
REMARK    7  A    between atoms: O_12  and  C_25
REMARK    8  A    between atoms: O_12  and  C_35
REMARK    9  A    between atoms: N_13  and  C_17
REMARK   10  A    between atoms: N_14  and  C_27
REMARK   11  A    between atoms: C_32  and  C_36
REMARK                            x       y       z     vdW  Elec       q    Type
REMARK                         _______ _______ _______ _____ _____    ______ ____
ROOT
ATOM      5  O   UNL     1      -3.272   3.591  23.928  0.00  0.00    -0.369 OA
ATOM      6  O   UNL     1      -3.059   5.371  26.428  0.00  0.00    -0.368 OA
ATOM     15  C   UNL     1      -2.206   4.325  25.918  0.00  0.00    +0.171 C 
ATOM     16  C   UNL     1      -3.115   3.269  25.320  0.00  0.00    +0.191 C 
ATOM     17  C   UNL     1      -1.416   4.835  24.739  0.00  0.00    +0.133 C 
ATOM     18  C   UNL     1      -4.400   3.468  26.088  0.00  0.00    +0.235 C 
ATOM     19  C   UNL     1      -2.386   4.668  23.586  0.00  0.00    +0.183 C 
ATOM     20  C   UNL     1      -4.428   4.968  26.278  0.00  0.00    +0.207 C 
ENDROOT
BRANCH  17  13
ATOM     13  N   UNL     1      -0.225   3.981  24.519  0.00  0.00    -0.182 NA
ATOM     37  H   UNL     1       0.354   4.173  23.692  0.00  0.00    +0.148 HD
BRANCH  13   1
ATOM      1  S   UNL     1      -0.070   2.514  25.360  0.00  0.00    +0.062 S 
ATOM      8  O   UNL     1      -1.386   1.959  25.609  0.00  0.00    -0.153 OA
ATOM      9  O   UNL     1       0.863   2.700  26.456  0.00  0.00    -0.153 OA
BRANCH   1  21
ATOM     21  C   UNL     1       0.736   1.492  24.165  0.00  0.00    +0.150 A 
ATOM     23  C   UNL     1       0.015   0.556  23.422  0.00  0.00    +0.147 A 
ATOM     24  C   UNL     1       2.109   1.628  23.969  0.00  0.00    +0.077 A 
ATOM     25  C   UNL     1       2.764   0.830  23.031  0.00  0.00    +0.122 A 
ATOM     26  C   UNL     1       0.669  -0.242  22.483  0.00  0.00    +0.051 A 
ATOM     28  C   UNL     1       2.044  -0.105  22.288  0.00  0.00    +0.049 A 
BRANCH  23  11
ATOM     11  O   UNL     1      -1.328   0.405  23.596  0.00  0.00    -0.493 OA
ATOM     31  C   UNL     1      -2.179   1.016  22.629  0.00  0.00    +0.277 C 
ENDBRANCH  23  11
BRANCH  25  12
ATOM     12  O   UNL     1       4.105   0.964  22.839  0.00  0.00    -0.495 OA
ATOM     35  C   UNL     1       4.947  -0.019  23.441  0.00  0.00    +0.277 C 
ENDBRANCH  25  12
ENDBRANCH   1  21
ENDBRANCH  13   1
ENDBRANCH  17  13
BRANCH  18   7
ATOM      7  O   UNL     1      -5.541   2.997  25.408  0.00  0.00    -0.442 OA
BRANCH   7  22
ATOM     10  O   UNL     1      -6.643   1.087  24.804  0.00  0.00    -0.226 OA
ATOM     14  N   UNL     1      -4.395   1.054  25.457  0.00  0.00    -0.251 N 
ATOM     22  C   UNL     1      -5.618   1.638  25.185  0.00  0.00    +0.405 C 
ATOM     38  H   UNL     1      -3.657   1.681  25.766  0.00  0.00    +0.158 HD
BRANCH  14  27
ATOM     27  C   UNL     1      -4.042  -0.311  25.360  0.00  0.00    +0.037 A 
ATOM     29  C   UNL     1      -4.465  -1.066  24.266  0.00  0.00    +0.035 A 
ATOM     30  C   UNL     1      -3.270  -0.904  26.360  0.00  0.00    +0.023 A 
ATOM     32  C   UNL     1      -4.117  -2.413  24.172  0.00  0.00    +0.057 A 
ATOM     33  C   UNL     1      -2.921  -2.251  26.265  0.00  0.00    +0.002 A 
ATOM     34  C   UNL     1      -3.345  -3.005  25.171  0.00  0.00    +0.012 A 
BRANCH  32  36
ATOM      2  F   UNL     1      -4.554  -2.530  21.823  0.00  0.00    -0.166 F 
ATOM      3  F   UNL     1      -3.810  -4.331  22.776  0.00  0.00    -0.166 F 
ATOM      4  F   UNL     1      -5.850  -3.675  23.143  0.00  0.00    -0.166 F 
ATOM     36  C   UNL     1      -4.571  -3.220  23.003  0.00  0.00    +0.417 C 
ENDBRANCH  32  36
ENDBRANCH  14  27
ENDBRANCH   7  22
ENDBRANCH  18   7
TORSDOF 9
ENDMDL
MODEL 7
REMARK VINA RESULT:       3.1      2.567      5.362
REMARK  Name = 11883409
REMARK  11 active torsions:
REMARK  status: ('A' for Active; 'I' for Inactive)
REMARK    1  A    between atoms: S_1  and  N_13
REMARK    2  A    between atoms: S_1  and  C_21
REMARK    3  A    between atoms: O_7  and  C_18
REMARK    4  A    between atoms: O_7  and  C_22
REMARK    5  A    between atoms: O_11  and  C_23
REMARK    6  A    between atoms: O_11  and  C_31
REMARK    7  A    between atoms: O_12  and  C_25
REMARK    8  A    between atoms: O_12  and  C_35
REMARK    9  A    between atoms: N_13  and  C_17
REMARK   10  A    between atoms: N_14  and  C_27
REMARK   11  A    between atoms: C_32  and  C_36
REMARK                            x       y       z     vdW  Elec       q    Type
REMARK                         _______ _______ _______ _____ _____    ______ ____
ROOT
ATOM      5  O   UNL     1      -2.486   2.710  25.849  0.00  0.00    -0.369 OA
ATOM      6  O   UNL     1      -3.324   5.297  24.412  0.00  0.00    -0.368 OA
ATOM     15  C   UNL     1      -3.401   3.911  24.018  0.00  0.00    +0.171 C 
ATOM     16  C   UNL     1      -2.155   3.232  24.551  0.00  0.00    +0.191 C 
ATOM     17  C   UNL     1      -4.529   3.230  24.752  0.00  0.00    +0.133 C 
ATOM     18  C   UNL     1      -1.172   4.375  24.643  0.00  0.00    +0.235 C 
ATOM     19  C   UNL     1      -3.894   2.864  26.079  0.00  0.00    +0.183 C 
ATOM     20  C   UNL     1      -2.062   5.528  25.054  0.00  0.00    +0.207 C 
ENDROOT
BRANCH  17  13
ATOM     13  N   UNL     1      -4.932   1.999  24.032  0.00  0.00    -0.182 NA
ATOM     37  H   UNL     1      -5.081   2.066  23.018  0.00  0.00    +0.148 HD
BRANCH  13   1
ATOM      1  S   UNL     1      -5.512   0.662  24.904  0.00  0.00    +0.062 S 
ATOM      8  O   UNL     1      -6.651   0.091  24.210  0.00  0.00    -0.153 OA
ATOM      9  O   UNL     1      -5.620   1.028  26.304  0.00  0.00    -0.153 OA
BRANCH   1  21
ATOM     21  C   UNL     1      -4.166  -0.474  24.770  0.00  0.00    +0.150 A 
ATOM     23  C   UNL     1      -4.315  -1.684  24.091  0.00  0.00    +0.147 A 
ATOM     24  C   UNL     1      -2.942  -0.150  25.353  0.00  0.00    +0.077 A 
ATOM     25  C   UNL     1      -1.867  -1.033  25.259  0.00  0.00    +0.122 A 
ATOM     26  C   UNL     1      -3.240  -2.568  23.996  0.00  0.00    +0.051 A 
ATOM     28  C   UNL     1      -2.016  -2.243  24.581  0.00  0.00    +0.049 A 
BRANCH  23  11
ATOM     11  O   UNL     1      -5.502  -2.023  23.513  0.00  0.00    -0.493 OA
ATOM     31  C   UNL     1      -5.679  -3.390  23.149  0.00  0.00    +0.277 C 
ENDBRANCH  23  11
BRANCH  25  12
ATOM     12  O   UNL     1      -0.672  -0.716  25.828  0.00  0.00    -0.495 OA
ATOM     35  C   UNL     1       0.339  -1.723  25.818  0.00  0.00    +0.277 C 
ENDBRANCH  25  12
ENDBRANCH   1  21
ENDBRANCH  13   1
ENDBRANCH  17  13
BRANCH  18   7
ATOM      7  O   UNL     1      -0.134   4.151  25.569  0.00  0.00    -0.442 OA
BRANCH   7  22
ATOM     10  O   UNL     1       0.903   2.312  26.449  0.00  0.00    -0.226 OA
ATOM     14  N   UNL     1       0.727   2.636  24.136  0.00  0.00    -0.251 N 
ATOM     22  C   UNL     1       0.544   2.954  25.468  0.00  0.00    +0.405 C 
ATOM     38  H   UNL     1       0.355   3.299  23.461  0.00  0.00    +0.158 HD
BRANCH  14  27
ATOM     27  C   UNL     1       1.371   1.501  23.593  0.00  0.00    +0.037 A 
ATOM     29  C   UNL     1       2.753   1.358  23.712  0.00  0.00    +0.035 A 
ATOM     30  C   UNL     1       0.623   0.522  22.936  0.00  0.00    +0.023 A 
ATOM     32  C   UNL     1       3.388   0.239  23.175  0.00  0.00    +0.057 A 
ATOM     33  C   UNL     1       1.258  -0.598  22.400  0.00  0.00    +0.002 A 
ATOM     34  C   UNL     1       2.641  -0.739  22.519  0.00  0.00    +0.012 A 
BRANCH  32  36
ATOM      2  F   UNL     1       5.458   1.087  24.022  0.00  0.00    -0.166 F 
ATOM      3  F   UNL     1       5.247  -1.069  23.919  0.00  0.00    -0.166 F 
ATOM      4  F   UNL     1       5.500   0.083  22.093  0.00  0.00    -0.166 F 
ATOM     36  C   UNL     1       4.866   0.088  23.302  0.00  0.00    +0.417 C 
ENDBRANCH  32  36
ENDBRANCH  14  27
ENDBRANCH   7  22
ENDBRANCH  18   7
TORSDOF 9
ENDMDL
MODEL 8
REMARK VINA RESULT:       3.2      2.633      5.445
REMARK  Name = 11883409
REMARK  11 active torsions:
REMARK  status: ('A' for Active; 'I' for Inactive)
REMARK    1  A    between atoms: S_1  and  N_13
REMARK    2  A    between atoms: S_1  and  C_21
REMARK    3  A    between atoms: O_7  and  C_18
REMARK    4  A    between atoms: O_7  and  C_22
REMARK    5  A    between atoms: O_11  and  C_23
REMARK    6  A    between atoms: O_11  and  C_31
REMARK    7  A    between atoms: O_12  and  C_25
REMARK    8  A    between atoms: O_12  and  C_35
REMARK    9  A    between atoms: N_13  and  C_17
REMARK   10  A    between atoms: N_14  and  C_27
REMARK   11  A    between atoms: C_32  and  C_36
REMARK                            x       y       z     vdW  Elec       q    Type
REMARK                         _______ _______ _______ _____ _____    ______ ____
ROOT
ATOM      5  O   UNL     1      -2.999   3.125  26.214  0.00  0.00    -0.369 OA
ATOM      6  O   UNL     1      -2.850   5.800  24.703  0.00  0.00    -0.368 OA
ATOM     15  C   UNL     1      -3.499   4.552  24.385  0.00  0.00    +0.171 C 
ATOM     16  C   UNL     1      -2.587   3.444  24.874  0.00  0.00    +0.191 C 
ATOM     17  C   UNL     1      -4.745   4.393  25.220  0.00  0.00    +0.133 C 
ATOM     18  C   UNL     1      -1.228   4.102  24.848  0.00  0.00    +0.235 C 
ATOM     19  C   UNL     1      -4.208   3.833  26.522  0.00  0.00    +0.183 C 
ATOM     20  C   UNL     1      -1.555   5.522  25.254  0.00  0.00    +0.207 C 
ENDROOT
BRANCH  17  13
ATOM     13  N   UNL     1      -5.656   3.408  24.589  0.00  0.00    -0.182 NA
ATOM     37  H   UNL     1      -6.375   3.766  23.947  0.00  0.00    +0.148 HD
BRANCH  13   1
ATOM      1  S   UNL     1      -5.765   1.835  25.216  0.00  0.00    +0.062 S 
ATOM      8  O   UNL     1      -6.953   1.187  24.692  0.00  0.00    -0.153 OA
ATOM      9  O   UNL     1      -5.533   1.885  26.648  0.00  0.00    -0.153 OA
BRANCH   1  21
ATOM     21  C   UNL     1      -4.355   1.054  24.493  0.00  0.00    +0.150 A 
ATOM     23  C   UNL     1      -3.791  -0.084  25.071  0.00  0.00    +0.147 A 
ATOM     24  C   UNL     1      -3.804   1.590  23.329  0.00  0.00    +0.077 A 
ATOM     25  C   UNL     1      -2.691   0.988  22.742  0.00  0.00    +0.122 A 
ATOM     26  C   UNL     1      -2.678  -0.686  24.484  0.00  0.00    +0.051 A 
ATOM     28  C   UNL     1      -2.128  -0.149  23.319  0.00  0.00    +0.049 A 
BRANCH  23  11
ATOM     11  O   UNL     1      -4.312  -0.625  26.208  0.00  0.00    -0.493 OA
ATOM     31  C   UNL     1      -3.491  -1.545  26.922  0.00  0.00    +0.277 C 
ENDBRANCH  23  11
BRANCH  25  12
ATOM     12  O   UNL     1      -2.154   1.511  21.605  0.00  0.00    -0.495 OA
ATOM     35  C   UNL     1      -2.767   2.687  21.080  0.00  0.00    +0.277 C 
ENDBRANCH  25  12
ENDBRANCH   1  21
ENDBRANCH  13   1
ENDBRANCH  17  13
BRANCH  18   7
ATOM      7  O   UNL     1      -0.296   3.502  25.719  0.00  0.00    -0.442 OA
BRANCH   7  22
ATOM     10  O   UNL     1      -0.150   1.236  25.988  0.00  0.00    -0.226 OA
ATOM     14  N   UNL     1       0.990   2.346  24.271  0.00  0.00    -0.251 N 
ATOM     22  C   UNL     1       0.163   2.249  25.373  0.00  0.00    +0.405 C 
ATOM     38  H   UNL     1       1.132   3.281  23.897  0.00  0.00    +0.158 HD
BRANCH  14  27
ATOM     27  C   UNL     1       1.669   1.305  23.597  0.00  0.00    +0.037 A 
ATOM     29  C   UNL     1       3.038   1.125  23.788  0.00  0.00    +0.035 A 
ATOM     30  C   UNL     1       0.967   0.458  22.738  0.00  0.00    +0.023 A 
ATOM     32  C   UNL     1       3.707   0.099  23.122  0.00  0.00    +0.057 A 
ATOM     33  C   UNL     1       1.636  -0.569  22.072  0.00  0.00    +0.002 A 
ATOM     34  C   UNL     1       3.006  -0.749  22.265  0.00  0.00    +0.012 A 
BRANCH  32  36
ATOM      2  F   UNL     1       5.886  -0.136  22.163  0.00  0.00    -0.166 F 
ATOM      3  F   UNL     1       5.755   0.898  24.065  0.00  0.00    -0.166 F 
ATOM      4  F   UNL     1       5.464  -1.255  23.979  0.00  0.00    -0.166 F 
ATOM     36  C   UNL     1       5.172  -0.092  23.327  0.00  0.00    +0.417 C 
ENDBRANCH  32  36
ENDBRANCH  14  27
ENDBRANCH   7  22
ENDBRANCH  18   7
TORSDOF 9
ENDMDL
