MODEL 1
REMARK VINA RESULT:       1.2      0.000      0.000
REMARK  Name = 28962821
REMARK  8 active torsions:
REMARK  status: ('A' for Active; 'I' for Inactive)
REMARK    1  A    between atoms: O_2  and  C_10
REMARK    2  A    between atoms: N_5  and  C_14
REMARK    3  A    between atoms: C_7  and  C_17
REMARK    4  A    between atoms: C_9  and  C_19
REMARK    5  A    between atoms: C_12  and  C_18
REMARK    6  A    between atoms: C_18  and  C_20
REMARK    7  A    between atoms: C_18  and  C_21
REMARK    8  A    between atoms: C_22  and  C_27
REMARK                            x       y       z     vdW  Elec       q    Type
REMARK                         _______ _______ _______ _____ _____    ______ ____
ROOT
ATOM      7  C   UNL     1      -3.020  -1.120  24.849  0.00  0.00    -0.027 C 
ATOM      8  C   UNL     1      -2.629   0.124  23.983  0.00  0.00    +0.028 C 
ATOM      9  C   UNL     1      -1.084   0.396  24.062  0.00  0.00    +0.012 C 
ATOM     10  C   UNL     1      -3.540   1.343  24.304  0.00  0.00    +0.122 C 
ATOM     11  C   UNL     1      -4.525  -1.429  24.660  0.00  0.00    +0.007 C 
ATOM     12  C   UNL     1      -5.045   1.000  24.214  0.00  0.00    +0.029 C 
ATOM     13  C   UNL     1      -2.222  -2.350  24.356  0.00  0.00    +0.009 C 
ATOM     14  C   UNL     1      -0.291  -0.871  23.636  0.00  0.00    +0.076 C 
ATOM     15  C   UNL     1      -5.422  -0.249  25.011  0.00  0.00    +0.007 C 
ATOM     16  C   UNL     1      -0.716  -2.135  24.384  0.00  0.00    +0.023 C 
ATOM     17  C   UNL     1      -2.742  -0.904  26.358  0.00  0.00    +0.011 C 
ATOM     19  C   UNL     1      -0.625   1.591  23.209  0.00  0.00    +0.010 C 
ENDROOT
BRANCH  14   5
ATOM      4  O   UNL     1       1.614  -0.220  21.588  0.00  0.00    -0.270 OA
ATOM      5  N   UNL     1       1.136  -0.694  23.807  0.00  0.00    -0.308 N 
ATOM     22  C   UNL     1       1.975  -0.379  22.751  0.00  0.00    +0.244 C 
ATOM     33  H   UNL     1       1.519  -0.924  24.717  0.00  0.00    +0.149 HD
BRANCH  22  27
ATOM      1  F   UNL     1       6.116  -2.280  24.451  0.00  0.00    -0.205 F 
ATOM     27  C   UNL     1       3.416  -0.258  23.088  0.00  0.00    +0.039 A 
ATOM     28  C   UNL     1       4.103  -1.348  23.622  0.00  0.00    +0.051 A 
ATOM     29  C   UNL     1       4.084   0.948  22.870  0.00  0.00    +0.013 A 
ATOM     30  C   UNL     1       5.457  -1.233  23.938  0.00  0.00    +0.124 A 
ATOM     31  C   UNL     1       5.437   1.063  23.186  0.00  0.00    +0.004 A 
ATOM     32  C   UNL     1       6.124  -0.028  23.720  0.00  0.00    +0.038 A 
ENDBRANCH  22  27
ENDBRANCH  14   5
BRANCH  10   2
ATOM      2  O   UNL     1      -3.300   2.381  23.352  0.00  0.00    -0.391 OA
ATOM     34  H   UNL     1      -2.361   2.626  23.403  0.00  0.00    +0.210 HD
ENDBRANCH  10   2
BRANCH  12  18
ATOM     18  C   UNL     1      -5.924   2.176  24.661  0.00  0.00    +0.078 C 
ATOM     20  C   UNL     1      -5.878   3.309  23.652  0.00  0.00    +0.017 C 
BRANCH  18  21
ATOM      3  O   UNL     1      -6.030   2.334  27.035  0.00  0.00    -0.275 OA
ATOM      6  N   UNL     1      -4.317   3.469  25.978  0.00  0.00    -0.301 N 
ATOM     21  C   UNL     1      -5.438   2.658  26.004  0.00  0.00    +0.219 C 
ATOM     23  C   UNL     1      -3.728   4.020  27.190  0.00  0.00    +0.108 C 
ATOM     24  C   UNL     1      -3.569   3.885  24.796  0.00  0.00    +0.108 C 
ATOM     25  C   UNL     1      -2.374   4.551  26.746  0.00  0.00    +0.020 C 
ATOM     26  C   UNL     1      -2.630   4.969  25.303  0.00  0.00    +0.020 C 
ENDBRANCH  18  21
ENDBRANCH  12  18
TORSDOF 5
ENDMDL
