MODEL 1
REMARK VINA RESULT:      -5.7      0.000      0.000
REMARK  Name = 75536714
REMARK  9 active torsions:
REMARK  status: ('A' for Active; 'I' for Inactive)
REMARK    1  A    between atoms: S_1  and  N_7
REMARK    2  A    between atoms: S_1  and  C_16
REMARK    3  A    between atoms: O_3  and  C_10
REMARK    4  A    between atoms: N_6  and  C_9
REMARK    5  A    between atoms: N_6  and  C_14
REMARK    6  A    between atoms: N_7  and  C_13
REMARK    7  A    between atoms: C_11  and  C_13
REMARK    8  A    between atoms: C_14  and  C_15
REMARK    9  A    between atoms: C_23  and  C_26
REMARK                            x       y       z     vdW  Elec       q    Type
REMARK                         _______ _______ _______ _____ _____    ______ ____
ROOT
ATOM      2  O   UNL     1      -0.701   3.448  25.651  0.00  0.00    -0.371 OA
ATOM      9  C   UNL     1      -0.070   1.768  24.095  0.00  0.00    +0.111 C 
ATOM     10  C   UNL     1      -1.555   2.042  23.951  0.00  0.00    +0.164 C 
ATOM     11  C   UNL     1      -1.661   3.425  24.580  0.00  0.00    +0.164 C 
ATOM     12  C   UNL     1       0.212   2.351  25.470  0.00  0.00    +0.181 C 
ENDROOT
BRANCH  10   3
ATOM      3  O   UNL     1      -1.982   2.043  22.603  0.00  0.00    -0.388 OA
ATOM     29  H   UNL     1      -2.164   2.961  22.340  0.00  0.00    +0.210 HD
ENDBRANCH  10   3
BRANCH   9   6
ATOM      6  N   UNL     1       0.276   0.360  23.996  0.00  0.00    -0.305 NA
ATOM     27  H   UNL     1      -0.582  -0.194  23.988  0.00  0.00    +0.123 HD
BRANCH   6  14
ATOM     14  C   UNL     1       1.026   0.087  22.776  0.00  0.00    +0.118 C 
BRANCH  14  15
ATOM      8  N   UNL     1       4.357  -1.387  23.812  0.00  0.00    -0.263 NA
ATOM     15  C   UNL     1       2.504  -0.038  23.042  0.00  0.00    -0.015 A 
ATOM     17  C   UNL     1       3.369   1.020  22.788  0.00  0.00    +0.008 A 
ATOM     18  C   UNL     1       3.042  -1.210  23.549  0.00  0.00    +0.115 A 
ATOM     24  C   UNL     1       4.728   0.876  23.044  0.00  0.00    +0.020 A 
ATOM     25  C   UNL     1       5.167  -0.337  23.551  0.00  0.00    +0.111 A 
ENDBRANCH  14  15
ENDBRANCH   6  14
ENDBRANCH   9   6
BRANCH  11  13
ATOM     13  C   UNL     1      -3.045   3.733  25.124  0.00  0.00    +0.140 C 
BRANCH  13   7
ATOM      7  N   UNL     1      -4.060   3.012  24.332  0.00  0.00    -0.187 NA
ATOM     28  H   UNL     1      -4.335   3.458  23.448  0.00  0.00    +0.148 HD
BRANCH   7   1
ATOM      1  S   UNL     1      -5.180   1.993  25.107  0.00  0.00    +0.058 S 
ATOM      4  O   UNL     1      -6.409   1.957  24.338  0.00  0.00    -0.153 OA
ATOM      5  O   UNL     1      -5.214   2.318  26.520  0.00  0.00    -0.153 OA
BRANCH   1  16
ATOM     16  C   UNL     1      -4.398   0.415  24.958  0.00  0.00    +0.105 A 
ATOM     19  C   UNL     1      -3.344   0.077  25.808  0.00  0.00    +0.029 A 
ATOM     20  C   UNL     1      -4.831  -0.490  23.990  0.00  0.00    +0.029 A 
ATOM     21  C   UNL     1      -2.724  -1.167  25.690  0.00  0.00    +0.005 A 
ATOM     22  C   UNL     1      -4.211  -1.733  23.871  0.00  0.00    +0.005 A 
ATOM     23  C   UNL     1      -3.158  -2.073  24.721  0.00  0.00    -0.050 A 
ATOM     26  C   UNL     1      -2.495  -3.403  24.594  0.00  0.00    +0.044 C 
ENDBRANCH   1  16
ENDBRANCH   7   1
ENDBRANCH  13   7
ENDBRANCH  11  13
TORSDOF 8
ENDMDL
MODEL 2
REMARK VINA RESULT:      -5.1      1.916      4.006
REMARK  Name = 75536714
REMARK  9 active torsions:
REMARK  status: ('A' for Active; 'I' for Inactive)
REMARK    1  A    between atoms: S_1  and  N_7
REMARK    2  A    between atoms: S_1  and  C_16
REMARK    3  A    between atoms: O_3  and  C_10
REMARK    4  A    between atoms: N_6  and  C_9
REMARK    5  A    between atoms: N_6  and  C_14
REMARK    6  A    between atoms: N_7  and  C_13
REMARK    7  A    between atoms: C_11  and  C_13
REMARK    8  A    between atoms: C_14  and  C_15
REMARK    9  A    between atoms: C_23  and  C_26
REMARK                            x       y       z     vdW  Elec       q    Type
REMARK                         _______ _______ _______ _____ _____    ______ ____
ROOT
ATOM      2  O   UNL     1      -1.874  -2.538  24.051  0.00  0.00    -0.371 OA
ATOM      9  C   UNL     1      -0.104  -1.010  24.466  0.00  0.00    +0.111 C 
ATOM     10  C   UNL     1      -1.282  -0.655  25.354  0.00  0.00    +0.164 C 
ATOM     11  C   UNL     1      -2.051  -1.969  25.359  0.00  0.00    +0.164 C 
ATOM     12  C   UNL     1      -0.774  -1.871  23.408  0.00  0.00    +0.181 C 
ENDROOT
BRANCH  10   3
ATOM      3  O   UNL     1      -0.887  -0.271  26.657  0.00  0.00    -0.388 OA
ATOM     29  H   UNL     1       0.050  -0.017  26.631  0.00  0.00    +0.210 HD
ENDBRANCH  10   3
BRANCH   9   6
ATOM      6  N   UNL     1       0.575   0.148  23.907  0.00  0.00    -0.305 NA
ATOM     27  H   UNL     1       1.183   0.554  24.619  0.00  0.00    +0.123 HD
BRANCH   6  14
ATOM     14  C   UNL     1       1.384  -0.224  22.752  0.00  0.00    +0.118 C 
BRANCH  14  15
ATOM      8  N   UNL     1       4.808  -1.374  23.886  0.00  0.00    -0.263 NA
ATOM     15  C   UNL     1       2.856  -0.205  23.069  0.00  0.00    -0.015 A 
ATOM     17  C   UNL     1       3.619   0.938  22.860  0.00  0.00    +0.008 A 
ATOM     18  C   UNL     1       3.492  -1.325  23.579  0.00  0.00    +0.115 A 
ATOM     24  C   UNL     1       4.976   0.927  23.163  0.00  0.00    +0.020 A 
ATOM     25  C   UNL     1       5.517  -0.244  23.669  0.00  0.00    +0.111 A 
ENDBRANCH  14  15
ENDBRANCH   6  14
ENDBRANCH   9   6
BRANCH  11  13
ATOM     13  C   UNL     1      -3.532  -1.796  25.647  0.00  0.00    +0.140 C 
BRANCH  13   7
ATOM      7  N   UNL     1      -3.830  -0.368  25.874  0.00  0.00    -0.187 NA
ATOM     28  H   UNL     1      -4.088  -0.114  26.836  0.00  0.00    +0.148 HD
BRANCH   7   1
ATOM      1  S   UNL     1      -4.411   0.595  24.599  0.00  0.00    +0.058 S 
ATOM      4  O   UNL     1      -5.768   1.014  24.894  0.00  0.00    -0.153 OA
ATOM      5  O   UNL     1      -4.107  -0.057  23.340  0.00  0.00    -0.153 OA
BRANCH   1  16
ATOM     16  C   UNL     1      -3.366   2.015  24.711  0.00  0.00    +0.105 A 
ATOM     19  C   UNL     1      -2.266   2.140  23.862  0.00  0.00    +0.029 A 
ATOM     20  C   UNL     1      -3.639   3.010  25.650  0.00  0.00    +0.029 A 
ATOM     21  C   UNL     1      -1.439   3.260  23.952  0.00  0.00    +0.005 A 
ATOM     22  C   UNL     1      -2.811   4.129  25.741  0.00  0.00    +0.005 A 
ATOM     23  C   UNL     1      -1.712   4.254  24.891  0.00  0.00    -0.050 A 
ATOM     26  C   UNL     1      -0.827   5.452  24.988  0.00  0.00    +0.044 C 
ENDBRANCH   1  16
ENDBRANCH   7   1
ENDBRANCH  13   7
ENDBRANCH  11  13
TORSDOF 8
ENDMDL
MODEL 3
REMARK VINA RESULT:      -4.5      1.767      3.669
REMARK  Name = 75536714
REMARK  9 active torsions:
REMARK  status: ('A' for Active; 'I' for Inactive)
REMARK    1  A    between atoms: S_1  and  N_7
REMARK    2  A    between atoms: S_1  and  C_16
REMARK    3  A    between atoms: O_3  and  C_10
REMARK    4  A    between atoms: N_6  and  C_9
REMARK    5  A    between atoms: N_6  and  C_14
REMARK    6  A    between atoms: N_7  and  C_13
REMARK    7  A    between atoms: C_11  and  C_13
REMARK    8  A    between atoms: C_14  and  C_15
REMARK    9  A    between atoms: C_23  and  C_26
REMARK                            x       y       z     vdW  Elec       q    Type
REMARK                         _______ _______ _______ _____ _____    ______ ____
ROOT
ATOM      2  O   UNL     1      -2.931   0.125  23.554  0.00  0.00    -0.371 OA
ATOM      9  C   UNL     1      -0.593  -0.204  23.816  0.00  0.00    +0.111 C 
ATOM     10  C   UNL     1      -1.258  -0.282  25.177  0.00  0.00    +0.164 C 
ATOM     11  C   UNL     1      -2.698  -0.585  24.783  0.00  0.00    +0.164 C 
ATOM     12  C   UNL     1      -1.660   0.507  22.999  0.00  0.00    +0.181 C 
ENDROOT
BRANCH  10   3
ATOM      3  O   UNL     1      -0.712  -1.298  25.995  0.00  0.00    -0.388 OA
ATOM     29  H   UNL     1      -1.442  -1.755  26.445  0.00  0.00    +0.210 HD
ENDBRANCH  10   3
BRANCH   9   6
ATOM      6  N   UNL     1       0.676   0.504  23.826  0.00  0.00    -0.305 NA
ATOM     27  H   UNL     1       1.177   0.276  24.686  0.00  0.00    +0.123 HD
BRANCH   6  14
ATOM     14  C   UNL     1       1.500   0.123  22.686  0.00  0.00    +0.118 C 
BRANCH  14  15
ATOM      8  N   UNL     1       4.684  -1.490  23.949  0.00  0.00    -0.263 NA
ATOM     15  C   UNL     1       2.945  -0.058  23.072  0.00  0.00    -0.015 A 
ATOM     17  C   UNL     1       3.859   0.979  22.930  0.00  0.00    +0.008 A 
ATOM     18  C   UNL     1       3.403  -1.263  23.581  0.00  0.00    +0.115 A 
ATOM     24  C   UNL     1       5.187   0.783  23.296  0.00  0.00    +0.020 A 
ATOM     25  C   UNL     1       5.544  -0.459  23.795  0.00  0.00    +0.111 A 
ENDBRANCH  14  15
ENDBRANCH   6  14
ENDBRANCH   9   6
BRANCH  11  13
ATOM     13  C   UNL     1      -3.711  -0.149  25.827  0.00  0.00    +0.140 C 
BRANCH  13   7
ATOM      7  N   UNL     1      -4.977   0.221  25.165  0.00  0.00    -0.187 NA
ATOM     28  H   UNL     1      -5.149  -0.220  24.253  0.00  0.00    +0.148 HD
BRANCH   7   1
ATOM      1  S   UNL     1      -5.696   1.729  25.484  0.00  0.00    +0.058 S 
ATOM      4  O   UNL     1      -6.120   1.775  26.870  0.00  0.00    -0.153 OA
ATOM      5  O   UNL     1      -6.636   2.036  24.424  0.00  0.00    -0.153 OA
BRANCH   1  16
ATOM     16  C   UNL     1      -4.327   2.830  25.296  0.00  0.00    +0.105 A 
ATOM     19  C   UNL     1      -3.717   3.382  26.423  0.00  0.00    +0.029 A 
ATOM     20  C   UNL     1      -3.857   3.149  24.022  0.00  0.00    +0.029 A 
ATOM     21  C   UNL     1      -2.638   4.254  26.276  0.00  0.00    +0.005 A 
ATOM     22  C   UNL     1      -2.779   4.021  23.875  0.00  0.00    +0.005 A 
ATOM     23  C   UNL     1      -2.168   4.573  25.002  0.00  0.00    -0.050 A 
ATOM     26  C   UNL     1      -1.015   5.505  24.844  0.00  0.00    +0.044 C 
ENDBRANCH   1  16
ENDBRANCH   7   1
ENDBRANCH  13   7
ENDBRANCH  11  13
TORSDOF 8
ENDMDL
MODEL 4
REMARK VINA RESULT:      -4.0      1.161      2.048
REMARK  Name = 75536714
REMARK  9 active torsions:
REMARK  status: ('A' for Active; 'I' for Inactive)
REMARK    1  A    between atoms: S_1  and  N_7
REMARK    2  A    between atoms: S_1  and  C_16
REMARK    3  A    between atoms: O_3  and  C_10
REMARK    4  A    between atoms: N_6  and  C_9
REMARK    5  A    between atoms: N_6  and  C_14
REMARK    6  A    between atoms: N_7  and  C_13
REMARK    7  A    between atoms: C_11  and  C_13
REMARK    8  A    between atoms: C_14  and  C_15
REMARK    9  A    between atoms: C_23  and  C_26
REMARK                            x       y       z     vdW  Elec       q    Type
REMARK                         _______ _______ _______ _____ _____    ______ ____
ROOT
ATOM      2  O   UNL     1      -1.916   1.878  23.631  0.00  0.00    -0.371 OA
ATOM      9  C   UNL     1       0.355   1.264  23.954  0.00  0.00    +0.111 C 
ATOM     10  C   UNL     1      -0.037   2.280  25.011  0.00  0.00    +0.164 C 
ATOM     11  C   UNL     1      -1.554   2.147  24.996  0.00  0.00    +0.164 C 
ATOM     12  C   UNL     1      -0.736   1.472  22.917  0.00  0.00    +0.181 C 
ENDROOT
BRANCH  10   3
ATOM      3  O   UNL     1       0.505   1.983  26.283  0.00  0.00    -0.388 OA
ATOM     29  H   UNL     1       0.982   1.138  26.223  0.00  0.00    +0.210 HD
ENDBRANCH  10   3
BRANCH   9   6
ATOM      6  N   UNL     1       1.692   1.465  23.419  0.00  0.00    -0.305 NA
ATOM     27  H   UNL     1       2.328   1.684  24.186  0.00  0.00    +0.123 HD
BRANCH   6  14
ATOM     14  C   UNL     1       2.170   0.269  22.736  0.00  0.00    +0.118 C 
BRANCH  14  15
ATOM      8  N   UNL     1       5.881   0.521  23.442  0.00  0.00    -0.263 NA
ATOM     15  C   UNL     1       3.562  -0.107  23.172  0.00  0.00    -0.015 A 
ATOM     17  C   UNL     1       3.836  -1.369  23.686  0.00  0.00    +0.008 A 
ATOM     18  C   UNL     1       4.610   0.795  23.071  0.00  0.00    +0.115 A 
ATOM     24  C   UNL     1       5.131  -1.688  24.079  0.00  0.00    +0.020 A 
ATOM     25  C   UNL     1       6.109  -0.716  23.938  0.00  0.00    +0.111 A 
ENDBRANCH  14  15
ENDBRANCH   6  14
ENDBRANCH   9   6
BRANCH  11  13
ATOM     13  C   UNL     1      -2.271   3.395  25.481  0.00  0.00    +0.140 C 
BRANCH  13   7
ATOM      7  N   UNL     1      -3.504   3.012  26.196  0.00  0.00    -0.187 NA
ATOM     28  H   UNL     1      -3.383   2.737  27.179  0.00  0.00    +0.148 HD
BRANCH   7   1
ATOM      1  S   UNL     1      -4.825   2.375  25.334  0.00  0.00    +0.058 S 
ATOM      4  O   UNL     1      -4.886   2.994  24.024  0.00  0.00    -0.153 OA
ATOM      5  O   UNL     1      -5.992   2.374  26.194  0.00  0.00    -0.153 OA
BRANCH   1  16
ATOM     16  C   UNL     1      -4.339   0.690  25.119  0.00  0.00    +0.105 A 
ATOM     19  C   UNL     1      -4.611   0.034  23.918  0.00  0.00    +0.029 A 
ATOM     20  C   UNL     1      -3.687   0.014  26.150  0.00  0.00    +0.029 A 
ATOM     21  C   UNL     1      -4.230  -1.297  23.748  0.00  0.00    +0.005 A 
ATOM     22  C   UNL     1      -3.307  -1.317  25.981  0.00  0.00    +0.005 A 
ATOM     23  C   UNL     1      -3.578  -1.972  24.779  0.00  0.00    -0.050 A 
ATOM     26  C   UNL     1      -3.171  -3.396  24.598  0.00  0.00    +0.044 C 
ENDBRANCH   1  16
ENDBRANCH   7   1
ENDBRANCH  13   7
ENDBRANCH  11  13
TORSDOF 8
ENDMDL
MODEL 5
REMARK VINA RESULT:      -3.6      2.535      5.691
REMARK  Name = 75536714
REMARK  9 active torsions:
REMARK  status: ('A' for Active; 'I' for Inactive)
REMARK    1  A    between atoms: S_1  and  N_7
REMARK    2  A    between atoms: S_1  and  C_16
REMARK    3  A    between atoms: O_3  and  C_10
REMARK    4  A    between atoms: N_6  and  C_9
REMARK    5  A    between atoms: N_6  and  C_14
REMARK    6  A    between atoms: N_7  and  C_13
REMARK    7  A    between atoms: C_11  and  C_13
REMARK    8  A    between atoms: C_14  and  C_15
REMARK    9  A    between atoms: C_23  and  C_26
REMARK                            x       y       z     vdW  Elec       q    Type
REMARK                         _______ _______ _______ _____ _____    ______ ____
ROOT
ATOM      2  O   UNL     1      -2.581   3.444  23.580  0.00  0.00    -0.371 OA
ATOM      9  C   UNL     1      -4.732   2.635  24.179  0.00  0.00    +0.111 C 
ATOM     10  C   UNL     1      -4.158   3.420  25.344  0.00  0.00    +0.164 C 
ATOM     11  C   UNL     1      -3.107   4.266  24.637  0.00  0.00    +0.164 C 
ATOM     12  C   UNL     1      -3.481   2.343  23.367  0.00  0.00    +0.181 C 
ENDROOT
BRANCH  10   3
ATOM      3  O   UNL     1      -5.127   4.220  25.993  0.00  0.00    -0.388 OA
ATOM     29  H   UNL     1      -4.691   5.028  26.314  0.00  0.00    +0.210 HD
ENDBRANCH  10   3
BRANCH   9   6
ATOM      6  N   UNL     1      -5.441   1.431  24.580  0.00  0.00    -0.305 NA
ATOM     27  H   UNL     1      -5.512   0.803  23.778  0.00  0.00    +0.123 HD
BRANCH   6  14
ATOM     14  C   UNL     1      -4.740   0.743  25.657  0.00  0.00    +0.118 C 
BRANCH  14  15
ATOM      8  N   UNL     1      -4.100  -2.331  23.541  0.00  0.00    -0.263 NA
ATOM     15  C   UNL     1      -4.176  -0.579  25.205  0.00  0.00    -0.015 A 
ATOM     17  C   UNL     1      -3.249  -1.265  25.981  0.00  0.00    +0.008 A 
ATOM     18  C   UNL     1      -4.566  -1.149  24.004  0.00  0.00    +0.115 A 
ATOM     24  C   UNL     1      -2.746  -2.483  25.539  0.00  0.00    +0.020 A 
ATOM     25  C   UNL     1      -3.199  -2.968  24.323  0.00  0.00    +0.111 A 
ENDBRANCH  14  15
ENDBRANCH   6  14
ENDBRANCH   9   6
BRANCH  11  13
ATOM     13  C   UNL     1      -1.979   4.710  25.551  0.00  0.00    +0.140 C 
BRANCH  13   7
ATOM      7  N   UNL     1      -0.742   3.985  25.200  0.00  0.00    -0.187 NA
ATOM     28  H   UNL     1      -0.402   4.123  24.239  0.00  0.00    +0.148 HD
BRANCH   7   1
ATOM      1  S   UNL     1      -0.345   2.537  25.999  0.00  0.00    +0.058 S 
ATOM      4  O   UNL     1      -1.553   1.938  26.533  0.00  0.00    -0.153 OA
ATOM      5  O   UNL     1       0.795   2.772  26.863  0.00  0.00    -0.153 OA
BRANCH   1  16
ATOM     16  C   UNL     1       0.218   1.528  24.662  0.00  0.00    +0.105 A 
ATOM     19  C   UNL     1       1.422   1.826  24.023  0.00  0.00    +0.029 A 
ATOM     20  C   UNL     1      -0.541   0.436  24.244  0.00  0.00    +0.029 A 
ATOM     21  C   UNL     1       1.867   1.032  22.966  0.00  0.00    +0.005 A 
ATOM     22  C   UNL     1      -0.098  -0.358  23.186  0.00  0.00    +0.005 A 
ATOM     23  C   UNL     1       1.107  -0.060  22.548  0.00  0.00    -0.050 A 
ATOM     26  C   UNL     1       1.582  -0.910  21.417  0.00  0.00    +0.044 C 
ENDBRANCH   1  16
ENDBRANCH   7   1
ENDBRANCH  13   7
ENDBRANCH  11  13
TORSDOF 8
ENDMDL
MODEL 6
REMARK VINA RESULT:      -3.4      3.215      6.950
REMARK  Name = 75536714
REMARK  9 active torsions:
REMARK  status: ('A' for Active; 'I' for Inactive)
REMARK    1  A    between atoms: S_1  and  N_7
REMARK    2  A    between atoms: S_1  and  C_16
REMARK    3  A    between atoms: O_3  and  C_10
REMARK    4  A    between atoms: N_6  and  C_9
REMARK    5  A    between atoms: N_6  and  C_14
REMARK    6  A    between atoms: N_7  and  C_13
REMARK    7  A    between atoms: C_11  and  C_13
REMARK    8  A    between atoms: C_14  and  C_15
REMARK    9  A    between atoms: C_23  and  C_26
REMARK                            x       y       z     vdW  Elec       q    Type
REMARK                         _______ _______ _______ _____ _____    ______ ____
ROOT
ATOM      2  O   UNL     1      -1.507  -1.109  26.289  0.00  0.00    -0.371 OA
ATOM      9  C   UNL     1      -3.623  -1.428  25.256  0.00  0.00    +0.111 C 
ATOM     10  C   UNL     1      -2.557  -2.115  24.423  0.00  0.00    +0.164 C 
ATOM     11  C   UNL     1      -1.440  -2.272  25.446  0.00  0.00    +0.164 C 
ATOM     12  C   UNL     1      -2.784  -0.475  26.092  0.00  0.00    +0.181 C 
ENDROOT
BRANCH  10   3
ATOM      3  O   UNL     1      -2.983  -3.364  23.913  0.00  0.00    -0.388 OA
ATOM     29  H   UNL     1      -2.243  -3.764  23.426  0.00  0.00    +0.210 HD
ENDBRANCH  10   3
BRANCH   9   6
ATOM      6  N   UNL     1      -4.634  -0.747  24.465  0.00  0.00    -0.305 NA
ATOM     27  H   UNL     1      -5.408  -0.476  25.074  0.00  0.00    +0.123 HD
BRANCH   6  14
ATOM     14  C   UNL     1      -4.090   0.449  23.834  0.00  0.00    +0.118 C 
BRANCH  14  15
ATOM      8  N   UNL     1      -5.987   2.745  26.172  0.00  0.00    -0.263 NA
ATOM     15  C   UNL     1      -4.617   1.709  24.470  0.00  0.00    -0.015 A 
ATOM     17  C   UNL     1      -4.258   2.961  23.985  0.00  0.00    +0.008 A 
ATOM     18  C   UNL     1      -5.476   1.655  25.556  0.00  0.00    +0.115 A 
ATOM     24  C   UNL     1      -4.761   4.106  24.592  0.00  0.00    +0.020 A 
ATOM     25  C   UNL     1      -5.614   3.945  25.673  0.00  0.00    +0.111 A 
ENDBRANCH  14  15
ENDBRANCH   6  14
ENDBRANCH   9   6
BRANCH  11  13
ATOM     13  C   UNL     1      -0.061  -2.372  24.819  0.00  0.00    +0.140 C 
BRANCH  13   7
ATOM      7  N   UNL     1       0.596  -1.051  24.854  0.00  0.00    -0.187 NA
ATOM     28  H   UNL     1       0.603  -0.580  25.768  0.00  0.00    +0.148 HD
BRANCH   7   1
ATOM      1  S   UNL     1       0.661  -0.094  23.450  0.00  0.00    +0.058 S 
ATOM      4  O   UNL     1      -0.261  -0.626  22.464  0.00  0.00    -0.153 OA
ATOM      5  O   UNL     1       2.049   0.137  23.100  0.00  0.00    -0.153 OA
BRANCH   1  16
ATOM     16  C   UNL     1       0.010   1.444  24.029  0.00  0.00    +0.105 A 
ATOM     19  C   UNL     1       0.207   1.828  25.355  0.00  0.00    +0.029 A 
ATOM     20  C   UNL     1      -0.702   2.271  23.161  0.00  0.00    +0.029 A 
ATOM     21  C   UNL     1      -0.308   3.041  25.814  0.00  0.00    +0.005 A 
ATOM     22  C   UNL     1      -1.218   3.483  23.620  0.00  0.00    +0.005 A 
ATOM     23  C   UNL     1      -1.020   3.868  24.947  0.00  0.00    -0.050 A 
ATOM     26  C   UNL     1      -1.572   5.165  25.437  0.00  0.00    +0.044 C 
ENDBRANCH   1  16
ENDBRANCH   7   1
ENDBRANCH  13   7
ENDBRANCH  11  13
TORSDOF 8
ENDMDL
MODEL 7
REMARK VINA RESULT:      -3.4      2.115      6.843
REMARK  Name = 75536714
REMARK  9 active torsions:
REMARK  status: ('A' for Active; 'I' for Inactive)
REMARK    1  A    between atoms: S_1  and  N_7
REMARK    2  A    between atoms: S_1  and  C_16
REMARK    3  A    between atoms: O_3  and  C_10
REMARK    4  A    between atoms: N_6  and  C_9
REMARK    5  A    between atoms: N_6  and  C_14
REMARK    6  A    between atoms: N_7  and  C_13
REMARK    7  A    between atoms: C_11  and  C_13
REMARK    8  A    between atoms: C_14  and  C_15
REMARK    9  A    between atoms: C_23  and  C_26
REMARK                            x       y       z     vdW  Elec       q    Type
REMARK                         _______ _______ _______ _____ _____    ______ ____
ROOT
ATOM      2  O   UNL     1      -1.648   2.125  22.806  0.00  0.00    -0.371 OA
ATOM      9  C   UNL     1      -3.661   2.625  23.963  0.00  0.00    +0.111 C 
ATOM     10  C   UNL     1      -2.539   2.464  24.972  0.00  0.00    +0.164 C 
ATOM     11  C   UNL     1      -1.318   2.685  24.089  0.00  0.00    +0.164 C 
ATOM     12  C   UNL     1      -3.072   1.934  22.744  0.00  0.00    +0.181 C 
ENDROOT
BRANCH  10   3
ATOM      3  O   UNL     1      -2.607   3.409  26.021  0.00  0.00    -0.388 OA
ATOM     29  H   UNL     1      -3.452   3.885  25.951  0.00  0.00    +0.210 HD
ENDBRANCH  10   3
BRANCH   9   6
ATOM      6  N   UNL     1      -4.920   2.039  24.393  0.00  0.00    -0.305 NA
ATOM     27  H   UNL     1      -5.319   1.504  23.621  0.00  0.00    +0.123 HD
BRANCH   6  14
ATOM     14  C   UNL     1      -4.725   1.151  25.532  0.00  0.00    +0.118 C 
BRANCH  14  15
ATOM      8  N   UNL     1      -2.409  -1.841  25.381  0.00  0.00    -0.263 NA
ATOM     15  C   UNL     1      -4.140  -0.174  25.116  0.00  0.00    -0.015 A 
ATOM     17  C   UNL     1      -4.741  -0.943  24.127  0.00  0.00    +0.008 A 
ATOM     18  C   UNL     1      -2.986  -0.663  25.708  0.00  0.00    +0.115 A 
ATOM     24  C   UNL     1      -4.178  -2.162  23.764  0.00  0.00    +0.020 A 
ATOM     25  C   UNL     1      -3.023  -2.562  24.415  0.00  0.00    +0.111 A 
ENDBRANCH  14  15
ENDBRANCH   6  14
ENDBRANCH   9   6
BRANCH  11  13
ATOM     13  C   UNL     1      -0.060   2.027  24.628  0.00  0.00    +0.140 C 
BRANCH  13   7
ATOM      7  N   UNL     1       0.825   1.657  23.506  0.00  0.00    -0.187 NA
ATOM     28  H   UNL     1       0.908   2.354  22.755  0.00  0.00    +0.148 HD
BRANCH   7   1
ATOM      1  S   UNL     1       1.075   0.020  23.122  0.00  0.00    +0.058 S 
ATOM      4  O   UNL     1       0.704  -0.212  21.739  0.00  0.00    -0.153 OA
ATOM      5  O   UNL     1       0.513  -0.803  24.175  0.00  0.00    -0.153 OA
BRANCH   1  16
ATOM     16  C   UNL     1       2.833  -0.116  23.243  0.00  0.00    +0.105 A 
ATOM     19  C   UNL     1       3.410  -1.295  23.717  0.00  0.00    +0.029 A 
ATOM     20  C   UNL     1       3.644   0.955  22.867  0.00  0.00    +0.029 A 
ATOM     21  C   UNL     1       4.798  -1.402  23.815  0.00  0.00    +0.005 A 
ATOM     22  C   UNL     1       5.031   0.848  22.966  0.00  0.00    +0.005 A 
ATOM     23  C   UNL     1       5.608  -0.331  23.440  0.00  0.00    -0.050 A 
ATOM     26  C   UNL     1       7.092  -0.445  23.545  0.00  0.00    +0.044 C 
ENDBRANCH   1  16
ENDBRANCH   7   1
ENDBRANCH  13   7
ENDBRANCH  11  13
TORSDOF 8
ENDMDL
MODEL 8
REMARK VINA RESULT:      -3.0      1.640      2.286
REMARK  Name = 75536714
REMARK  9 active torsions:
REMARK  status: ('A' for Active; 'I' for Inactive)
REMARK    1  A    between atoms: S_1  and  N_7
REMARK    2  A    between atoms: S_1  and  C_16
REMARK    3  A    between atoms: O_3  and  C_10
REMARK    4  A    between atoms: N_6  and  C_9
REMARK    5  A    between atoms: N_6  and  C_14
REMARK    6  A    between atoms: N_7  and  C_13
REMARK    7  A    between atoms: C_11  and  C_13
REMARK    8  A    between atoms: C_14  and  C_15
REMARK    9  A    between atoms: C_23  and  C_26
REMARK                            x       y       z     vdW  Elec       q    Type
REMARK                         _______ _______ _______ _____ _____    ______ ____
ROOT
ATOM      2  O   UNL     1      -2.146   3.359  26.993  0.00  0.00    -0.371 OA
ATOM      9  C   UNL     1      -0.589   3.761  25.244  0.00  0.00    +0.111 C 
ATOM     10  C   UNL     1      -1.965   4.215  24.794  0.00  0.00    +0.164 C 
ATOM     11  C   UNL     1      -2.669   4.387  26.134  0.00  0.00    +0.164 C 
ATOM     12  C   UNL     1      -0.938   2.843  26.404  0.00  0.00    +0.181 C 
ENDROOT
BRANCH  10   3
ATOM      3  O   UNL     1      -1.929   5.423  24.060  0.00  0.00    -0.388 OA
ATOM     29  H   UNL     1      -2.345   5.268  23.195  0.00  0.00    +0.210 HD
ENDBRANCH  10   3
BRANCH   9   6
ATOM      6  N   UNL     1       0.175   3.093  24.204  0.00  0.00    -0.305 NA
ATOM     27  H   UNL     1       1.017   3.635  24.007  0.00  0.00    +0.123 HD
BRANCH   6  14
ATOM     14  C   UNL     1       0.564   1.750  24.617  0.00  0.00    +0.118 C 
BRANCH  14  15
ATOM      8  N   UNL     1       3.474   0.738  22.416  0.00  0.00    -0.263 NA
ATOM     15  C   UNL     1       1.362   1.044  23.552  0.00  0.00    -0.015 A 
ATOM     17  C   UNL     1       0.775   0.083  22.737  0.00  0.00    +0.008 A 
ATOM     18  C   UNL     1       2.702   1.333  23.354  0.00  0.00    +0.115 A 
ATOM     24  C   UNL     1       1.536  -0.552  21.762  0.00  0.00    +0.020 A 
ATOM     25  C   UNL     1       2.869  -0.191  21.643  0.00  0.00    +0.111 A 
ENDBRANCH  14  15
ENDBRANCH   6  14
ENDBRANCH   9   6
BRANCH  11  13
ATOM     13  C   UNL     1      -4.179   4.256  26.039  0.00  0.00    +0.140 C 
BRANCH  13   7
ATOM      7  N   UNL     1      -4.554   2.828  26.033  0.00  0.00    -0.187 NA
ATOM     28  H   UNL     1      -4.087   2.241  26.736  0.00  0.00    +0.148 HD
BRANCH   7   1
ATOM      1  S   UNL     1      -5.093   2.095  24.596  0.00  0.00    +0.058 S 
ATOM      4  O   UNL     1      -4.680   2.901  23.462  0.00  0.00    -0.153 OA
ATOM      5  O   UNL     1      -6.483   1.716  24.752  0.00  0.00    -0.153 OA
BRANCH   1  16
ATOM     16  C   UNL     1      -4.148   0.601  24.575  0.00  0.00    +0.105 A 
ATOM     19  C   UNL     1      -4.745  -0.594  24.173  0.00  0.00    +0.029 A 
ATOM     20  C   UNL     1      -2.809   0.617  24.962  0.00  0.00    +0.029 A 
ATOM     21  C   UNL     1      -4.001  -1.774  24.159  0.00  0.00    +0.005 A 
ATOM     22  C   UNL     1      -2.065  -0.563  24.949  0.00  0.00    +0.005 A 
ATOM     23  C   UNL     1      -2.661  -1.759  24.546  0.00  0.00    -0.050 A 
ATOM     26  C   UNL     1      -1.866  -3.020  24.532  0.00  0.00    +0.044 C 
ENDBRANCH   1  16
ENDBRANCH   7   1
ENDBRANCH  13   7
ENDBRANCH  11  13
TORSDOF 8
ENDMDL
MODEL 9
REMARK VINA RESULT:      -2.9      2.587      3.509
REMARK  Name = 75536714
REMARK  9 active torsions:
REMARK  status: ('A' for Active; 'I' for Inactive)
REMARK    1  A    between atoms: S_1  and  N_7
REMARK    2  A    between atoms: S_1  and  C_16
REMARK    3  A    between atoms: O_3  and  C_10
REMARK    4  A    between atoms: N_6  and  C_9
REMARK    5  A    between atoms: N_6  and  C_14
REMARK    6  A    between atoms: N_7  and  C_13
REMARK    7  A    between atoms: C_11  and  C_13
REMARK    8  A    between atoms: C_14  and  C_15
REMARK    9  A    between atoms: C_23  and  C_26
REMARK                            x       y       z     vdW  Elec       q    Type
REMARK                         _______ _______ _______ _____ _____    ______ ____
ROOT
ATOM      2  O   UNL     1      -1.091  -0.102  25.532  0.00  0.00    -0.371 OA
ATOM      9  C   UNL     1       0.439   0.024  23.719  0.00  0.00    +0.111 C 
ATOM     10  C   UNL     1       0.344   1.386  24.381  0.00  0.00    +0.164 C 
ATOM     11  C   UNL     1      -0.204   1.008  25.751  0.00  0.00    +0.164 C 
ATOM     12  C   UNL     1      -0.827  -0.647  24.227  0.00  0.00    +0.181 C 
ENDROOT
BRANCH  10   3
ATOM      3  O   UNL     1       1.597   2.036  24.476  0.00  0.00    -0.388 OA
ATOM     29  H   UNL     1       1.614   2.548  25.302  0.00  0.00    +0.210 HD
ENDBRANCH  10   3
BRANCH   9   6
ATOM      6  N   UNL     1       0.505   0.084  22.268  0.00  0.00    -0.305 NA
ATOM     27  H   UNL     1       0.637   1.054  21.981  0.00  0.00    +0.123 HD
BRANCH   6  14
ATOM     14  C   UNL     1       1.613  -0.715  21.759  0.00  0.00    +0.118 C 
BRANCH  14  15
ATOM      8  N   UNL     1       4.627  -1.142  24.011  0.00  0.00    -0.263 NA
ATOM     15  C   UNL     1       2.900  -0.415  22.483  0.00  0.00    -0.015 A 
ATOM     17  C   UNL     1       3.545   0.806  22.322  0.00  0.00    +0.008 A 
ATOM     18  C   UNL     1       3.477  -1.347  23.331  0.00  0.00    +0.115 A 
ATOM     24  C   UNL     1       4.731   1.055  23.004  0.00  0.00    +0.020 A 
ATOM     25  C   UNL     1       5.226   0.057  23.828  0.00  0.00    +0.111 A 
ENDBRANCH  14  15
ENDBRANCH   6  14
ENDBRANCH   9   6
BRANCH  11  13
ATOM     13  C   UNL     1      -0.956   2.139  26.430  0.00  0.00    +0.140 C 
BRANCH  13   7
ATOM      7  N   UNL     1      -0.420   3.436  25.971  0.00  0.00    -0.187 NA
ATOM     28  H   UNL     1       0.172   3.938  26.645  0.00  0.00    +0.148 HD
BRANCH   7   1
ATOM      1  S   UNL     1      -1.263   4.341  24.803  0.00  0.00    +0.058 S 
ATOM      4  O   UNL     1      -0.655   4.131  23.503  0.00  0.00    -0.153 OA
ATOM      5  O   UNL     1      -1.466   5.686  25.304  0.00  0.00    -0.153 OA
BRANCH   1  16
ATOM     16  C   UNL     1      -2.842   3.547  24.800  0.00  0.00    +0.105 A 
ATOM     19  C   UNL     1      -3.818   3.933  25.718  0.00  0.00    +0.029 A 
ATOM     20  C   UNL     1      -3.111   2.532  23.881  0.00  0.00    +0.029 A 
ATOM     21  C   UNL     1      -5.064   3.305  25.718  0.00  0.00    +0.005 A 
ATOM     22  C   UNL     1      -4.356   1.904  23.882  0.00  0.00    +0.005 A 
ATOM     23  C   UNL     1      -5.333   2.291  24.800  0.00  0.00    -0.050 A 
ATOM     26  C   UNL     1      -6.665   1.618  24.800  0.00  0.00    +0.044 C 
ENDBRANCH   1  16
ENDBRANCH   7   1
ENDBRANCH  13   7
ENDBRANCH  11  13
TORSDOF 8
ENDMDL
MODEL 10
REMARK VINA RESULT:      -2.7      2.490      7.233
REMARK  Name = 75536714
REMARK  9 active torsions:
REMARK  status: ('A' for Active; 'I' for Inactive)
REMARK    1  A    between atoms: S_1  and  N_7
REMARK    2  A    between atoms: S_1  and  C_16
REMARK    3  A    between atoms: O_3  and  C_10
REMARK    4  A    between atoms: N_6  and  C_9
REMARK    5  A    between atoms: N_6  and  C_14
REMARK    6  A    between atoms: N_7  and  C_13
REMARK    7  A    between atoms: C_11  and  C_13
REMARK    8  A    between atoms: C_14  and  C_15
REMARK    9  A    between atoms: C_23  and  C_26
REMARK                            x       y       z     vdW  Elec       q    Type
REMARK                         _______ _______ _______ _____ _____    ______ ____
ROOT
ATOM      2  O   UNL     1      -3.105  -2.049  23.834  0.00  0.00    -0.371 OA
ATOM      9  C   UNL     1      -4.091   0.001  24.518  0.00  0.00    +0.111 C 
ATOM     10  C   UNL     1      -2.690  -0.090  25.094  0.00  0.00    +0.164 C 
ATOM     11  C   UNL     1      -2.059  -1.121  24.168  0.00  0.00    +0.164 C 
ATOM     12  C   UNL     1      -4.370  -1.452  24.172  0.00  0.00    +0.181 C 
ENDROOT
BRANCH  10   3
ATOM      3  O   UNL     1      -2.002   1.145  25.055  0.00  0.00    -0.388 OA
ATOM     29  H   UNL     1      -1.419   1.146  24.278  0.00  0.00    +0.210 HD
ENDBRANCH  10   3
BRANCH   9   6
ATOM      6  N   UNL     1      -5.066   0.561  25.439  0.00  0.00    -0.305 NA
ATOM     27  H   UNL     1      -4.640   0.648  26.363  0.00  0.00    +0.123 HD
BRANCH   6  14
ATOM     14  C   UNL     1      -5.511   1.877  24.999  0.00  0.00    +0.118 C 
BRANCH  14  15
ATOM      8  N   UNL     1      -2.767   4.261  23.939  0.00  0.00    -0.263 NA
ATOM     15  C   UNL     1      -4.407   2.899  25.079  0.00  0.00    -0.015 A 
ATOM     17  C   UNL     1      -4.000   3.418  26.302  0.00  0.00    +0.008 A 
ATOM     18  C   UNL     1      -3.765   3.348  23.937  0.00  0.00    +0.115 A 
ATOM     24  C   UNL     1      -2.978   4.360  26.346  0.00  0.00    +0.020 A 
ATOM     25  C   UNL     1      -2.400   4.744  25.147  0.00  0.00    +0.111 A 
ENDBRANCH  14  15
ENDBRANCH   6  14
ENDBRANCH   9   6
BRANCH  11  13
ATOM     13  C   UNL     1      -0.896  -1.864  24.801  0.00  0.00    +0.140 C 
BRANCH  13   7
ATOM      7  N   UNL     1       0.317  -1.025  24.747  0.00  0.00    -0.187 NA
ATOM     28  H   UNL     1       0.657  -0.673  25.652  0.00  0.00    +0.148 HD
BRANCH   7   1
ATOM      1  S   UNL     1       0.672  -0.129  23.346  0.00  0.00    +0.058 S 
ATOM      4  O   UNL     1       0.246   1.245  23.533  0.00  0.00    -0.153 OA
ATOM      5  O   UNL     1       0.233  -0.877  22.184  0.00  0.00    -0.153 OA
BRANCH   1  16
ATOM     16  C   UNL     1       2.440  -0.154  23.339  0.00  0.00    +0.105 A 
ATOM     19  C   UNL     1       3.150   0.960  22.891  0.00  0.00    +0.029 A 
ATOM     20  C   UNL     1       3.124  -1.287  23.777  0.00  0.00    +0.029 A 
ATOM     21  C   UNL     1       4.545   0.941  22.883  0.00  0.00    +0.005 A 
ATOM     22  C   UNL     1       4.518  -1.307  23.768  0.00  0.00    +0.005 A 
ATOM     23  C   UNL     1       5.229  -0.193  23.321  0.00  0.00    -0.050 A 
ATOM     26  C   UNL     1       6.720  -0.214  23.312  0.00  0.00    +0.044 C 
ENDBRANCH   1  16
ENDBRANCH   7   1
ENDBRANCH  13   7
ENDBRANCH  11  13
TORSDOF 8
ENDMDL
