MODEL 1
REMARK VINA RESULT:       1.4      0.000      0.000
REMARK  Name = 28960189
REMARK  11 active torsions:
REMARK  status: ('A' for Active; 'I' for Inactive)
REMARK    1  A    between atoms: O_2  and  C_23
REMARK    2  A    between atoms: N_6  and  C_17
REMARK    3  A    between atoms: N_6  and  C_24
REMARK    4  A    between atoms: N_6  and  C_25
REMARK    5  A    between atoms: N_7  and  C_26
REMARK    6  A    between atoms: C_8  and  C_13
REMARK    7  A    between atoms: C_9  and  C_15
REMARK    8  A    between atoms: C_13  and  C_17
REMARK    9  A    between atoms: C_14  and  C_16
REMARK   10  A    between atoms: C_15  and  C_23
REMARK   11  A    between atoms: C_24  and  C_26
REMARK                            x       y       z     vdW  Elec       q    Type
REMARK                         _______ _______ _______ _____ _____    ______ ____
ROOT
ATOM      1  O   UNL     1      -4.703  -0.012  26.470  0.00  0.00    -0.275 OA
ATOM      5  N   UNL     1      -4.596   1.482  24.695  0.00  0.00    -0.301 N 
ATOM      8  C   UNL     1      -3.339   3.046  23.228  0.00  0.00    +0.012 C 
ATOM      9  C   UNL     1      -3.982   4.228  24.000  0.00  0.00    +0.006 C 
ATOM     10  C   UNL     1      -4.257   1.812  23.304  0.00  0.00    +0.111 C 
ATOM     11  C   UNL     1      -4.367   3.823  25.434  0.00  0.00    +0.023 C 
ATOM     12  C   UNL     1      -5.234   2.567  25.442  0.00  0.00    +0.108 C 
ATOM     16  C   UNL     1      -4.384   0.248  25.307  0.00  0.00    +0.219 C 
ENDROOT
BRANCH  16  14
ATOM     14  C   UNL     1      -3.723  -0.808  24.477  0.00  0.00    +0.075 C 
ATOM     18  C   UNL     1      -2.644  -1.517  25.298  0.00  0.00    +0.013 C 
ATOM     19  C   UNL     1      -4.783  -1.792  23.976  0.00  0.00    +0.013 C 
ATOM     20  C   UNL     1      -2.017  -2.670  24.521  0.00  0.00    +0.001 C 
ATOM     21  C   UNL     1      -4.153  -2.949  23.203  0.00  0.00    +0.001 C 
ATOM     22  C   UNL     1      -3.074  -3.653  24.022  0.00  0.00    +0.000 C 
ENDBRANCH  16  14
BRANCH   8  13
ATOM     13  C   UNL     1      -1.925   2.689  23.701  0.00  0.00    +0.024 C 
BRANCH  13  17
ATOM     17  C   UNL     1      -1.382   1.445  23.017  0.00  0.00    +0.105 C 
BRANCH  17   6
ATOM      6  N   UNL     1      -0.425   0.770  23.862  0.00  0.00    -0.329 N 
BRANCH   6  25
ATOM     25  C   UNL     1      -0.191   1.187  25.181  0.00  0.00    +0.030 A 
ATOM     29  C   UNL     1      -0.588   0.381  26.248  0.00  0.00    +0.023 A 
ATOM     30  C   UNL     1       0.440   2.406  25.424  0.00  0.00    +0.023 A 
ATOM     33  C   UNL     1      -0.355   0.796  27.559  0.00  0.00    +0.002 A 
ATOM     34  C   UNL     1       0.673   2.821  26.736  0.00  0.00    +0.002 A 
ATOM     35  C   UNL     1       0.276   2.016  27.803  0.00  0.00    +0.000 A 
ENDBRANCH   6  25
BRANCH   6  24
ATOM     24  C   UNL     1       0.316  -0.367  23.312  0.00  0.00    +0.120 C 
BRANCH  24  26
ATOM     26  C   UNL     1       1.465   0.138  22.450  0.00  0.00    +0.103 C 
BRANCH  26   7
ATOM      4  O   UNL     1       5.515  -0.466  23.369  0.00  0.00    -0.377 OA
ATOM      7  N   UNL     1       2.725   0.063  23.187  0.00  0.00    -0.297 NA
ATOM     27  C   UNL     1       3.719   0.982  22.616  0.00  0.00    +0.112 C 
ATOM     28  C   UNL     1       3.248  -1.309  23.187  0.00  0.00    +0.112 C 
ATOM     31  C   UNL     1       5.028   0.877  23.394  0.00  0.00    +0.175 C 
ATOM     32  C   UNL     1       4.568  -1.360  23.952  0.00  0.00    +0.175 C 
ENDBRANCH  26   7
ENDBRANCH  24  26
ENDBRANCH   6  24
ENDBRANCH  17   6
ENDBRANCH  13  17
ENDBRANCH   8  13
BRANCH   9  15
ATOM     15  C   UNL     1      -3.110   5.483  24.011  0.00  0.00    +0.124 C 
BRANCH  15  23
ATOM      3  O   UNL     1      -0.793   5.622  24.754  0.00  0.00    -0.251 OA
ATOM     23  C   UNL     1      -1.964   5.354  24.977  0.00  0.00    +0.305 C 
BRANCH  23   2
ATOM      2  O   UNL     1      -2.419   4.885  26.167  0.00  0.00    -0.481 OA
ATOM     36  H   UNL     1      -2.945   4.065  26.059  0.00  0.00    +0.295 HD
ENDBRANCH  23   2
ENDBRANCH  15  23
ENDBRANCH   9  15
TORSDOF 11
ENDMDL
MODEL 2
REMARK VINA RESULT:       1.6      2.137      4.859
REMARK  Name = 28960189
REMARK  11 active torsions:
REMARK  status: ('A' for Active; 'I' for Inactive)
REMARK    1  A    between atoms: O_2  and  C_23
REMARK    2  A    between atoms: N_6  and  C_17
REMARK    3  A    between atoms: N_6  and  C_24
REMARK    4  A    between atoms: N_6  and  C_25
REMARK    5  A    between atoms: N_7  and  C_26
REMARK    6  A    between atoms: C_8  and  C_13
REMARK    7  A    between atoms: C_9  and  C_15
REMARK    8  A    between atoms: C_13  and  C_17
REMARK    9  A    between atoms: C_14  and  C_16
REMARK   10  A    between atoms: C_15  and  C_23
REMARK   11  A    between atoms: C_24  and  C_26
REMARK                            x       y       z     vdW  Elec       q    Type
REMARK                         _______ _______ _______ _____ _____    ______ ____
ROOT
ATOM      1  O   UNL     1      -6.199   0.447  23.952  0.00  0.00    -0.275 OA
ATOM      5  N   UNL     1      -4.367  -0.372  25.120  0.00  0.00    -0.301 N 
ATOM      8  C   UNL     1      -1.924  -0.768  25.355  0.00  0.00    +0.012 C 
ATOM      9  C   UNL     1      -2.166  -2.252  24.972  0.00  0.00    +0.006 C 
ATOM     10  C   UNL     1      -3.197  -0.179  25.988  0.00  0.00    +0.111 C 
ATOM     11  C   UNL     1      -3.427  -2.414  24.107  0.00  0.00    +0.023 C 
ATOM     12  C   UNL     1      -4.641  -1.765  24.767  0.00  0.00    +0.108 C 
ATOM     16  C   UNL     1      -5.207   0.639  24.659  0.00  0.00    +0.219 C 
ENDROOT
BRANCH  16  14
ATOM     14  C   UNL     1      -4.856   2.039  25.061  0.00  0.00    +0.075 C 
ATOM     18  C   UNL     1      -4.270   2.793  23.867  0.00  0.00    +0.013 C 
ATOM     19  C   UNL     1      -6.106   2.735  25.606  0.00  0.00    +0.013 C 
ATOM     20  C   UNL     1      -3.995   4.255  24.208  0.00  0.00    +0.001 C 
ATOM     21  C   UNL     1      -5.831   4.199  25.942  0.00  0.00    +0.001 C 
ATOM     22  C   UNL     1      -5.242   4.950  24.750  0.00  0.00    +0.000 C 
ENDBRANCH  16  14
BRANCH   8  13
ATOM     13  C   UNL     1      -1.455   0.107  24.187  0.00  0.00    +0.024 C 
BRANCH  13  17
ATOM     17  C   UNL     1       0.048   0.027  23.970  0.00  0.00    +0.105 C 
BRANCH  17   6
ATOM      6  N   UNL     1       0.628   1.347  23.899  0.00  0.00    -0.329 N 
BRANCH   6  25
ATOM     25  C   UNL     1      -0.006   2.458  24.475  0.00  0.00    +0.030 A 
ATOM     29  C   UNL     1      -0.069   3.664  23.778  0.00  0.00    +0.023 A 
ATOM     30  C   UNL     1      -0.573   2.354  25.744  0.00  0.00    +0.023 A 
ATOM     33  C   UNL     1      -0.701   4.768  24.351  0.00  0.00    +0.002 A 
ATOM     34  C   UNL     1      -1.205   3.459  26.318  0.00  0.00    +0.002 A 
ATOM     35  C   UNL     1      -1.268   4.666  25.621  0.00  0.00    +0.000 A 
ENDBRANCH   6  25
BRANCH   6  24
ATOM     24  C   UNL     1       1.903   1.516  23.198  0.00  0.00    +0.120 C 
BRANCH  24  26
ATOM     26  C   UNL     1       2.209   0.265  22.384  0.00  0.00    +0.103 C 
BRANCH  26   7
ATOM      4  O   UNL     1       5.727  -0.711  24.455  0.00  0.00    -0.377 OA
ATOM      7  N   UNL     1       3.556  -0.217  22.681  0.00  0.00    -0.297 NA
ATOM     27  C   UNL     1       3.515  -1.313  23.659  0.00  0.00    +0.112 C 
ATOM     28  C   UNL     1       4.402   0.874  23.184  0.00  0.00    +0.112 C 
ATOM     31  C   UNL     1       4.933  -1.791  23.961  0.00  0.00    +0.175 C 
ATOM     32  C   UNL     1       5.798   0.345  23.497  0.00  0.00    +0.175 C 
ENDBRANCH  26   7
ENDBRANCH  24  26
ENDBRANCH   6  24
ENDBRANCH  17   6
ENDBRANCH  13  17
ENDBRANCH   8  13
BRANCH   9  15
ATOM     15  C   UNL     1      -0.960  -2.901  24.295  0.00  0.00    +0.124 C 
BRANCH  15  23
ATOM      3  O   UNL     1       0.531  -4.261  25.662  0.00  0.00    -0.251 OA
ATOM     23  C   UNL     1       0.150  -3.167  25.274  0.00  0.00    +0.305 C 
BRANCH  23   2
ATOM      2  O   UNL     1       0.691  -1.991  25.683  0.00  0.00    -0.481 OA
ATOM     36  H   UNL     1       1.671  -2.022  25.686  0.00  0.00    +0.295 HD
ENDBRANCH  23   2
ENDBRANCH  15  23
ENDBRANCH   9  15
TORSDOF 11
ENDMDL
MODEL 3
REMARK VINA RESULT:       1.7      1.064      1.859
REMARK  Name = 28960189
REMARK  11 active torsions:
REMARK  status: ('A' for Active; 'I' for Inactive)
REMARK    1  A    between atoms: O_2  and  C_23
REMARK    2  A    between atoms: N_6  and  C_17
REMARK    3  A    between atoms: N_6  and  C_24
REMARK    4  A    between atoms: N_6  and  C_25
REMARK    5  A    between atoms: N_7  and  C_26
REMARK    6  A    between atoms: C_8  and  C_13
REMARK    7  A    between atoms: C_9  and  C_15
REMARK    8  A    between atoms: C_13  and  C_17
REMARK    9  A    between atoms: C_14  and  C_16
REMARK   10  A    between atoms: C_15  and  C_23
REMARK   11  A    between atoms: C_24  and  C_26
REMARK                            x       y       z     vdW  Elec       q    Type
REMARK                         _______ _______ _______ _____ _____    ______ ____
ROOT
ATOM      1  O   UNL     1      -5.375   0.424  26.447  0.00  0.00    -0.275 OA
ATOM      5  N   UNL     1      -4.664   1.672  24.621  0.00  0.00    -0.301 N 
ATOM      8  C   UNL     1      -2.917   2.937  23.386  0.00  0.00    +0.012 C 
ATOM      9  C   UNL     1      -3.601   4.253  23.840  0.00  0.00    +0.006 C 
ATOM     10  C   UNL     1      -3.952   1.799  23.342  0.00  0.00    +0.111 C 
ATOM     11  C   UNL     1      -4.376   4.062  25.156  0.00  0.00    +0.023 C 
ATOM     12  C   UNL     1      -5.348   2.888  25.062  0.00  0.00    +0.108 C 
ATOM     16  C   UNL     1      -4.748   0.512  25.388  0.00  0.00    +0.219 C 
ENDROOT
BRANCH  16  14
ATOM     14  C   UNL     1      -4.018  -0.689  24.870  0.00  0.00    +0.075 C 
ATOM     18  C   UNL     1      -3.911  -1.748  25.969  0.00  0.00    +0.013 C 
ATOM     19  C   UNL     1      -4.747  -1.231  23.638  0.00  0.00    +0.013 C 
ATOM     20  C   UNL     1      -3.264  -3.029  25.451  0.00  0.00    +0.001 C 
ATOM     21  C   UNL     1      -4.102  -2.515  23.124  0.00  0.00    +0.001 C 
ATOM     22  C   UNL     1      -3.992  -3.570  24.222  0.00  0.00    +0.000 C 
ENDBRANCH  16  14
BRANCH   8  13
ATOM     13  C   UNL     1      -1.715   2.532  24.247  0.00  0.00    +0.024 C 
BRANCH  13  17
ATOM     17  C   UNL     1      -0.398   2.653  23.496  0.00  0.00    +0.105 C 
BRANCH  17   6
ATOM      6  N   UNL     1       0.458   1.525  23.775  0.00  0.00    -0.329 N 
BRANCH   6  25
ATOM     25  C   UNL     1      -0.002   0.420  24.507  0.00  0.00    +0.030 A 
ATOM     29  C   UNL     1      -0.426   0.584  25.825  0.00  0.00    +0.023 A 
ATOM     30  C   UNL     1      -0.034  -0.842  23.915  0.00  0.00    +0.023 A 
ATOM     33  C   UNL     1      -0.884  -0.515  26.552  0.00  0.00    +0.002 A 
ATOM     34  C   UNL     1      -0.491  -1.942  24.643  0.00  0.00    +0.002 A 
ATOM     35  C   UNL     1      -0.916  -1.778  25.961  0.00  0.00    +0.000 A 
ENDBRANCH   6  25
BRANCH   6  24
ATOM     24  C   UNL     1       1.838   1.553  23.284  0.00  0.00    +0.120 C 
BRANCH  24  26
ATOM     26  C   UNL     1       2.095   0.334  22.408  0.00  0.00    +0.103 C 
BRANCH  26   7
ATOM      4  O   UNL     1       5.670  -0.726  24.333  0.00  0.00    -0.377 OA
ATOM      7  N   UNL     1       3.435  -0.194  22.653  0.00  0.00    -0.297 NA
ATOM     27  C   UNL     1       3.399  -1.259  23.664  0.00  0.00    +0.112 C 
ATOM     28  C   UNL     1       4.347   0.875  23.080  0.00  0.00    +0.112 C 
ATOM     31  C   UNL     1       4.810  -1.787  23.912  0.00  0.00    +0.175 C 
ATOM     32  C   UNL     1       5.736   0.298  23.341  0.00  0.00    +0.175 C 
ENDBRANCH  26   7
ENDBRANCH  24  26
ENDBRANCH   6  24
ENDBRANCH  17   6
ENDBRANCH  13  17
ENDBRANCH   8  13
BRANCH   9  15
ATOM     15  C   UNL     1      -2.630   5.427  23.953  0.00  0.00    +0.124 C 
BRANCH  15  23
ATOM      3  O   UNL     1      -2.111   4.933  26.283  0.00  0.00    -0.251 OA
ATOM     23  C   UNL     1      -1.761   5.312  25.176  0.00  0.00    +0.305 C 
BRANCH  23   2
ATOM      2  O   UNL     1      -0.495   5.699  24.875  0.00  0.00    -0.481 OA
ATOM     36  H   UNL     1       0.174   5.108  25.280  0.00  0.00    +0.295 HD
ENDBRANCH  23   2
ENDBRANCH  15  23
ENDBRANCH   9  15
TORSDOF 11
ENDMDL
MODEL 4
REMARK VINA RESULT:       1.9      1.624      4.426
REMARK  Name = 28960189
REMARK  11 active torsions:
REMARK  status: ('A' for Active; 'I' for Inactive)
REMARK    1  A    between atoms: O_2  and  C_23
REMARK    2  A    between atoms: N_6  and  C_17
REMARK    3  A    between atoms: N_6  and  C_24
REMARK    4  A    between atoms: N_6  and  C_25
REMARK    5  A    between atoms: N_7  and  C_26
REMARK    6  A    between atoms: C_8  and  C_13
REMARK    7  A    between atoms: C_9  and  C_15
REMARK    8  A    between atoms: C_13  and  C_17
REMARK    9  A    between atoms: C_14  and  C_16
REMARK   10  A    between atoms: C_15  and  C_23
REMARK   11  A    between atoms: C_24  and  C_26
REMARK                            x       y       z     vdW  Elec       q    Type
REMARK                         _______ _______ _______ _____ _____    ______ ____
ROOT
ATOM      1  O   UNL     1      -6.514   3.616  25.283  0.00  0.00    -0.275 OA
ATOM      5  N   UNL     1      -4.808   2.057  25.515  0.00  0.00    -0.301 N 
ATOM      8  C   UNL     1      -2.984   0.658  24.570  0.00  0.00    +0.012 C 
ATOM      9  C   UNL     1      -3.927  -0.570  24.665  0.00  0.00    +0.006 C 
ATOM     10  C   UNL     1      -3.386   1.706  25.623  0.00  0.00    +0.111 C 
ATOM     11  C   UNL     1      -5.407  -0.153  24.599  0.00  0.00    +0.023 C 
ATOM     12  C   UNL     1      -5.727   0.924  25.633  0.00  0.00    +0.108 C 
ATOM     16  C   UNL     1      -5.313   3.345  25.345  0.00  0.00    +0.219 C 
ENDROOT
BRANCH  16  14
ATOM     14  C   UNL     1      -4.308   4.449  25.230  0.00  0.00    +0.075 C 
ATOM     18  C   UNL     1      -3.162   4.216  26.216  0.00  0.00    +0.013 C 
ATOM     19  C   UNL     1      -3.801   4.521  23.787  0.00  0.00    +0.013 C 
ATOM     20  C   UNL     1      -2.065   5.265  26.057  0.00  0.00    +0.001 C 
ATOM     21  C   UNL     1      -2.700   5.567  23.631  0.00  0.00    +0.001 C 
ATOM     22  C   UNL     1      -1.559   5.336  24.619  0.00  0.00    +0.000 C 
ENDBRANCH  16  14
BRANCH   8  13
ATOM     13  C   UNL     1      -2.929   1.294  23.177  0.00  0.00    +0.024 C 
BRANCH  13  17
ATOM     17  C   UNL     1      -1.510   1.392  22.639  0.00  0.00    +0.105 C 
BRANCH  17   6
ATOM      6  N   UNL     1      -0.575   0.764  23.542  0.00  0.00    -0.329 N 
BRANCH   6  25
ATOM     25  C   UNL     1      -0.316   1.296  24.814  0.00  0.00    +0.030 A 
ATOM     29  C   UNL     1      -0.572   0.534  25.954  0.00  0.00    +0.023 A 
ATOM     30  C   UNL     1       0.197   2.587  24.938  0.00  0.00    +0.023 A 
ATOM     33  C   UNL     1      -0.314   1.064  27.219  0.00  0.00    +0.002 A 
ATOM     34  C   UNL     1       0.454   3.116  26.203  0.00  0.00    +0.002 A 
ATOM     35  C   UNL     1       0.198   2.354  27.343  0.00  0.00    +0.000 A 
ENDBRANCH   6  25
BRANCH   6  24
ATOM     24  C   UNL     1       0.118  -0.448  23.102  0.00  0.00    +0.120 C 
BRANCH  24  26
ATOM     26  C   UNL     1       1.308  -0.070  22.229  0.00  0.00    +0.103 C 
BRANCH  26   7
ATOM      4  O   UNL     1       5.331  -0.436  23.366  0.00  0.00    -0.377 OA
ATOM      7  N   UNL     1       2.533  -0.041  23.025  0.00  0.00    -0.297 NA
ATOM     27  C   UNL     1       3.516   0.879  22.436  0.00  0.00    +0.112 C 
ATOM     28  C   UNL     1       3.111  -1.387  23.143  0.00  0.00    +0.112 C 
ATOM     31  C   UNL     1       4.790   0.884  23.277  0.00  0.00    +0.175 C 
ATOM     32  C   UNL     1       4.394  -1.329  23.967  0.00  0.00    +0.175 C 
ENDBRANCH  26   7
ENDBRANCH  24  26
ENDBRANCH   6  24
ENDBRANCH  17   6
ENDBRANCH  13  17
ENDBRANCH   8  13
BRANCH   9  15
ATOM     15  C   UNL     1      -3.623  -1.643  23.620  0.00  0.00    +0.124 C 
BRANCH  15  23
ATOM      3  O   UNL     1      -1.736  -3.179  23.769  0.00  0.00    -0.251 OA
ATOM     23  C   UNL     1      -2.801  -2.763  24.198  0.00  0.00    +0.305 C 
BRANCH  23   2
ATOM      2  O   UNL     1      -3.421  -3.266  25.296  0.00  0.00    -0.481 OA
ATOM     36  H   UNL     1      -3.320  -2.678  26.074  0.00  0.00    +0.295 HD
ENDBRANCH  23   2
ENDBRANCH  15  23
ENDBRANCH   9  15
TORSDOF 11
ENDMDL
MODEL 5
REMARK VINA RESULT:       2.2      1.950      4.253
REMARK  Name = 28960189
REMARK  11 active torsions:
REMARK  status: ('A' for Active; 'I' for Inactive)
REMARK    1  A    between atoms: O_2  and  C_23
REMARK    2  A    between atoms: N_6  and  C_17
REMARK    3  A    between atoms: N_6  and  C_24
REMARK    4  A    between atoms: N_6  and  C_25
REMARK    5  A    between atoms: N_7  and  C_26
REMARK    6  A    between atoms: C_8  and  C_13
REMARK    7  A    between atoms: C_9  and  C_15
REMARK    8  A    between atoms: C_13  and  C_17
REMARK    9  A    between atoms: C_14  and  C_16
REMARK   10  A    between atoms: C_15  and  C_23
REMARK   11  A    between atoms: C_24  and  C_26
REMARK                            x       y       z     vdW  Elec       q    Type
REMARK                         _______ _______ _______ _____ _____    ______ ____
ROOT
ATOM      1  O   UNL     1      -4.899   3.174  26.442  0.00  0.00    -0.275 OA
ATOM      5  N   UNL     1      -2.646   3.608  26.086  0.00  0.00    -0.301 N 
ATOM      8  C   UNL     1      -0.310   2.853  25.694  0.00  0.00    +0.012 C 
ATOM      9  C   UNL     1       0.006   3.184  27.176  0.00  0.00    +0.006 C 
ATOM     10  C   UNL     1      -1.478   3.727  25.202  0.00  0.00    +0.111 C 
ATOM     11  C   UNL     1      -1.254   3.098  28.056  0.00  0.00    +0.023 C 
ATOM     12  C   UNL     1      -2.388   3.946  27.486  0.00  0.00    +0.108 C 
ATOM     16  C   UNL     1      -3.929   3.241  25.684  0.00  0.00    +0.219 C 
ENDROOT
BRANCH  16  14
ATOM     14  C   UNL     1      -4.109   2.908  24.235  0.00  0.00    +0.075 C 
ATOM     18  C   UNL     1      -3.584   4.053  23.368  0.00  0.00    +0.013 C 
ATOM     19  C   UNL     1      -3.387   1.594  23.926  0.00  0.00    +0.013 C 
ATOM     20  C   UNL     1      -3.656   3.709  21.883  0.00  0.00    +0.001 C 
ATOM     21  C   UNL     1      -3.455   1.254  22.439  0.00  0.00    +0.001 C 
ATOM     22  C   UNL     1      -2.935   2.400  21.574  0.00  0.00    +0.000 C 
ENDBRANCH  16  14
BRANCH   8  13
ATOM     13  C   UNL     1      -0.607   1.371  25.438  0.00  0.00    +0.024 C 
BRANCH  13  17
ATOM     17  C   UNL     1      -0.161   0.922  24.055  0.00  0.00    +0.105 C 
BRANCH  17   6
ATOM      6  N   UNL     1      -0.217  -0.516  23.939  0.00  0.00    -0.329 N 
BRANCH   6  25
ATOM     25  C   UNL     1      -1.317  -1.246  24.414  0.00  0.00    +0.030 A 
ATOM     29  C   UNL     1      -1.678  -2.444  23.796  0.00  0.00    +0.023 A 
ATOM     30  C   UNL     1      -2.049  -0.774  25.502  0.00  0.00    +0.023 A 
ATOM     33  C   UNL     1      -2.772  -3.170  24.269  0.00  0.00    +0.002 A 
ATOM     34  C   UNL     1      -3.143  -1.500  25.975  0.00  0.00    +0.002 A 
ATOM     35  C   UNL     1      -3.504  -2.698  25.357  0.00  0.00    +0.000 A 
ENDBRANCH   6  25
BRANCH   6  24
ATOM     24  C   UNL     1       0.910  -1.214  23.318  0.00  0.00    +0.120 C 
BRANCH  24  26
ATOM     26  C   UNL     1       1.672  -0.253  22.414  0.00  0.00    +0.103 C 
BRANCH  26   7
ATOM      4  O   UNL     1       5.441  -0.231  24.261  0.00  0.00    -0.377 OA
ATOM      7  N   UNL     1       3.111  -0.383  22.633  0.00  0.00    -0.297 NA
ATOM     27  C   UNL     1       3.393  -1.390  23.665  0.00  0.00    +0.112 C 
ATOM     28  C   UNL     1       3.699   0.908  23.014  0.00  0.00    +0.112 C 
ATOM     31  C   UNL     1       4.900  -1.499  23.884  0.00  0.00    +0.175 C 
ATOM     32  C   UNL     1       5.198   0.745  23.248  0.00  0.00    +0.175 C 
ENDBRANCH  26   7
ENDBRANCH  24  26
ENDBRANCH   6  24
ENDBRANCH  17   6
ENDBRANCH  13  17
ENDBRANCH   8  13
BRANCH   9  15
ATOM     15  C   UNL     1       1.128   2.326  27.757  0.00  0.00    +0.124 C 
BRANCH  15  23
ATOM      3  O   UNL     1       1.064   2.815  30.144  0.00  0.00    -0.251 OA
ATOM     23  C   UNL     1       1.630   2.878  29.064  0.00  0.00    +0.305 C 
BRANCH  23   2
ATOM      2  O   UNL     1       2.834   3.476  28.875  0.00  0.00    -0.481 OA
ATOM     36  H   UNL     1       3.276   3.683  29.725  0.00  0.00    +0.295 HD
ENDBRANCH  23   2
ENDBRANCH  15  23
ENDBRANCH   9  15
TORSDOF 11
ENDMDL
MODEL 6
REMARK VINA RESULT:       2.3      1.755      3.681
REMARK  Name = 28960189
REMARK  11 active torsions:
REMARK  status: ('A' for Active; 'I' for Inactive)
REMARK    1  A    between atoms: O_2  and  C_23
REMARK    2  A    between atoms: N_6  and  C_17
REMARK    3  A    between atoms: N_6  and  C_24
REMARK    4  A    between atoms: N_6  and  C_25
REMARK    5  A    between atoms: N_7  and  C_26
REMARK    6  A    between atoms: C_8  and  C_13
REMARK    7  A    between atoms: C_9  and  C_15
REMARK    8  A    between atoms: C_13  and  C_17
REMARK    9  A    between atoms: C_14  and  C_16
REMARK   10  A    between atoms: C_15  and  C_23
REMARK   11  A    between atoms: C_24  and  C_26
REMARK                            x       y       z     vdW  Elec       q    Type
REMARK                         _______ _______ _______ _____ _____    ______ ____
ROOT
ATOM      1  O   UNL     1      -4.742  -0.460  26.371  0.00  0.00    -0.275 OA
ATOM      5  N   UNL     1      -4.529   1.128  24.690  0.00  0.00    -0.301 N 
ATOM      8  C   UNL     1      -3.285   2.959  23.558  0.00  0.00    +0.012 C 
ATOM      9  C   UNL     1      -4.270   3.973  24.197  0.00  0.00    +0.006 C 
ATOM     10  C   UNL     1      -3.970   1.588  23.411  0.00  0.00    +0.111 C 
ATOM     11  C   UNL     1      -4.869   3.430  25.506  0.00  0.00    +0.023 C 
ATOM     12  C   UNL     1      -5.487   2.049  25.303  0.00  0.00    +0.108 C 
ATOM     16  C   UNL     1      -4.238  -0.086  25.309  0.00  0.00    +0.219 C 
ENDROOT
BRANCH  16  14
ATOM     14  C   UNL     1      -3.246  -0.970  24.620  0.00  0.00    +0.075 C 
ATOM     18  C   UNL     1      -1.936  -0.998  25.410  0.00  0.00    +0.013 C 
ATOM     19  C   UNL     1      -3.839  -2.372  24.468  0.00  0.00    +0.013 C 
ATOM     20  C   UNL     1      -0.932  -1.970  24.796  0.00  0.00    +0.001 C 
ATOM     21  C   UNL     1      -2.833  -3.345  23.859  0.00  0.00    +0.001 C 
ATOM     22  C   UNL     1      -1.524  -3.369  24.645  0.00  0.00    +0.000 C 
ENDBRANCH  16  14
BRANCH   8  13
ATOM     13  C   UNL     1      -1.961   2.815  24.317  0.00  0.00    +0.024 C 
BRANCH  13  17
ATOM     17  C   UNL     1      -1.142   1.629  23.833  0.00  0.00    +0.105 C 
BRANCH  17   6
ATOM      6  N   UNL     1       0.256   1.805  24.150  0.00  0.00    -0.329 N 
BRANCH   6  25
ATOM     25  C   UNL     1       1.260   1.156  23.417  0.00  0.00    +0.030 A 
ATOM     29  C   UNL     1       0.940   0.063  22.611  0.00  0.00    +0.023 A 
ATOM     30  C   UNL     1       2.578   1.604  23.494  0.00  0.00    +0.023 A 
ATOM     33  C   UNL     1       1.939  -0.582  21.882  0.00  0.00    +0.002 A 
ATOM     34  C   UNL     1       3.578   0.959  22.764  0.00  0.00    +0.002 A 
ATOM     35  C   UNL     1       3.258  -0.134  21.959  0.00  0.00    +0.000 A 
ENDBRANCH   6  25
BRANCH   6  24
ATOM     24  C   UNL     1       0.616   2.677  25.270  0.00  0.00    +0.120 C 
BRANCH  24  26
ATOM     26  C   UNL     1      -0.053   2.179  26.543  0.00  0.00    +0.103 C 
BRANCH  26   7
ATOM      4  O   UNL     1       2.485   2.515  29.868  0.00  0.00    -0.377 OA
ATOM      7  N   UNL     1       0.629   2.713  27.719  0.00  0.00    -0.297 NA
ATOM     27  C   UNL     1       2.079   2.789  27.492  0.00  0.00    +0.112 C 
ATOM     28  C   UNL     1       0.348   1.892  28.905  0.00  0.00    +0.112 C 
ATOM     31  C   UNL     1       2.771   3.339  28.737  0.00  0.00    +0.175 C 
ATOM     32  C   UNL     1       1.080   2.462  30.116  0.00  0.00    +0.175 C 
ENDBRANCH  26   7
ENDBRANCH  24  26
ENDBRANCH   6  24
ENDBRANCH  17   6
ENDBRANCH  13  17
ENDBRANCH   8  13
BRANCH   9  15
ATOM     15  C   UNL     1      -3.651   5.352  24.419  0.00  0.00    +0.124 C 
BRANCH  15  23
ATOM      3  O   UNL     1      -1.326   5.644  25.090  0.00  0.00    -0.251 OA
ATOM     23  C   UNL     1      -2.467   5.287  25.344  0.00  0.00    +0.305 C 
BRANCH  23   2
ATOM      2  O   UNL     1      -2.846   4.761  26.537  0.00  0.00    -0.481 OA
ATOM     36  H   UNL     1      -2.084   4.397  27.034  0.00  0.00    +0.295 HD
ENDBRANCH  23   2
ENDBRANCH  15  23
ENDBRANCH   9  15
TORSDOF 11
ENDMDL
MODEL 7
REMARK VINA RESULT:       2.6      2.103      5.384
REMARK  Name = 28960189
REMARK  11 active torsions:
REMARK  status: ('A' for Active; 'I' for Inactive)
REMARK    1  A    between atoms: O_2  and  C_23
REMARK    2  A    between atoms: N_6  and  C_17
REMARK    3  A    between atoms: N_6  and  C_24
REMARK    4  A    between atoms: N_6  and  C_25
REMARK    5  A    between atoms: N_7  and  C_26
REMARK    6  A    between atoms: C_8  and  C_13
REMARK    7  A    between atoms: C_9  and  C_15
REMARK    8  A    between atoms: C_13  and  C_17
REMARK    9  A    between atoms: C_14  and  C_16
REMARK   10  A    between atoms: C_15  and  C_23
REMARK   11  A    between atoms: C_24  and  C_26
REMARK                            x       y       z     vdW  Elec       q    Type
REMARK                         _______ _______ _______ _____ _____    ______ ____
ROOT
ATOM      1  O   UNL     1      -4.780   2.525  25.926  0.00  0.00    -0.275 OA
ATOM      5  N   UNL     1      -2.602   3.277  25.634  0.00  0.00    -0.301 N 
ATOM      8  C   UNL     1      -0.183   2.865  25.238  0.00  0.00    +0.012 C 
ATOM      9  C   UNL     1       0.073   3.141  26.742  0.00  0.00    +0.006 C 
ATOM     10  C   UNL     1      -1.453   3.605  24.780  0.00  0.00    +0.111 C 
ATOM     11  C   UNL     1      -1.171   2.833  27.593  0.00  0.00    +0.023 C 
ATOM     12  C   UNL     1      -2.404   3.557  27.057  0.00  0.00    +0.108 C 
ATOM     16  C   UNL     1      -3.821   2.768  25.190  0.00  0.00    +0.219 C 
ENDROOT
BRANCH  16  14
ATOM     14  C   UNL     1      -3.942   2.505  23.720  0.00  0.00    +0.075 C 
ATOM     18  C   UNL     1      -3.756   3.809  22.941  0.00  0.00    +0.013 C 
ATOM     19  C   UNL     1      -2.910   1.454  23.308  0.00  0.00    +0.013 C 
ATOM     20  C   UNL     1      -3.771   3.567  21.435  0.00  0.00    +0.001 C 
ATOM     21  C   UNL     1      -2.921   1.217  21.800  0.00  0.00    +0.001 C 
ATOM     22  C   UNL     1      -2.740   2.518  21.023  0.00  0.00    +0.000 C 
ENDBRANCH  16  14
BRANCH   8  13
ATOM     13  C   UNL     1      -0.277   1.376  24.886  0.00  0.00    +0.024 C 
BRANCH  13  17
ATOM     17  C   UNL     1       0.285   1.069  23.506  0.00  0.00    +0.105 C 
BRANCH  17   6
ATOM      6  N   UNL     1       1.029  -0.167  23.517  0.00  0.00    -0.329 N 
BRANCH   6  25
ATOM     25  C   UNL     1       2.428  -0.181  23.409  0.00  0.00    +0.030 A 
ATOM     29  C   UNL     1       3.100   0.938  22.917  0.00  0.00    +0.023 A 
ATOM     30  C   UNL     1       3.145  -1.313  23.795  0.00  0.00    +0.023 A 
ATOM     33  C   UNL     1       4.491   0.924  22.810  0.00  0.00    +0.002 A 
ATOM     34  C   UNL     1       4.536  -1.326  23.688  0.00  0.00    +0.002 A 
ATOM     35  C   UNL     1       5.209  -0.208  23.196  0.00  0.00    +0.000 A 
ENDBRANCH   6  25
BRANCH   6  24
ATOM     24  C   UNL     1       0.293  -1.428  23.635  0.00  0.00    +0.120 C 
BRANCH  24  26
ATOM     26  C   UNL     1      -0.013  -1.707  25.100  0.00  0.00    +0.103 C 
BRANCH  26   7
ATOM      4  O   UNL     1      -4.186  -1.526  24.686  0.00  0.00    -0.377 OA
ATOM      7  N   UNL     1      -1.439  -1.976  25.279  0.00  0.00    -0.297 NA
ATOM     27  C   UNL     1      -2.042  -2.451  24.026  0.00  0.00    +0.112 C 
ATOM     28  C   UNL     1      -2.141  -0.775  25.752  0.00  0.00    +0.112 C 
ATOM     31  C   UNL     1      -3.531  -2.713  24.235  0.00  0.00    +0.175 C 
ATOM     32  C   UNL     1      -3.627  -1.076  25.920  0.00  0.00    +0.175 C 
ENDBRANCH  26   7
ENDBRANCH  24  26
ENDBRANCH   6  24
ENDBRANCH  17   6
ENDBRANCH  13  17
ENDBRANCH   8  13
BRANCH   9  15
ATOM     15  C   UNL     1       1.295   2.405  27.289  0.00  0.00    +0.124 C 
BRANCH  15  23
ATOM      3  O   UNL     1       0.981   2.659  29.692  0.00  0.00    -0.251 OA
ATOM     23  C   UNL     1       1.638   2.857  28.682  0.00  0.00    +0.305 C 
BRANCH  23   2
ATOM      2  O   UNL     1       2.813   3.536  28.666  0.00  0.00    -0.481 OA
ATOM     36  H   UNL     1       2.683   4.487  28.465  0.00  0.00    +0.295 HD
ENDBRANCH  23   2
ENDBRANCH  15  23
ENDBRANCH   9  15
TORSDOF 11
ENDMDL
MODEL 8
REMARK VINA RESULT:       2.9      1.635      4.738
REMARK  Name = 28960189
REMARK  11 active torsions:
REMARK  status: ('A' for Active; 'I' for Inactive)
REMARK    1  A    between atoms: O_2  and  C_23
REMARK    2  A    between atoms: N_6  and  C_17
REMARK    3  A    between atoms: N_6  and  C_24
REMARK    4  A    between atoms: N_6  and  C_25
REMARK    5  A    between atoms: N_7  and  C_26
REMARK    6  A    between atoms: C_8  and  C_13
REMARK    7  A    between atoms: C_9  and  C_15
REMARK    8  A    between atoms: C_13  and  C_17
REMARK    9  A    between atoms: C_14  and  C_16
REMARK   10  A    between atoms: C_15  and  C_23
REMARK   11  A    between atoms: C_24  and  C_26
REMARK                            x       y       z     vdW  Elec       q    Type
REMARK                         _______ _______ _______ _____ _____    ______ ____
ROOT
ATOM      1  O   UNL     1      -5.268   4.654  25.436  0.00  0.00    -0.275 OA
ATOM      5  N   UNL     1      -4.311   2.547  25.631  0.00  0.00    -0.301 N 
ATOM      8  C   UNL     1      -3.066   0.617  24.681  0.00  0.00    +0.012 C 
ATOM      9  C   UNL     1      -4.408  -0.157  24.591  0.00  0.00    +0.006 C 
ATOM     10  C   UNL     1      -3.145   1.669  25.802  0.00  0.00    +0.111 C 
ATOM     11  C   UNL     1      -5.605   0.802  24.465  0.00  0.00    +0.023 C 
ATOM     12  C   UNL     1      -5.596   1.850  25.575  0.00  0.00    +0.108 C 
ATOM     16  C   UNL     1      -4.271   3.938  25.554  0.00  0.00    +0.219 C 
ENDROOT
BRANCH  16  14
ATOM     14  C   UNL     1      -2.917   4.575  25.616  0.00  0.00    +0.075 C 
ATOM     18  C   UNL     1      -1.862   3.524  25.964  0.00  0.00    +0.013 C 
ATOM     19  C   UNL     1      -2.616   5.250  24.276  0.00  0.00    +0.013 C 
ATOM     20  C   UNL     1      -0.454   4.112  25.935  0.00  0.00    +0.001 C 
ATOM     21  C   UNL     1      -1.205   5.834  24.247  0.00  0.00    +0.001 C 
ATOM     22  C   UNL     1      -0.153   4.785  24.598  0.00  0.00    +0.000 C 
ENDBRANCH  16  14
BRANCH   8  13
ATOM     13  C   UNL     1      -2.635   1.271  23.363  0.00  0.00    +0.024 C 
BRANCH  13  17
ATOM     17  C   UNL     1      -1.170   1.677  23.370  0.00  0.00    +0.105 C 
BRANCH  17   6
ATOM      6  N   UNL     1      -0.315   0.516  23.438  0.00  0.00    -0.329 N 
BRANCH   6  25
ATOM     25  C   UNL     1      -0.550  -0.514  24.361  0.00  0.00    +0.030 A 
ATOM     29  C   UNL     1      -0.640  -1.836  23.924  0.00  0.00    +0.023 A 
ATOM     30  C   UNL     1      -0.693  -0.215  25.716  0.00  0.00    +0.023 A 
ATOM     33  C   UNL     1      -0.874  -2.859  24.843  0.00  0.00    +0.002 A 
ATOM     34  C   UNL     1      -0.926  -1.239  26.635  0.00  0.00    +0.002 A 
ATOM     35  C   UNL     1      -1.017  -2.561  26.198  0.00  0.00    +0.000 A 
ENDBRANCH   6  25
BRANCH   6  24
ATOM     24  C   UNL     1       0.824   0.430  22.522  0.00  0.00    +0.120 C 
BRANCH  24  26
ATOM     26  C   UNL     1       1.907   1.408  22.957  0.00  0.00    +0.103 C 
BRANCH  26   7
ATOM      4  O   UNL     1       5.407  -0.883  23.300  0.00  0.00    -0.377 OA
ATOM      7  N   UNL     1       3.044   0.688  23.527  0.00  0.00    -0.297 NA
ATOM     27  C   UNL     1       4.313   1.271  23.071  0.00  0.00    +0.112 C 
ATOM     28  C   UNL     1       2.989  -0.737  23.172  0.00  0.00    +0.112 C 
ATOM     31  C   UNL     1       5.484   0.496  23.669  0.00  0.00    +0.175 C 
ATOM     32  C   UNL     1       4.191  -1.465  23.767  0.00  0.00    +0.175 C 
ENDBRANCH  26   7
ENDBRANCH  24  26
ENDBRANCH   6  24
ENDBRANCH  17   6
ENDBRANCH  13  17
ENDBRANCH   8  13
BRANCH   9  15
ATOM     15  C   UNL     1      -4.428  -1.195  23.470  0.00  0.00    +0.124 C 
BRANCH  15  23
ATOM      3  O   UNL     1      -4.301  -3.626  23.365  0.00  0.00    -0.251 OA
ATOM     23  C   UNL     1      -4.209  -2.586  23.998  0.00  0.00    +0.305 C 
BRANCH  23   2
ATOM      2  O   UNL     1      -3.885  -2.530  25.315  0.00  0.00    -0.481 OA
ATOM     36  H   UNL     1      -4.201  -1.702  25.734  0.00  0.00    +0.295 HD
ENDBRANCH  23   2
ENDBRANCH  15  23
ENDBRANCH   9  15
TORSDOF 11
ENDMDL
MODEL 9
REMARK VINA RESULT:       4.7      1.641      5.099
REMARK  Name = 28960189
REMARK  11 active torsions:
REMARK  status: ('A' for Active; 'I' for Inactive)
REMARK    1  A    between atoms: O_2  and  C_23
REMARK    2  A    between atoms: N_6  and  C_17
REMARK    3  A    between atoms: N_6  and  C_24
REMARK    4  A    between atoms: N_6  and  C_25
REMARK    5  A    between atoms: N_7  and  C_26
REMARK    6  A    between atoms: C_8  and  C_13
REMARK    7  A    between atoms: C_9  and  C_15
REMARK    8  A    between atoms: C_13  and  C_17
REMARK    9  A    between atoms: C_14  and  C_16
REMARK   10  A    between atoms: C_15  and  C_23
REMARK   11  A    between atoms: C_24  and  C_26
REMARK                            x       y       z     vdW  Elec       q    Type
REMARK                         _______ _______ _______ _____ _____    ______ ____
ROOT
ATOM      1  O   UNL     1       1.229   3.693  24.989  0.00  0.00    -0.275 OA
ATOM      5  N   UNL     1      -0.985   3.723  25.690  0.00  0.00    -0.301 N 
ATOM      8  C   UNL     1      -3.180   2.613  26.041  0.00  0.00    +0.012 C 
ATOM      9  C   UNL     1      -3.715   3.355  24.789  0.00  0.00    +0.006 C 
ATOM     10  C   UNL     1      -2.032   3.418  26.675  0.00  0.00    +0.111 C 
ATOM     11  C   UNL     1      -2.579   3.700  23.809  0.00  0.00    +0.023 C 
ATOM     12  C   UNL     1      -1.451   4.452  24.510  0.00  0.00    +0.108 C 
ATOM     16  C   UNL     1       0.365   3.402  25.819  0.00  0.00    +0.219 C 
ENDROOT
BRANCH  16  14
ATOM     14  C   UNL     1       0.761   2.652  27.054  0.00  0.00    +0.075 C 
ATOM     18  C   UNL     1       2.155   3.091  27.505  0.00  0.00    +0.013 C 
ATOM     19  C   UNL     1      -0.283   2.892  28.146  0.00  0.00    +0.013 C 
ATOM     20  C   UNL     1       2.554   2.426  28.819  0.00  0.00    +0.001 C 
ATOM     21  C   UNL     1       0.119   2.230  29.462  0.00  0.00    +0.001 C 
ATOM     22  C   UNL     1       1.512   2.666  29.910  0.00  0.00    +0.000 C 
ENDBRANCH  16  14
BRANCH   8  13
ATOM     13  C   UNL     1      -2.735   1.171  25.768  0.00  0.00    +0.024 C 
BRANCH  13  17
ATOM     17  C   UNL     1      -1.439   1.106  24.975  0.00  0.00    +0.105 C 
BRANCH  17   6
ATOM      6  N   UNL     1      -1.188  -0.238  24.510  0.00  0.00    -0.329 N 
BRANCH   6  25
ATOM     25  C   UNL     1      -2.231  -1.163  24.348  0.00  0.00    +0.030 A 
ATOM     29  C   UNL     1      -3.454  -0.750  23.819  0.00  0.00    +0.023 A 
ATOM     30  C   UNL     1      -2.043  -2.494  24.717  0.00  0.00    +0.023 A 
ATOM     33  C   UNL     1      -4.489  -1.671  23.658  0.00  0.00    +0.002 A 
ATOM     34  C   UNL     1      -3.079  -3.415  24.557  0.00  0.00    +0.002 A 
ATOM     35  C   UNL     1      -4.302  -3.003  24.027  0.00  0.00    +0.000 A 
ENDBRANCH   6  25
BRANCH   6  24
ATOM     24  C   UNL     1       0.190  -0.630  24.212  0.00  0.00    +0.120 C 
BRANCH  24  26
ATOM     26  C   UNL     1       0.661   0.072  22.945  0.00  0.00    +0.103 C 
BRANCH  26   7
ATOM      4  O   UNL     1       4.795  -0.040  23.661  0.00  0.00    -0.377 OA
ATOM      7  N   UNL     1       2.097  -0.125  22.758  0.00  0.00    -0.297 NA
ATOM     27  C   UNL     1       2.618  -1.109  23.717  0.00  0.00    +0.112 C 
ATOM     28  C   UNL     1       2.821   1.146  22.898  0.00  0.00    +0.112 C 
ATOM     31  C   UNL     1       4.119  -1.290  23.510  0.00  0.00    +0.175 C 
ATOM     32  C   UNL     1       4.317   0.913  22.711  0.00  0.00    +0.175 C 
ENDBRANCH  26   7
ENDBRANCH  24  26
ENDBRANCH   6  24
ENDBRANCH  17   6
ENDBRANCH  13  17
ENDBRANCH   8  13
BRANCH   9  15
ATOM     15  C   UNL     1      -4.832   2.597  24.073  0.00  0.00    +0.124 C 
BRANCH  15  23
ATOM      3  O   UNL     1      -6.588   1.238  25.076  0.00  0.00    -0.251 OA
ATOM     23  C   UNL     1      -5.978   2.293  24.999  0.00  0.00    +0.305 C 
BRANCH  23   2
ATOM      2  O   UNL     1      -6.251   3.382  25.761  0.00  0.00    -0.481 OA
ATOM     36  H   UNL     1      -5.712   3.399  26.580  0.00  0.00    +0.295 HD
ENDBRANCH  23   2
ENDBRANCH  15  23
ENDBRANCH   9  15
TORSDOF 11
ENDMDL
MODEL 10
REMARK VINA RESULT:       5.0      2.112      4.746
REMARK  Name = 28960189
REMARK  11 active torsions:
REMARK  status: ('A' for Active; 'I' for Inactive)
REMARK    1  A    between atoms: O_2  and  C_23
REMARK    2  A    between atoms: N_6  and  C_17
REMARK    3  A    between atoms: N_6  and  C_24
REMARK    4  A    between atoms: N_6  and  C_25
REMARK    5  A    between atoms: N_7  and  C_26
REMARK    6  A    between atoms: C_8  and  C_13
REMARK    7  A    between atoms: C_9  and  C_15
REMARK    8  A    between atoms: C_13  and  C_17
REMARK    9  A    between atoms: C_14  and  C_16
REMARK   10  A    between atoms: C_15  and  C_23
REMARK   11  A    between atoms: C_24  and  C_26
REMARK                            x       y       z     vdW  Elec       q    Type
REMARK                         _______ _______ _______ _____ _____    ______ ____
ROOT
ATOM      1  O   UNL     1      -4.329  -0.743  27.170  0.00  0.00    -0.275 OA
ATOM      5  N   UNL     1      -4.217  -0.153  24.927  0.00  0.00    -0.301 N 
ATOM      8  C   UNL     1      -3.122   1.019  23.028  0.00  0.00    +0.012 C 
ATOM      9  C   UNL     1      -4.222   2.109  23.115  0.00  0.00    +0.006 C 
ATOM     10  C   UNL     1      -3.664  -0.314  23.576  0.00  0.00    +0.111 C 
ATOM     11  C   UNL     1      -4.808   2.208  24.534  0.00  0.00    +0.023 C 
ATOM     12  C   UNL     1      -5.280   0.846  25.036  0.00  0.00    +0.108 C 
ATOM     16  C   UNL     1      -3.830  -0.880  26.051  0.00  0.00    +0.219 C 
ENDROOT
BRANCH  16  14
ATOM     14  C   UNL     1      -2.733  -1.881  25.858  0.00  0.00    +0.075 C 
ATOM     18  C   UNL     1      -2.886  -2.566  24.498  0.00  0.00    +0.013 C 
ATOM     19  C   UNL     1      -1.380  -1.177  25.981  0.00  0.00    +0.013 C 
ATOM     20  C   UNL     1      -1.728  -3.519  24.218  0.00  0.00    +0.001 C 
ATOM     21  C   UNL     1      -0.222  -2.131  25.696  0.00  0.00    +0.001 C 
ATOM     22  C   UNL     1      -0.378  -2.816  24.341  0.00  0.00    +0.000 C 
ENDBRANCH  16  14
BRANCH   8  13
ATOM     13  C   UNL     1      -1.815   1.395  23.737  0.00  0.00    +0.024 C 
BRANCH  13  17
ATOM     17  C   UNL     1      -0.609   0.685  23.144  0.00  0.00    +0.105 C 
BRANCH  17   6
ATOM      6  N   UNL     1       0.614   1.368  23.495  0.00  0.00    -0.329 N 
BRANCH   6  25
ATOM     25  C   UNL     1       1.867   0.766  23.311  0.00  0.00    +0.030 A 
ATOM     29  C   UNL     1       2.012  -0.610  23.484  0.00  0.00    +0.023 A 
ATOM     30  C   UNL     1       2.968   1.545  22.957  0.00  0.00    +0.023 A 
ATOM     33  C   UNL     1       3.259  -1.208  23.301  0.00  0.00    +0.002 A 
ATOM     34  C   UNL     1       4.216   0.946  22.774  0.00  0.00    +0.002 A 
ATOM     35  C   UNL     1       4.360  -0.430  22.947  0.00  0.00    +0.000 A 
ENDBRANCH   6  25
BRANCH   6  24
ATOM     24  C   UNL     1       0.526   2.716  24.062  0.00  0.00    +0.120 C 
BRANCH  24  26
ATOM     26  C   UNL     1       0.226   2.626  25.552  0.00  0.00    +0.103 C 
BRANCH  26   7
ATOM      4  O   UNL     1      -3.190   5.064  25.588  0.00  0.00    -0.377 OA
ATOM      7  N   UNL     1      -0.747   3.646  25.937  0.00  0.00    -0.297 NA
ATOM     27  C   UNL     1      -2.043   3.035  26.263  0.00  0.00    +0.112 C 
ATOM     28  C   UNL     1      -0.913   4.639  24.868  0.00  0.00    +0.112 C 
ATOM     31  C   UNL     1      -3.044   4.119  26.650  0.00  0.00    +0.175 C 
ATOM     32  C   UNL     1      -1.941   5.686  25.288  0.00  0.00    +0.175 C 
ENDBRANCH  26   7
ENDBRANCH  24  26
ENDBRANCH   6  24
ENDBRANCH  17   6
ENDBRANCH  13  17
ENDBRANCH   8  13
BRANCH   9  15
ATOM     15  C   UNL     1      -3.749   3.479  22.630  0.00  0.00    +0.124 C 
BRANCH  15  23
ATOM      3  O   UNL     1      -4.399   4.193  20.392  0.00  0.00    -0.251 OA
ATOM     23  C   UNL     1      -3.675   3.541  21.129  0.00  0.00    +0.305 C 
BRANCH  23   2
ATOM      2  O   UNL     1      -2.664   2.750  20.687  0.00  0.00    -0.481 OA
ATOM     36  H   UNL     1      -2.997   1.907  20.312  0.00  0.00    +0.295 HD
ENDBRANCH  23   2
ENDBRANCH  15  23
ENDBRANCH   9  15
TORSDOF 11
ENDMDL
