MODEL 1
REMARK VINA RESULT:      -1.4      0.000      0.000
REMARK  Name = 71693937
REMARK  8 active torsions:
REMARK  status: ('A' for Active; 'I' for Inactive)
REMARK    1  A    between atoms: O_4  and  C_11
REMARK    2  A    between atoms: O_5  and  C_13
REMARK    3  A    between atoms: O_7  and  C_27
REMARK    4  A    between atoms: O_7  and  C_28
REMARK    5  A    between atoms: N_8  and  C_10
REMARK    6  A    between atoms: C_9  and  C_14
REMARK    7  A    between atoms: C_17  and  C_21
REMARK    8  A    between atoms: C_20  and  C_22
REMARK                            x       y       z     vdW  Elec       q    Type
REMARK                         _______ _______ _______ _____ _____    ______ ____
ROOT
ATOM      9  C   UNL     1      -1.913  -0.784  25.516  0.00  0.00    +0.044 C 
ATOM     10  C   UNL     1      -1.273  -1.404  24.254  0.00  0.00    +0.112 C 
ATOM     11  C   UNL     1      -1.590  -2.893  24.388  0.00  0.00    +0.164 C 
ATOM     12  C   UNL     1      -3.016  -1.779  25.962  0.00  0.00    +0.044 C 
ATOM     13  C   UNL     1      -3.018  -2.896  24.920  0.00  0.00    +0.145 C 
ENDROOT
BRANCH   9  14
ATOM     14  C   UNL     1      -2.401   0.633  25.299  0.00  0.00    -0.042 A 
ATOM     15  C   UNL     1      -3.740   0.869  24.989  0.00  0.00    +0.004 A 
ATOM     16  C   UNL     1      -1.512   1.701  25.413  0.00  0.00    +0.004 A 
ATOM     18  C   UNL     1      -4.190   2.173  24.790  0.00  0.00    +0.012 A 
ATOM     19  C   UNL     1      -1.963   3.006  25.214  0.00  0.00    +0.012 A 
ATOM     20  C   UNL     1      -3.301   3.243  24.903  0.00  0.00    +0.055 A 
BRANCH  20  22
ATOM      1  F   UNL     1      -4.963   4.910  25.325  0.00  0.00    -0.166 F 
ATOM      2  F   UNL     1      -4.001   4.952  23.382  0.00  0.00    -0.166 F 
ATOM      3  F   UNL     1      -2.900   5.573  25.152  0.00  0.00    -0.166 F 
ATOM     22  C   UNL     1      -3.783   4.639  24.694  0.00  0.00    +0.417 C 
ENDBRANCH  20  22
ENDBRANCH   9  14
BRANCH  10   8
ATOM      6  O   UNL     1       0.113   0.168  22.291  0.00  0.00    -0.270 OA
ATOM      8  N   UNL     1       0.146  -1.160  24.192  0.00  0.00    -0.305 N 
ATOM     17  C   UNL     1       0.728  -0.382  23.200  0.00  0.00    +0.244 C 
ATOM     29  H   UNL     1       0.720  -1.604  24.900  0.00  0.00    +0.149 HD
BRANCH  17  21
ATOM     21  C   UNL     1       2.207  -0.248  23.260  0.00  0.00    +0.037 A 
ATOM     23  C   UNL     1       2.983  -1.304  23.735  0.00  0.00    +0.016 A 
ATOM     24  C   UNL     1       2.817   0.936  22.843  0.00  0.00    +0.016 A 
ATOM     25  C   UNL     1       4.371  -1.177  23.794  0.00  0.00    +0.046 A 
ATOM     26  C   UNL     1       4.205   1.062  22.901  0.00  0.00    +0.046 A 
ATOM     27  C   UNL     1       4.982   0.005  23.378  0.00  0.00    +0.120 A 
BRANCH  27   7
ATOM      7  O   UNL     1       6.336   0.129  23.434  0.00  0.00    -0.495 OA
ATOM     28  C   UNL     1       7.105  -0.795  22.664  0.00  0.00    +0.277 C 
ENDBRANCH  27   7
ENDBRANCH  17  21
ENDBRANCH  10   8
BRANCH  11   4
ATOM      4  O   UNL     1      -1.504  -3.573  23.150  0.00  0.00    -0.387 OA
ATOM     30  H   UNL     1      -0.562  -3.713  22.959  0.00  0.00    +0.210 HD
ENDBRANCH  11   4
BRANCH  13   5
ATOM      5  O   UNL     1      -3.946  -2.560  23.893  0.00  0.00    -0.389 OA
ATOM     31  H   UNL     1      -4.825  -2.851  24.187  0.00  0.00    +0.210 HD
ENDBRANCH  13   5
TORSDOF 7
ENDMDL
