MODEL 1
REMARK VINA RESULT:       7.1      0.000      0.000
REMARK  Name = 23786327
REMARK  14 active torsions:
REMARK  status: ('A' for Active; 'I' for Inactive)
REMARK    1  A    between atoms: O_1  and  C_17
REMARK    2  A    between atoms: O_1  and  C_26
REMARK    3  A    between atoms: O_2  and  C_18
REMARK    4  A    between atoms: O_3  and  C_22
REMARK    5  A    between atoms: O_8  and  C_39
REMARK    6  A    between atoms: O_8  and  C_41
REMARK    7  A    between atoms: N_9  and  C_27
REMARK    8  A    between atoms: N_10  and  C_28
REMARK    9  A    between atoms: C_11  and  C_21
REMARK   10  A    between atoms: C_13  and  C_22
REMARK   11  A    between atoms: C_13  and  C_23
REMARK   12  A    between atoms: C_14  and  C_24
REMARK   13  A    between atoms: C_24  and  C_25
REMARK   14  A    between atoms: C_27  and  C_29
REMARK                            x       y       z     vdW  Elec       q    Type
REMARK                         _______ _______ _______ _____ _____    ______ ____
ROOT
ATOM     11  C   UNL     1      -1.075   3.026  25.024  0.00  0.00    -0.023 C 
ATOM     12  C   UNL     1      -1.886   1.784  24.474  0.00  0.00    +0.007 C 
ATOM     13  C   UNL     1      -1.020   0.462  24.281  0.00  0.00    +0.031 C 
ATOM     14  C   UNL     1      -1.958   4.341  25.008  0.00  0.00    +0.032 C 
ATOM     15  C   UNL     1       0.189   3.233  24.142  0.00  0.00    +0.011 C 
ATOM     16  C   UNL     1      -2.629   2.141  23.150  0.00  0.00    +0.007 C 
ATOM     17  C   UNL     1       0.263   0.780  23.460  0.00  0.00    +0.186 C 
ATOM     18  C   UNL     1      -2.592   4.602  23.629  0.00  0.00    +0.119 C 
ATOM     19  C   UNL     1       1.050   1.981  23.986  0.00  0.00    +0.046 C 
ATOM     20  C   UNL     1      -3.441   3.426  23.191  0.00  0.00    +0.032 C 
ATOM     21  C   UNL     1      -0.604   2.828  26.491  0.00  0.00    +0.012 C 
ATOM     23  C   UNL     1      -1.837  -0.625  23.525  0.00  0.00    +0.017 C 
ENDROOT
BRANCH  18   2
ATOM      2  O   UNL     1      -3.408   5.770  23.646  0.00  0.00    -0.391 OA
ATOM     42  H   UNL     1      -3.587   6.020  22.723  0.00  0.00    +0.210 HD
ENDBRANCH  18   2
BRANCH  17   1
ATOM      1  O   UNL     1       1.155  -0.334  23.432  0.00  0.00    -0.446 OA
BRANCH   1  26
ATOM      5  O   UNL     1       2.482   0.274  21.672  0.00  0.00    -0.226 OA
ATOM     10  N   UNL     1       3.374  -0.442  23.715  0.00  0.00    -0.251 N 
ATOM     26  C   UNL     1       2.367  -0.127  22.824  0.00  0.00    +0.405 C 
ATOM     45  H   UNL     1       3.079  -0.761  24.634  0.00  0.00    +0.158 HD
BRANCH  10  28
ATOM     28  C   UNL     1       4.772  -0.376  23.508  0.00  0.00    +0.037 A 
ATOM     31  C   UNL     1       5.482   0.757  23.904  0.00  0.00    +0.027 A 
ATOM     32  C   UNL     1       5.439  -1.443  22.907  0.00  0.00    +0.027 A 
ATOM     36  C   UNL     1       6.860   0.823  23.699  0.00  0.00    +0.047 A 
ATOM     37  C   UNL     1       6.817  -1.378  22.702  0.00  0.00    +0.047 A 
ATOM     39  C   UNL     1       7.528  -0.244  23.098  0.00  0.00    +0.120 A 
BRANCH  39   8
ATOM      8  O   UNL     1       8.872  -0.179  22.896  0.00  0.00    -0.495 OA
ATOM     41  C   UNL     1       9.649   0.473  23.900  0.00  0.00    +0.277 C 
ENDBRANCH  39   8
ENDBRANCH  10  28
ENDBRANCH   1  26
ENDBRANCH  17   1
BRANCH  13  22
ATOM     22  C   UNL     1      -0.666  -0.198  25.637  0.00  0.00    +0.166 C 
BRANCH  22   3
ATOM      3  O   UNL     1      -0.143  -1.477  25.365  0.00  0.00    -0.394 OA
ATOM     43  H   UNL     1      -0.175  -1.985  26.194  0.00  0.00    +0.209 HD
ENDBRANCH  22   3
ENDBRANCH  13  22
BRANCH  14  24
ATOM     24  C   UNL     1      -3.039   4.364  26.115  0.00  0.00    +0.102 C 
BRANCH  24  25
ATOM      4  O   UNL     1      -5.260   4.191  25.168  0.00  0.00    -0.276 OA
ATOM      9  N   UNL     1      -4.184   2.285  25.953  0.00  0.00    -0.311 N 
ATOM     25  C   UNL     1      -4.290   3.642  25.684  0.00  0.00    +0.214 C 
ATOM     44  H   UNL     1      -3.336   1.921  26.376  0.00  0.00    +0.149 HD
BRANCH   9  27
ATOM     27  C   UNL     1      -5.232   1.337  25.650  0.00  0.00    +0.139 C 
BRANCH  27  29
ATOM      6  O   UNL     1      -4.578  -2.720  22.899  0.00  0.00    -0.453 OA
ATOM      7  O   UNL     1      -3.268  -3.808  24.605  0.00  0.00    -0.453 OA
ATOM     29  C   UNL     1      -4.689  -0.040  25.403  0.00  0.00    -0.027 A 
ATOM     30  C   UNL     1      -4.948  -0.680  24.189  0.00  0.00    +0.054 A 
ATOM     33  C   UNL     1      -3.925  -0.675  26.398  0.00  0.00    +0.009 A 
ATOM     34  C   UNL     1      -4.430  -1.946  24.009  0.00  0.00    +0.167 A 
ATOM     35  C   UNL     1      -3.412  -1.957  26.190  0.00  0.00    +0.050 A 
ATOM     38  C   UNL     1      -3.682  -2.568  24.983  0.00  0.00    +0.166 A 
ATOM     40  C   UNL     1      -3.840  -3.898  23.284  0.00  0.00    +0.466 C 
ENDBRANCH  27  29
ENDBRANCH   9  27
ENDBRANCH  24  25
ENDBRANCH  14  24
TORSDOF 11
ENDMDL
MODEL 2
REMARK VINA RESULT:       9.3      2.644      5.454
REMARK  Name = 23786327
REMARK  14 active torsions:
REMARK  status: ('A' for Active; 'I' for Inactive)
REMARK    1  A    between atoms: O_1  and  C_17
REMARK    2  A    between atoms: O_1  and  C_26
REMARK    3  A    between atoms: O_2  and  C_18
REMARK    4  A    between atoms: O_3  and  C_22
REMARK    5  A    between atoms: O_8  and  C_39
REMARK    6  A    between atoms: O_8  and  C_41
REMARK    7  A    between atoms: N_9  and  C_27
REMARK    8  A    between atoms: N_10  and  C_28
REMARK    9  A    between atoms: C_11  and  C_21
REMARK   10  A    between atoms: C_13  and  C_22
REMARK   11  A    between atoms: C_13  and  C_23
REMARK   12  A    between atoms: C_14  and  C_24
REMARK   13  A    between atoms: C_24  and  C_25
REMARK   14  A    between atoms: C_27  and  C_29
REMARK                            x       y       z     vdW  Elec       q    Type
REMARK                         _______ _______ _______ _____ _____    ______ ____
ROOT
ATOM     11  C   UNL     1      -3.348   2.132  24.596  0.00  0.00    -0.023 C 
ATOM     12  C   UNL     1      -3.592   1.074  25.748  0.00  0.00    +0.007 C 
ATOM     13  C   UNL     1      -3.016  -0.378  25.442  0.00  0.00    +0.031 C 
ATOM     14  C   UNL     1      -4.109   3.488  24.892  0.00  0.00    +0.032 C 
ATOM     15  C   UNL     1      -3.847   1.534  23.249  0.00  0.00    +0.011 C 
ATOM     16  C   UNL     1      -5.103   0.989  26.121  0.00  0.00    +0.007 C 
ATOM     17  C   UNL     1      -3.497  -0.860  24.043  0.00  0.00    +0.186 C 
ATOM     18  C   UNL     1      -5.603   3.265  25.196  0.00  0.00    +0.119 C 
ATOM     19  C   UNL     1      -3.267   0.158  22.927  0.00  0.00    +0.046 C 
ATOM     20  C   UNL     1      -5.783   2.326  26.371  0.00  0.00    +0.032 C 
ATOM     21  C   UNL     1      -1.848   2.495  24.428  0.00  0.00    +0.012 C 
ATOM     23  C   UNL     1      -3.501  -1.397  26.513  0.00  0.00    +0.017 C 
ENDROOT
BRANCH  18   2
ATOM      2  O   UNL     1      -6.261   4.494  25.492  0.00  0.00    -0.391 OA
ATOM     42  H   UNL     1      -5.609   5.089  25.901  0.00  0.00    +0.210 HD
ENDBRANCH  18   2
BRANCH  17   1
ATOM      1  O   UNL     1      -2.848  -2.071  23.655  0.00  0.00    -0.446 OA
BRANCH   1  26
ATOM      5  O   UNL     1      -0.787  -2.977  24.054  0.00  0.00    -0.226 OA
ATOM     10  N   UNL     1      -1.051  -0.845  23.123  0.00  0.00    -0.251 N 
ATOM     26  C   UNL     1      -1.477  -2.049  23.648  0.00  0.00    +0.405 C 
ATOM     45  H   UNL     1      -1.780  -0.195  22.838  0.00  0.00    +0.158 HD
BRANCH  10  28
ATOM     28  C   UNL     1       0.277  -0.400  22.931  0.00  0.00    +0.037 A 
ATOM     31  C   UNL     1       0.858   0.477  23.846  0.00  0.00    +0.027 A 
ATOM     32  C   UNL     1       1.007  -0.838  21.825  0.00  0.00    +0.027 A 
ATOM     36  C   UNL     1       2.168   0.917  23.657  0.00  0.00    +0.047 A 
ATOM     37  C   UNL     1       2.317  -0.399  21.635  0.00  0.00    +0.047 A 
ATOM     39  C   UNL     1       2.898   0.479  22.551  0.00  0.00    +0.120 A 
BRANCH  39   8
ATOM      8  O   UNL     1       4.175   0.910  22.365  0.00  0.00    -0.495 OA
ATOM     41  C   UNL     1       5.144   0.507  23.331  0.00  0.00    +0.277 C 
ENDBRANCH  39   8
ENDBRANCH  10  28
ENDBRANCH   1  26
ENDBRANCH  17   1
BRANCH  13  22
ATOM     22  C   UNL     1      -1.471  -0.420  25.545  0.00  0.00    +0.166 C 
BRANCH  22   3
ATOM      3  O   UNL     1      -1.139  -0.649  26.895  0.00  0.00    -0.394 OA
ATOM     43  H   UNL     1      -0.274  -0.235  27.054  0.00  0.00    +0.209 HD
ENDBRANCH  22   3
ENDBRANCH  13  22
BRANCH  14  24
ATOM     24  C   UNL     1      -3.449   4.329  26.011  0.00  0.00    +0.102 C 
BRANCH  24  25
ATOM      4  O   UNL     1      -1.484   5.469  25.176  0.00  0.00    -0.276 OA
ATOM      9  N   UNL     1      -1.257   3.451  26.306  0.00  0.00    -0.311 N 
ATOM     25  C   UNL     1      -1.973   4.511  25.769  0.00  0.00    +0.214 C 
ATOM     44  H   UNL     1      -1.750   2.705  26.788  0.00  0.00    +0.149 HD
BRANCH   9  27
ATOM     27  C   UNL     1       0.182   3.350  26.228  0.00  0.00    +0.139 C 
BRANCH  27  29
ATOM      6  O   UNL     1      -0.018   2.440  31.085  0.00  0.00    -0.453 OA
ATOM      7  O   UNL     1       2.332   1.917  31.203  0.00  0.00    -0.453 OA
ATOM     29  C   UNL     1       0.791   2.961  27.544  0.00  0.00    -0.027 A 
ATOM     30  C   UNL     1      -0.008   2.907  28.688  0.00  0.00    +0.054 A 
ATOM     33  C   UNL     1       2.162   2.656  27.613  0.00  0.00    +0.009 A 
ATOM     34  C   UNL     1       0.597   2.546  29.874  0.00  0.00    +0.167 A 
ATOM     35  C   UNL     1       2.749   2.293  28.827  0.00  0.00    +0.050 A 
ATOM     38  C   UNL     1       1.938   2.248  29.943  0.00  0.00    +0.166 A 
ATOM     40  C   UNL     1       1.087   2.042  31.921  0.00  0.00    +0.466 C 
ENDBRANCH  27  29
ENDBRANCH   9  27
ENDBRANCH  24  25
ENDBRANCH  14  24
TORSDOF 11
ENDMDL
MODEL 3
REMARK VINA RESULT:       9.4      1.981      3.109
REMARK  Name = 23786327
REMARK  14 active torsions:
REMARK  status: ('A' for Active; 'I' for Inactive)
REMARK    1  A    between atoms: O_1  and  C_17
REMARK    2  A    between atoms: O_1  and  C_26
REMARK    3  A    between atoms: O_2  and  C_18
REMARK    4  A    between atoms: O_3  and  C_22
REMARK    5  A    between atoms: O_8  and  C_39
REMARK    6  A    between atoms: O_8  and  C_41
REMARK    7  A    between atoms: N_9  and  C_27
REMARK    8  A    between atoms: N_10  and  C_28
REMARK    9  A    between atoms: C_11  and  C_21
REMARK   10  A    between atoms: C_13  and  C_22
REMARK   11  A    between atoms: C_13  and  C_23
REMARK   12  A    between atoms: C_14  and  C_24
REMARK   13  A    between atoms: C_24  and  C_25
REMARK   14  A    between atoms: C_27  and  C_29
REMARK                            x       y       z     vdW  Elec       q    Type
REMARK                         _______ _______ _______ _____ _____    ______ ____
ROOT
ATOM     11  C   UNL     1      -3.195   3.561  25.751  0.00  0.00    -0.023 C 
ATOM     12  C   UNL     1      -3.357   2.884  24.329  0.00  0.00    +0.007 C 
ATOM     13  C   UNL     1      -1.986   2.603  23.572  0.00  0.00    +0.031 C 
ATOM     14  C   UNL     1      -4.599   3.977  26.352  0.00  0.00    +0.032 C 
ATOM     15  C   UNL     1      -2.291   4.819  25.610  0.00  0.00    +0.011 C 
ATOM     16  C   UNL     1      -4.317   3.712  23.421  0.00  0.00    +0.007 C 
ATOM     17  C   UNL     1      -1.113   3.891  23.552  0.00  0.00    +0.186 C 
ATOM     18  C   UNL     1      -5.424   4.833  25.372  0.00  0.00    +0.119 C 
ATOM     19  C   UNL     1      -0.954   4.550  24.922  0.00  0.00    +0.046 C 
ATOM     20  C   UNL     1      -5.640   4.100  24.062  0.00  0.00    +0.032 C 
ATOM     21  C   UNL     1      -2.533   2.615  26.789  0.00  0.00    +0.012 C 
ATOM     23  C   UNL     1      -2.250   2.158  22.105  0.00  0.00    +0.017 C 
ENDROOT
BRANCH  18   2
ATOM      2  O   UNL     1      -6.696   5.168  25.919  0.00  0.00    -0.391 OA
ATOM     42  H   UNL     1      -6.700   4.891  26.851  0.00  0.00    +0.210 HD
ENDBRANCH  18   2
BRANCH  17   1
ATOM      1  O   UNL     1       0.198   3.626  23.052  0.00  0.00    -0.446 OA
BRANCH   1  26
ATOM      5  O   UNL     1       0.800   2.461  24.926  0.00  0.00    -0.226 OA
ATOM     10  N   UNL     1       1.777   2.052  22.838  0.00  0.00    -0.251 N 
ATOM     26  C   UNL     1       0.925   2.678  23.726  0.00  0.00    +0.405 C 
ATOM     45  H   UNL     1       1.736   2.373  21.873  0.00  0.00    +0.158 HD
BRANCH  10  28
ATOM     28  C   UNL     1       2.703   1.017  23.102  0.00  0.00    +0.037 A 
ATOM     31  C   UNL     1       2.248  -0.280  23.341  0.00  0.00    +0.027 A 
ATOM     32  C   UNL     1       4.070   1.292  23.124  0.00  0.00    +0.027 A 
ATOM     36  C   UNL     1       3.161  -1.302  23.602  0.00  0.00    +0.047 A 
ATOM     37  C   UNL     1       4.983   0.271  23.386  0.00  0.00    +0.047 A 
ATOM     39  C   UNL     1       4.529  -1.027  23.625  0.00  0.00    +0.120 A 
BRANCH  39   8
ATOM      8  O   UNL     1       5.420  -2.023  23.882  0.00  0.00    -0.495 OA
ATOM     41  C   UNL     1       6.614  -1.663  24.575  0.00  0.00    +0.277 C 
ENDBRANCH  39   8
ENDBRANCH  10  28
ENDBRANCH   1  26
ENDBRANCH  17   1
BRANCH  13  22
ATOM     22  C   UNL     1      -1.214   1.416  24.199  0.00  0.00    +0.166 C 
BRANCH  22   3
ATOM      3  O   UNL     1      -0.818   0.562  23.151  0.00  0.00    -0.394 OA
ATOM     43  H   UNL     1       0.114   0.331  23.301  0.00  0.00    +0.209 HD
ENDBRANCH  22   3
ENDBRANCH  13  22
BRANCH  14  24
ATOM     24  C   UNL     1      -5.432   2.773  26.853  0.00  0.00    +0.102 C 
BRANCH  24  25
ATOM      4  O   UNL     1      -6.788   2.064  24.976  0.00  0.00    -0.276 OA
ATOM      9  N   UNL     1      -4.966   0.782  25.637  0.00  0.00    -0.311 N 
ATOM     25  C   UNL     1      -5.829   1.864  25.718  0.00  0.00    +0.214 C 
ATOM     44  H   UNL     1      -4.193   0.704  26.291  0.00  0.00    +0.149 HD
BRANCH   9  27
ATOM     27  C   UNL     1      -5.098  -0.261  24.645  0.00  0.00    +0.139 C 
BRANCH  27  29
ATOM      6  O   UNL     1      -0.442  -1.455  25.808  0.00  0.00    -0.453 OA
ATOM      7  O   UNL     1      -0.556  -3.547  24.615  0.00  0.00    -0.453 OA
ATOM     29  C   UNL     1      -3.901  -1.166  24.617  0.00  0.00    -0.027 A 
ATOM     30  C   UNL     1      -2.731  -0.789  25.281  0.00  0.00    +0.054 A 
ATOM     33  C   UNL     1      -3.967  -2.386  23.922  0.00  0.00    +0.009 A 
ATOM     34  C   UNL     1      -1.657  -1.653  25.226  0.00  0.00    +0.167 A 
ATOM     35  C   UNL     1      -2.865  -3.243  23.882  0.00  0.00    +0.050 A 
ATOM     38  C   UNL     1      -1.721  -2.847  24.545  0.00  0.00    +0.166 A 
ATOM     40  C   UNL     1       0.250  -2.658  25.417  0.00  0.00    +0.466 C 
ENDBRANCH  27  29
ENDBRANCH   9  27
ENDBRANCH  24  25
ENDBRANCH  14  24
TORSDOF 11
ENDMDL
MODEL 4
REMARK VINA RESULT:      10.5      1.502      4.745
REMARK  Name = 23786327
REMARK  14 active torsions:
REMARK  status: ('A' for Active; 'I' for Inactive)
REMARK    1  A    between atoms: O_1  and  C_17
REMARK    2  A    between atoms: O_1  and  C_26
REMARK    3  A    between atoms: O_2  and  C_18
REMARK    4  A    between atoms: O_3  and  C_22
REMARK    5  A    between atoms: O_8  and  C_39
REMARK    6  A    between atoms: O_8  and  C_41
REMARK    7  A    between atoms: N_9  and  C_27
REMARK    8  A    between atoms: N_10  and  C_28
REMARK    9  A    between atoms: C_11  and  C_21
REMARK   10  A    between atoms: C_13  and  C_22
REMARK   11  A    between atoms: C_13  and  C_23
REMARK   12  A    between atoms: C_14  and  C_24
REMARK   13  A    between atoms: C_24  and  C_25
REMARK   14  A    between atoms: C_27  and  C_29
REMARK                            x       y       z     vdW  Elec       q    Type
REMARK                         _______ _______ _______ _____ _____    ______ ____
ROOT
ATOM     11  C   UNL     1      -3.358   0.102  23.859  0.00  0.00    -0.023 C 
ATOM     12  C   UNL     1      -2.417  -0.495  24.982  0.00  0.00    +0.007 C 
ATOM     13  C   UNL     1      -0.975   0.175  25.061  0.00  0.00    +0.031 C 
ATOM     14  C   UNL     1      -4.693  -0.738  23.722  0.00  0.00    +0.032 C 
ATOM     15  C   UNL     1      -2.593   0.094  22.504  0.00  0.00    +0.011 C 
ATOM     16  C   UNL     1      -2.287  -2.042  24.842  0.00  0.00    +0.007 C 
ATOM     17  C   UNL     1      -0.320   0.199  23.649  0.00  0.00    +0.186 C 
ATOM     18  C   UNL     1      -4.420  -2.243  23.539  0.00  0.00    +0.119 C 
ATOM     19  C   UNL     1      -1.225   0.773  22.559  0.00  0.00    +0.046 C 
ATOM     20  C   UNL     1      -3.602  -2.790  24.692  0.00  0.00    +0.032 C 
ATOM     21  C   UNL     1      -3.786   1.565  24.154  0.00  0.00    +0.012 C 
ATOM     23  C   UNL     1      -0.051  -0.622  26.024  0.00  0.00    +0.017 C 
ENDROOT
BRANCH  18   2
ATOM      2  O   UNL     1      -5.634  -2.984  23.451  0.00  0.00    -0.391 OA
ATOM     42  H   UNL     1      -5.888  -3.244  24.353  0.00  0.00    +0.210 HD
ENDBRANCH  18   2
BRANCH  17   1
ATOM      1  O   UNL     1       0.886   0.962  23.646  0.00  0.00    -0.446 OA
BRANCH   1  26
ATOM      5  O   UNL     1       1.876  -0.268  21.992  0.00  0.00    -0.226 OA
ATOM     10  N   UNL     1       3.106   0.682  23.742  0.00  0.00    -0.251 N 
ATOM     26  C   UNL     1       1.965   0.390  23.022  0.00  0.00    +0.405 C 
ATOM     45  H   UNL     1       2.979   1.247  24.578  0.00  0.00    +0.158 HD
BRANCH  10  28
ATOM     28  C   UNL     1       4.437   0.294  23.461  0.00  0.00    +0.037 A 
ATOM     31  C   UNL     1       5.351   0.136  24.501  0.00  0.00    +0.027 A 
ATOM     32  C   UNL     1       4.834   0.070  22.142  0.00  0.00    +0.027 A 
ATOM     36  C   UNL     1       6.664  -0.246  24.225  0.00  0.00    +0.047 A 
ATOM     37  C   UNL     1       6.146  -0.313  21.865  0.00  0.00    +0.047 A 
ATOM     39  C   UNL     1       7.062  -0.470  22.906  0.00  0.00    +0.120 A 
BRANCH  39   8
ATOM      8  O   UNL     1       8.343  -0.841  22.635  0.00  0.00    -0.495 OA
ATOM     41  C   UNL     1       9.381   0.014  23.114  0.00  0.00    +0.277 C 
ENDBRANCH  39   8
ENDBRANCH  10  28
ENDBRANCH   1  26
ENDBRANCH  17   1
BRANCH  13  22
ATOM     22  C   UNL     1      -1.032   1.597  25.673  0.00  0.00    +0.166 C 
BRANCH  22   3
ATOM      3  O   UNL     1       0.263   1.921  26.121  0.00  0.00    -0.394 OA
ATOM     43  H   UNL     1       0.172   2.329  26.999  0.00  0.00    +0.209 HD
ENDBRANCH  22   3
ENDBRANCH  13  22
BRANCH  14  24
ATOM     24  C   UNL     1      -5.684  -0.506  24.887  0.00  0.00    +0.102 C 
BRANCH  24  25
ATOM      4  O   UNL     1      -6.773   1.570  24.282  0.00  0.00    -0.276 OA
ATOM      9  N   UNL     1      -5.387   1.491  26.147  0.00  0.00    -0.311 N 
ATOM     25  C   UNL     1      -6.028   0.954  25.040  0.00  0.00    +0.214 C 
ATOM     44  H   UNL     1      -4.795   0.899  26.721  0.00  0.00    +0.149 HD
BRANCH   9  27
ATOM     27  C   UNL     1      -5.526   2.873  26.545  0.00  0.00    +0.139 C 
BRANCH  27  29
ATOM      6  O   UNL     1      -0.993   4.689  25.766  0.00  0.00    -0.453 OA
ATOM      7  O   UNL     1      -1.751   6.146  24.003  0.00  0.00    -0.453 OA
ATOM     29  C   UNL     1      -4.542   3.762  25.842  0.00  0.00    -0.027 A 
ATOM     30  C   UNL     1      -3.196   3.738  26.215  0.00  0.00    +0.054 A 
ATOM     33  C   UNL     1      -4.985   4.613  24.813  0.00  0.00    +0.009 A 
ATOM     34  C   UNL     1      -2.331   4.575  25.542  0.00  0.00    +0.167 A 
ATOM     35  C   UNL     1      -4.086   5.449  24.147  0.00  0.00    +0.050 A 
ATOM     38  C   UNL     1      -2.763   5.408  24.535  0.00  0.00    +0.166 A 
ATOM     40  C   UNL     1      -0.633   5.686  24.789  0.00  0.00    +0.466 C 
ENDBRANCH  27  29
ENDBRANCH   9  27
ENDBRANCH  24  25
ENDBRANCH  14  24
TORSDOF 11
ENDMDL
