MODEL 1
REMARK VINA RESULT:       4.0      0.000      0.000
REMARK  Name = 75536035
REMARK  8 active torsions:
REMARK  status: ('A' for Active; 'I' for Inactive)
REMARK    1  A    between atoms: O_5  and  C_31
REMARK    2  A    between atoms: O_5  and  C_36
REMARK    3  A    between atoms: N_11  and  C_27
REMARK    4  A    between atoms: C_13  and  C_18
REMARK    5  A    between atoms: C_14  and  C_23
REMARK    6  A    between atoms: C_27  and  C_30
REMARK    7  A    between atoms: C_27  and  C_31
REMARK    8  A    between atoms: C_30  and  C_32
REMARK                            x       y       z     vdW  Elec       q    Type
REMARK                         _______ _______ _______ _____ _____    ______ ____
ROOT
ATOM      1  O   UNL     1       3.792   1.970  23.449  0.00  0.00    -0.275 OA
ATOM      2  O   UNL     1      -4.512  -2.851  23.969  0.00  0.00    -0.377 OA
ATOM      4  O   UNL     1      -1.193  -0.489  26.845  0.00  0.00    -0.252 OA
ATOM      7  N   UNL     1       1.704   0.947  23.429  0.00  0.00    -0.298 N 
ATOM      8  N   UNL     1      -0.793   0.403  24.750  0.00  0.00    -0.271 N 
ATOM     10  N   UNL     1      -2.543  -1.190  25.114  0.00  0.00    -0.281 N 
ATOM     14  C   UNL     1       0.138   1.406  25.285  0.00  0.00    +0.181 C 
ATOM     15  C   UNL     1       1.069   1.995  24.225  0.00  0.00    +0.139 C 
ATOM     16  C   UNL     1       0.841  -0.159  22.997  0.00  0.00    +0.127 C 
ATOM     17  C   UNL     1      -0.632   0.078  23.324  0.00  0.00    +0.129 C 
ATOM     18  C   UNL     1       3.055   1.048  23.094  0.00  0.00    +0.219 C 
ATOM     24  C   UNL     1      -1.490  -0.432  25.645  0.00  0.00    +0.306 C 
ATOM     25  C   UNL     1      -3.629  -0.623  24.305  0.00  0.00    +0.137 C 
ATOM     26  C   UNL     1      -2.874  -2.478  25.720  0.00  0.00    +0.137 C 
ATOM     28  C   UNL     1      -4.124  -1.648  23.296  0.00  0.00    +0.179 C 
ATOM     29  C   UNL     1      -3.405  -3.435  24.662  0.00  0.00    +0.179 C 
ENDROOT
BRANCH  18  13
ATOM      9  N   UNL     1       5.530  -1.668  23.759  0.00  0.00    -0.316 NA
ATOM     13  C   UNL     1       3.606  -0.058  22.239  0.00  0.00    +0.078 C 
ATOM     19  C   UNL     1       5.119   0.088  22.065  0.00  0.00    +0.028 C 
ATOM     20  C   UNL     1       3.252  -1.427  22.823  0.00  0.00    +0.028 C 
ATOM     21  C   UNL     1       5.889  -0.318  23.324  0.00  0.00    +0.081 C 
ATOM     22  C   UNL     1       4.100  -1.770  24.049  0.00  0.00    +0.081 C 
ATOM     38  H   UNL     1       6.062  -1.906  24.595  0.00  0.00    +0.122 HD
ENDBRANCH  18  13
BRANCH  14  23
ATOM      3  O   UNL     1      -0.781   2.723  27.050  0.00  0.00    -0.274 OA
ATOM     11  N   UNL     1      -1.434   3.161  24.859  0.00  0.00    -0.301 N 
ATOM     23  C   UNL     1      -0.725   2.496  25.844  0.00  0.00    +0.236 C 
ATOM     39  H   UNL     1      -1.326   2.871  23.891  0.00  0.00    +0.150 HD
BRANCH  11  27
ATOM     27  C   UNL     1      -2.354   4.239  25.139  0.00  0.00    +0.186 C 
BRANCH  27  31
ATOM      6  O   UNL     1      -2.329   6.655  25.089  0.00  0.00    -0.249 OA
ATOM     31  C   UNL     1      -1.702   5.607  24.977  0.00  0.00    +0.328 C 
BRANCH  31   5
ATOM      5  O   UNL     1      -0.376   5.510  24.684  0.00  0.00    -0.467 OA
ATOM     36  C   UNL     1      -0.061   5.233  23.315  0.00  0.00    +0.280 C 
ENDBRANCH  31   5
ENDBRANCH  27  31
BRANCH  27  30
ATOM     30  C   UNL     1      -3.645   4.116  24.317  0.00  0.00    +0.070 C 
BRANCH  30  32
ATOM     12  N   UNL     1      -6.056   2.639  26.844  0.00  0.00    -0.263 NA
ATOM     32  C   UNL     1      -4.701   3.223  24.928  0.00  0.00    -0.027 A 
ATOM     33  C   UNL     1      -5.283   2.196  24.195  0.00  0.00    +0.006 A 
ATOM     34  C   UNL     1      -5.118   3.401  26.237  0.00  0.00    +0.114 A 
ATOM     35  C   UNL     1      -6.251   1.389  24.785  0.00  0.00    +0.020 A 
ATOM     37  C   UNL     1      -6.599   1.650  26.100  0.00  0.00    +0.111 A 
ENDBRANCH  30  32
ENDBRANCH  27  30
ENDBRANCH  11  27
ENDBRANCH  14  23
TORSDOF 7
ENDMDL
