MODEL 1
REMARK VINA RESULT:      -5.3      0.000      0.000
REMARK  Name = 75536703
REMARK  12 active torsions:
REMARK  status: ('A' for Active; 'I' for Inactive)
REMARK    1  A    between atoms: S_1  and  N_7
REMARK    2  A    between atoms: S_1  and  C_18
REMARK    3  A    between atoms: O_3  and  C_9
REMARK    4  A    between atoms: N_6  and  C_8
REMARK    5  A    between atoms: N_6  and  C_13
REMARK    6  A    between atoms: N_7  and  C_14
REMARK    7  A    between atoms: C_10  and  C_14
REMARK    8  A    between atoms: C_12  and  C_13
REMARK    9  A    between atoms: C_12  and  C_15
REMARK   10  A    between atoms: C_12  and  C_16
REMARK   11  A    between atoms: C_12  and  C_17
REMARK   12  A    between atoms: C_23  and  C_24
REMARK                            x       y       z     vdW  Elec       q    Type
REMARK                         _______ _______ _______ _____ _____    ______ ____
ROOT
ATOM      2  O   UNL     1       0.849   1.106  23.828  0.00  0.00    -0.371 OA
ATOM      8  C   UNL     1      -0.772  -0.570  24.279  0.00  0.00    +0.111 C 
ATOM      9  C   UNL     1      -0.784   0.446  25.406  0.00  0.00    +0.164 C 
ATOM     10  C   UNL     1      -0.135   1.644  24.727  0.00  0.00    +0.164 C 
ATOM     11  C   UNL     1       0.579  -0.294  23.640  0.00  0.00    +0.181 C 
ENDROOT
BRANCH   9   3
ATOM      3  O   UNL     1      -2.091   0.741  25.861  0.00  0.00    -0.388 OA
ATOM     26  H   UNL     1      -2.703   0.093  25.472  0.00  0.00    +0.210 HD
ENDBRANCH   9   3
BRANCH   8   6
ATOM      6  N   UNL     1      -0.914  -1.945  24.730  0.00  0.00    -0.308 NA
ATOM     25  H   UNL     1      -1.167  -1.945  25.717  0.00  0.00    +0.122 HD
BRANCH   6  13
ATOM     13  C   UNL     1      -1.940  -2.645  23.969  0.00  0.00    +0.087 C 
BRANCH  13  12
ATOM     12  C   UNL     1      -3.390  -2.315  24.408  0.00  0.00    -0.025 C 
ATOM     15  C   UNL     1      -4.291  -3.506  24.031  0.00  0.00    +0.012 C 
ATOM     16  C   UNL     1      -3.465  -2.105  25.931  0.00  0.00    +0.012 C 
ATOM     17  C   UNL     1      -3.916  -1.057  23.695  0.00  0.00    +0.012 C 
ENDBRANCH  13  12
ENDBRANCH   6  13
ENDBRANCH   8   6
BRANCH  10  14
ATOM     14  C   UNL     1       0.530   2.599  25.703  0.00  0.00    +0.140 C 
BRANCH  14   7
ATOM      7  N   UNL     1      -0.412   3.677  26.061  0.00  0.00    -0.187 NA
ATOM     27  H   UNL     1      -0.855   3.593  26.985  0.00  0.00    +0.148 HD
BRANCH   7   1
ATOM      1  S   UNL     1      -1.240   4.526  24.841  0.00  0.00    +0.058 S 
ATOM      4  O   UNL     1      -0.604   4.270  23.562  0.00  0.00    -0.153 OA
ATOM      5  O   UNL     1      -1.463   5.890  25.283  0.00  0.00    -0.153 OA
BRANCH   1  18
ATOM     18  C   UNL     1      -2.812   3.720  24.841  0.00  0.00    +0.105 A 
ATOM     19  C   UNL     1      -3.644   3.815  25.956  0.00  0.00    +0.029 A 
ATOM     20  C   UNL     1      -3.220   2.986  23.726  0.00  0.00    +0.029 A 
ATOM     21  C   UNL     1      -4.885   3.176  25.957  0.00  0.00    +0.005 A 
ATOM     22  C   UNL     1      -4.460   2.348  23.727  0.00  0.00    +0.005 A 
ATOM     23  C   UNL     1      -5.292   2.443  24.842  0.00  0.00    -0.050 A 
ATOM     24  C   UNL     1      -6.618   1.759  24.844  0.00  0.00    +0.044 C 
ENDBRANCH   1  18
ENDBRANCH   7   1
ENDBRANCH  14   7
ENDBRANCH  10  14
TORSDOF 8
ENDMDL
MODEL 2
REMARK VINA RESULT:      -4.9      2.269      4.498
REMARK  Name = 75536703
REMARK  12 active torsions:
REMARK  status: ('A' for Active; 'I' for Inactive)
REMARK    1  A    between atoms: S_1  and  N_7
REMARK    2  A    between atoms: S_1  and  C_18
REMARK    3  A    between atoms: O_3  and  C_9
REMARK    4  A    between atoms: N_6  and  C_8
REMARK    5  A    between atoms: N_6  and  C_13
REMARK    6  A    between atoms: N_7  and  C_14
REMARK    7  A    between atoms: C_10  and  C_14
REMARK    8  A    between atoms: C_12  and  C_13
REMARK    9  A    between atoms: C_12  and  C_15
REMARK   10  A    between atoms: C_12  and  C_16
REMARK   11  A    between atoms: C_12  and  C_17
REMARK   12  A    between atoms: C_23  and  C_24
REMARK                            x       y       z     vdW  Elec       q    Type
REMARK                         _______ _______ _______ _____ _____    ______ ____
ROOT
ATOM      2  O   UNL     1      -1.078   2.566  26.359  0.00  0.00    -0.371 OA
ATOM      8  C   UNL     1       0.197   1.883  24.476  0.00  0.00    +0.111 C 
ATOM      9  C   UNL     1      -0.566   3.147  24.125  0.00  0.00    +0.164 C 
ATOM     10  C   UNL     1      -0.860   3.705  25.510  0.00  0.00    +0.164 C 
ATOM     11  C   UNL     1      -0.571   1.397  25.693  0.00  0.00    +0.181 C 
ENDROOT
BRANCH   9   3
ATOM      3  O   UNL     1       0.197   4.047  23.345  0.00  0.00    -0.388 OA
ATOM     26  H   UNL     1      -0.046   4.953  23.599  0.00  0.00    +0.210 HD
ENDBRANCH   9   3
BRANCH   8   6
ATOM      6  N   UNL     1       0.231   0.904  23.400  0.00  0.00    -0.308 NA
ATOM     25  H   UNL     1       0.496   1.373  22.535  0.00  0.00    +0.122 HD
BRANCH   6  13
ATOM     13  C   UNL     1       1.186  -0.158  23.687  0.00  0.00    +0.087 C 
BRANCH  13  12
ATOM     12  C   UNL     1       2.487  -0.083  22.846  0.00  0.00    -0.025 C 
ATOM     15  C   UNL     1       2.134  -0.406  21.381  0.00  0.00    +0.012 C 
ATOM     16  C   UNL     1       3.096   1.330  22.904  0.00  0.00    +0.012 C 
ATOM     17  C   UNL     1       3.528  -1.105  23.335  0.00  0.00    +0.012 C 
ENDBRANCH  13  12
ENDBRANCH   6  13
ENDBRANCH   8   6
BRANCH  10  14
ATOM     14  C   UNL     1      -2.078   4.611  25.546  0.00  0.00    +0.140 C 
BRANCH  14   7
ATOM      7  N   UNL     1      -3.257   3.840  25.986  0.00  0.00    -0.187 NA
ATOM     27  H   UNL     1      -3.121   3.253  26.819  0.00  0.00    +0.148 HD
BRANCH   7   1
ATOM      1  S   UNL     1      -4.445   3.381  24.858  0.00  0.00    +0.058 S 
ATOM      4  O   UNL     1      -4.176   4.027  23.588  0.00  0.00    -0.153 OA
ATOM      5  O   UNL     1      -5.753   3.502  25.475  0.00  0.00    -0.153 OA
BRANCH   1  18
ATOM     18  C   UNL     1      -4.120   1.654  24.673  0.00  0.00    +0.105 A 
ATOM     19  C   UNL     1      -3.501   1.182  23.516  0.00  0.00    +0.029 A 
ATOM     20  C   UNL     1      -4.484   0.763  25.683  0.00  0.00    +0.029 A 
ATOM     21  C   UNL     1      -3.247  -0.182  23.368  0.00  0.00    +0.005 A 
ATOM     22  C   UNL     1      -4.230  -0.600  25.535  0.00  0.00    +0.005 A 
ATOM     23  C   UNL     1      -3.611  -1.073  24.377  0.00  0.00    -0.050 A 
ATOM     24  C   UNL     1      -3.339  -2.531  24.219  0.00  0.00    +0.044 C 
ENDBRANCH   1  18
ENDBRANCH   7   1
ENDBRANCH  14   7
ENDBRANCH  10  14
TORSDOF 8
ENDMDL
MODEL 3
REMARK VINA RESULT:      -4.9      2.439      4.841
REMARK  Name = 75536703
REMARK  12 active torsions:
REMARK  status: ('A' for Active; 'I' for Inactive)
REMARK    1  A    between atoms: S_1  and  N_7
REMARK    2  A    between atoms: S_1  and  C_18
REMARK    3  A    between atoms: O_3  and  C_9
REMARK    4  A    between atoms: N_6  and  C_8
REMARK    5  A    between atoms: N_6  and  C_13
REMARK    6  A    between atoms: N_7  and  C_14
REMARK    7  A    between atoms: C_10  and  C_14
REMARK    8  A    between atoms: C_12  and  C_13
REMARK    9  A    between atoms: C_12  and  C_15
REMARK   10  A    between atoms: C_12  and  C_16
REMARK   11  A    between atoms: C_12  and  C_17
REMARK   12  A    between atoms: C_23  and  C_24
REMARK                            x       y       z     vdW  Elec       q    Type
REMARK                         _______ _______ _______ _____ _____    ______ ____
ROOT
ATOM      2  O   UNL     1      -1.548   4.629  25.372  0.00  0.00    -0.371 OA
ATOM      8  C   UNL     1      -0.340   2.874  24.324  0.00  0.00    +0.111 C 
ATOM      9  C   UNL     1      -1.811   2.505  24.366  0.00  0.00    +0.164 C 
ATOM     10  C   UNL     1      -2.451   3.874  24.548  0.00  0.00    +0.164 C 
ATOM     11  C   UNL     1      -0.273   3.964  25.379  0.00  0.00    +0.181 C 
ENDROOT
BRANCH   9   3
ATOM      3  O   UNL     1      -2.250   1.870  23.181  0.00  0.00    -0.388 OA
ATOM     26  H   UNL     1      -2.884   2.458  22.736  0.00  0.00    +0.210 HD
ENDBRANCH   9   3
BRANCH   8   6
ATOM      6  N   UNL     1       0.550   1.758  24.604  0.00  0.00    -0.308 NA
ATOM     25  H   UNL     1      -0.009   0.947  24.867  0.00  0.00    +0.122 HD
BRANCH   6  13
ATOM     13  C   UNL     1       1.363   1.429  23.441  0.00  0.00    +0.087 C 
BRANCH  13  12
ATOM     12  C   UNL     1       1.368  -0.079  23.079  0.00  0.00    -0.025 C 
ATOM     15  C   UNL     1       2.763  -0.648  23.403  0.00  0.00    +0.012 C 
ATOM     16  C   UNL     1       0.320  -0.844  23.907  0.00  0.00    +0.012 C 
ATOM     17  C   UNL     1       1.088  -0.295  21.581  0.00  0.00    +0.012 C 
ENDBRANCH  13  12
ENDBRANCH   6  13
ENDBRANCH   8   6
BRANCH  10  14
ATOM     14  C   UNL     1      -3.819   3.816  25.205  0.00  0.00    +0.140 C 
BRANCH  14   7
ATOM      7  N   UNL     1      -4.717   2.959  24.406  0.00  0.00    -0.187 NA
ATOM     27  H   UNL     1      -5.033   3.356  23.513  0.00  0.00    +0.148 HD
BRANCH   7   1
ATOM      1  S   UNL     1      -5.705   1.808  25.177  0.00  0.00    +0.058 S 
ATOM      4  O   UNL     1      -6.926   1.636  24.413  0.00  0.00    -0.153 OA
ATOM      5  O   UNL     1      -5.768   2.113  26.594  0.00  0.00    -0.153 OA
BRANCH   1  18
ATOM     18  C   UNL     1      -4.743   0.335  25.008  0.00  0.00    +0.105 A 
ATOM     19  C   UNL     1      -3.916  -0.081  26.052  0.00  0.00    +0.029 A 
ATOM     20  C   UNL     1      -4.810  -0.410  23.831  0.00  0.00    +0.029 A 
ATOM     21  C   UNL     1      -3.155  -1.242  25.918  0.00  0.00    +0.005 A 
ATOM     22  C   UNL     1      -4.049  -1.572  23.697  0.00  0.00    +0.005 A 
ATOM     23  C   UNL     1      -3.222  -1.988  24.740  0.00  0.00    -0.050 A 
ATOM     24  C   UNL     1      -2.408  -3.230  24.597  0.00  0.00    +0.044 C 
ENDBRANCH   1  18
ENDBRANCH   7   1
ENDBRANCH  14   7
ENDBRANCH  10  14
TORSDOF 8
ENDMDL
MODEL 4
REMARK VINA RESULT:      -4.8      2.502      4.915
REMARK  Name = 75536703
REMARK  12 active torsions:
REMARK  status: ('A' for Active; 'I' for Inactive)
REMARK    1  A    between atoms: S_1  and  N_7
REMARK    2  A    between atoms: S_1  and  C_18
REMARK    3  A    between atoms: O_3  and  C_9
REMARK    4  A    between atoms: N_6  and  C_8
REMARK    5  A    between atoms: N_6  and  C_13
REMARK    6  A    between atoms: N_7  and  C_14
REMARK    7  A    between atoms: C_10  and  C_14
REMARK    8  A    between atoms: C_12  and  C_13
REMARK    9  A    between atoms: C_12  and  C_15
REMARK   10  A    between atoms: C_12  and  C_16
REMARK   11  A    between atoms: C_12  and  C_17
REMARK   12  A    between atoms: C_23  and  C_24
REMARK                            x       y       z     vdW  Elec       q    Type
REMARK                         _______ _______ _______ _____ _____    ______ ____
ROOT
ATOM      2  O   UNL     1       0.764  -0.675  23.329  0.00  0.00    -0.371 OA
ATOM      8  C   UNL     1       0.616   1.453  24.372  0.00  0.00    +0.111 C 
ATOM      9  C   UNL     1      -0.538   0.589  24.845  0.00  0.00    +0.164 C 
ATOM     10  C   UNL     1      -0.007  -0.804  24.534  0.00  0.00    +0.164 C 
ATOM     11  C   UNL     1       1.045   0.719  23.113  0.00  0.00    +0.181 C 
ENDROOT
BRANCH   9   3
ATOM      3  O   UNL     1      -0.814   0.753  26.223  0.00  0.00    -0.388 OA
ATOM     26  H   UNL     1      -1.197   1.637  26.354  0.00  0.00    +0.210 HD
ENDBRANCH   9   3
BRANCH   8   6
ATOM      6  N   UNL     1       0.244   2.837  24.121  0.00  0.00    -0.308 NA
ATOM     25  H   UNL     1       0.605   3.117  23.210  0.00  0.00    +0.122 HD
BRANCH   6  13
ATOM     13  C   UNL     1      -1.203   3.004  24.140  0.00  0.00    +0.087 C 
BRANCH  13  12
ATOM     12  C   UNL     1      -1.682   4.290  24.862  0.00  0.00    -0.025 C 
ATOM     15  C   UNL     1      -2.827   4.908  24.037  0.00  0.00    +0.012 C 
ATOM     16  C   UNL     1      -2.212   3.962  26.270  0.00  0.00    +0.012 C 
ATOM     17  C   UNL     1      -0.547   5.322  24.975  0.00  0.00    +0.012 C 
ENDBRANCH  13  12
ENDBRANCH   6  13
ENDBRANCH   8   6
BRANCH  10  14
ATOM     14  C   UNL     1      -1.104  -1.834  24.333  0.00  0.00    +0.140 C 
BRANCH  14   7
ATOM      7  N   UNL     1      -2.331  -1.165  23.860  0.00  0.00    -0.187 NA
ATOM     27  H   UNL     1      -2.196  -0.252  23.408  0.00  0.00    +0.148 HD
BRANCH   7   1
ATOM      1  S   UNL     1      -3.820  -1.478  24.622  0.00  0.00    +0.058 S 
ATOM      4  O   UNL     1      -3.578  -2.051  25.932  0.00  0.00    -0.153 OA
ATOM      5  O   UNL     1      -4.699  -2.149  23.682  0.00  0.00    -0.153 OA
BRANCH   1  18
ATOM     18  C   UNL     1      -4.460   0.154  24.850  0.00  0.00    +0.105 A 
ATOM     19  C   UNL     1      -4.142   1.161  23.939  0.00  0.00    +0.029 A 
ATOM     20  C   UNL     1      -5.280   0.435  25.943  0.00  0.00    +0.029 A 
ATOM     21  C   UNL     1      -4.644   2.450  24.120  0.00  0.00    +0.005 A 
ATOM     22  C   UNL     1      -5.782   1.724  26.124  0.00  0.00    +0.005 A 
ATOM     23  C   UNL     1      -5.465   2.731  25.213  0.00  0.00    -0.050 A 
ATOM     24  C   UNL     1      -6.002   4.109  25.407  0.00  0.00    +0.044 C 
ENDBRANCH   1  18
ENDBRANCH   7   1
ENDBRANCH  14   7
ENDBRANCH  10  14
TORSDOF 8
ENDMDL
MODEL 5
REMARK VINA RESULT:      -4.8      1.162      2.127
REMARK  Name = 75536703
REMARK  12 active torsions:
REMARK  status: ('A' for Active; 'I' for Inactive)
REMARK    1  A    between atoms: S_1  and  N_7
REMARK    2  A    between atoms: S_1  and  C_18
REMARK    3  A    between atoms: O_3  and  C_9
REMARK    4  A    between atoms: N_6  and  C_8
REMARK    5  A    between atoms: N_6  and  C_13
REMARK    6  A    between atoms: N_7  and  C_14
REMARK    7  A    between atoms: C_10  and  C_14
REMARK    8  A    between atoms: C_12  and  C_13
REMARK    9  A    between atoms: C_12  and  C_15
REMARK   10  A    between atoms: C_12  and  C_16
REMARK   11  A    between atoms: C_12  and  C_17
REMARK   12  A    between atoms: C_23  and  C_24
REMARK                            x       y       z     vdW  Elec       q    Type
REMARK                         _______ _______ _______ _____ _____    ______ ____
ROOT
ATOM      2  O   UNL     1      -0.168   1.413  25.735  0.00  0.00    -0.371 OA
ATOM      8  C   UNL     1      -0.217  -0.679  24.613  0.00  0.00    +0.111 C 
ATOM      9  C   UNL     1       0.303   0.381  23.660  0.00  0.00    +0.164 C 
ATOM     10  C   UNL     1       0.759   1.455  24.638  0.00  0.00    +0.164 C 
ATOM     11  C   UNL     1      -0.896   0.174  25.671  0.00  0.00    +0.181 C 
ENDROOT
BRANCH   9   3
ATOM      3  O   UNL     1       1.368  -0.085  22.853  0.00  0.00    -0.388 OA
ATOM     26  H   UNL     1       1.739  -0.883  23.268  0.00  0.00    +0.210 HD
ENDBRANCH   9   3
BRANCH   8   6
ATOM      6  N   UNL     1      -1.121  -1.632  23.989  0.00  0.00    -0.308 NA
ATOM     25  H   UNL     1      -1.183  -2.463  24.576  0.00  0.00    +0.122 HD
BRANCH   6  13
ATOM     13  C   UNL     1      -2.451  -1.061  23.818  0.00  0.00    +0.087 C 
BRANCH  13  12
ATOM     12  C   UNL     1      -3.570  -1.832  24.565  0.00  0.00    -0.025 C 
ATOM     15  C   UNL     1      -3.967  -1.018  25.812  0.00  0.00    +0.012 C 
ATOM     16  C   UNL     1      -4.812  -1.996  23.670  0.00  0.00    +0.012 C 
ATOM     17  C   UNL     1      -3.085  -3.220  25.020  0.00  0.00    +0.012 C 
ENDBRANCH  13  12
ENDBRANCH   6  13
ENDBRANCH   8   6
BRANCH  10  14
ATOM     14  C   UNL     1       0.778   2.848  24.034  0.00  0.00    +0.140 C 
BRANCH  14   7
ATOM      7  N   UNL     1      -0.606   3.329  23.856  0.00  0.00    -0.187 NA
ATOM     27  H   UNL     1      -0.877   3.560  22.893  0.00  0.00    +0.148 HD
BRANCH   7   1
ATOM      1  S   UNL     1      -1.405   4.119  25.134  0.00  0.00    +0.058 S 
ATOM      4  O   UNL     1      -1.533   5.530  24.821  0.00  0.00    -0.153 OA
ATOM      5  O   UNL     1      -0.813   3.702  26.391  0.00  0.00    -0.153 OA
BRANCH   1  18
ATOM     18  C   UNL     1      -3.015   3.395  25.057  0.00  0.00    +0.105 A 
ATOM     19  C   UNL     1      -3.333   2.509  24.028  0.00  0.00    +0.029 A 
ATOM     20  C   UNL     1      -3.969   3.711  26.025  0.00  0.00    +0.029 A 
ATOM     21  C   UNL     1      -4.604   1.939  23.965  0.00  0.00    +0.005 A 
ATOM     22  C   UNL     1      -5.241   3.141  25.962  0.00  0.00    +0.005 A 
ATOM     23  C   UNL     1      -5.559   2.255  24.933  0.00  0.00    -0.050 A 
ATOM     24  C   UNL     1      -6.919   1.646  24.866  0.00  0.00    +0.044 C 
ENDBRANCH   1  18
ENDBRANCH   7   1
ENDBRANCH  14   7
ENDBRANCH  10  14
TORSDOF 8
ENDMDL
MODEL 6
REMARK VINA RESULT:      -4.6      2.608      4.661
REMARK  Name = 75536703
REMARK  12 active torsions:
REMARK  status: ('A' for Active; 'I' for Inactive)
REMARK    1  A    between atoms: S_1  and  N_7
REMARK    2  A    between atoms: S_1  and  C_18
REMARK    3  A    between atoms: O_3  and  C_9
REMARK    4  A    between atoms: N_6  and  C_8
REMARK    5  A    between atoms: N_6  and  C_13
REMARK    6  A    between atoms: N_7  and  C_14
REMARK    7  A    between atoms: C_10  and  C_14
REMARK    8  A    between atoms: C_12  and  C_13
REMARK    9  A    between atoms: C_12  and  C_15
REMARK   10  A    between atoms: C_12  and  C_16
REMARK   11  A    between atoms: C_12  and  C_17
REMARK   12  A    between atoms: C_23  and  C_24
REMARK                            x       y       z     vdW  Elec       q    Type
REMARK                         _______ _______ _______ _____ _____    ______ ____
ROOT
ATOM      2  O   UNL     1      -1.461  -0.908  26.036  0.00  0.00    -0.371 OA
ATOM      8  C   UNL     1      -3.749  -0.945  25.400  0.00  0.00    +0.111 C 
ATOM      9  C   UNL     1      -2.936  -1.702  24.367  0.00  0.00    +0.164 C 
ATOM     10  C   UNL     1      -1.680  -2.028  25.164  0.00  0.00    +0.164 C 
ATOM     11  C   UNL     1      -2.670  -0.131  26.094  0.00  0.00    +0.181 C 
ENDROOT
BRANCH   9   3
ATOM      3  O   UNL     1      -3.588  -2.871  23.907  0.00  0.00    -0.388 OA
ATOM     26  H   UNL     1      -3.005  -3.631  24.075  0.00  0.00    +0.210 HD
ENDBRANCH   9   3
BRANCH   8   6
ATOM      6  N   UNL     1      -4.800  -0.120  24.826  0.00  0.00    -0.308 NA
ATOM     25  H   UNL     1      -5.689  -0.373  25.253  0.00  0.00    +0.122 HD
BRANCH   6  13
ATOM     13  C   UNL     1      -4.540   1.296  25.054  0.00  0.00    +0.087 C 
BRANCH  13  12
ATOM     12  C   UNL     1      -5.801   2.118  25.427  0.00  0.00    -0.025 C 
ATOM     15  C   UNL     1      -6.287   1.653  26.813  0.00  0.00    +0.012 C 
ATOM     16  C   UNL     1      -5.473   3.620  25.500  0.00  0.00    +0.012 C 
ATOM     17  C   UNL     1      -6.934   1.894  24.410  0.00  0.00    +0.012 C 
ENDBRANCH  13  12
ENDBRANCH   6  13
ENDBRANCH   8   6
BRANCH  10  14
ATOM     14  C   UNL     1      -0.456  -2.247  24.292  0.00  0.00    +0.140 C 
BRANCH  14   7
ATOM      7  N   UNL     1       0.499  -1.141  24.493  0.00  0.00    -0.187 NA
ATOM     27  H   UNL     1       0.677  -0.876  25.470  0.00  0.00    +0.148 HD
BRANCH   7   1
ATOM      1  S   UNL     1       0.702   0.040  23.285  0.00  0.00    +0.058 S 
ATOM      4  O   UNL     1      -0.002  -0.374  22.086  0.00  0.00    -0.153 OA
ATOM      5  O   UNL     1       2.102   0.411  23.217  0.00  0.00    -0.153 OA
BRANCH   1  18
ATOM     18  C   UNL     1      -0.163   1.417  23.977  0.00  0.00    +0.105 A 
ATOM     19  C   UNL     1      -1.302   1.915  23.344  0.00  0.00    +0.029 A 
ATOM     20  C   UNL     1       0.294   2.007  25.156  0.00  0.00    +0.029 A 
ATOM     21  C   UNL     1      -1.983   3.004  23.889  0.00  0.00    +0.005 A 
ATOM     22  C   UNL     1      -0.388   3.096  25.701  0.00  0.00    +0.005 A 
ATOM     23  C   UNL     1      -1.526   3.594  25.068  0.00  0.00    -0.050 A 
ATOM     24  C   UNL     1      -2.255   4.758  25.650  0.00  0.00    +0.044 C 
ENDBRANCH   1  18
ENDBRANCH   7   1
ENDBRANCH  14   7
ENDBRANCH  10  14
TORSDOF 8
ENDMDL
MODEL 7
REMARK VINA RESULT:      -4.5      2.862      4.588
REMARK  Name = 75536703
REMARK  12 active torsions:
REMARK  status: ('A' for Active; 'I' for Inactive)
REMARK    1  A    between atoms: S_1  and  N_7
REMARK    2  A    between atoms: S_1  and  C_18
REMARK    3  A    between atoms: O_3  and  C_9
REMARK    4  A    between atoms: N_6  and  C_8
REMARK    5  A    between atoms: N_6  and  C_13
REMARK    6  A    between atoms: N_7  and  C_14
REMARK    7  A    between atoms: C_10  and  C_14
REMARK    8  A    between atoms: C_12  and  C_13
REMARK    9  A    between atoms: C_12  and  C_15
REMARK   10  A    between atoms: C_12  and  C_16
REMARK   11  A    between atoms: C_12  and  C_17
REMARK   12  A    between atoms: C_23  and  C_24
REMARK                            x       y       z     vdW  Elec       q    Type
REMARK                         _______ _______ _______ _____ _____    ______ ____
ROOT
ATOM      2  O   UNL     1      -3.001  -2.799  23.717  0.00  0.00    -0.371 OA
ATOM      8  C   UNL     1      -1.369  -1.998  25.245  0.00  0.00    +0.111 C 
ATOM      9  C   UNL     1      -2.636  -1.177  25.398  0.00  0.00    +0.164 C 
ATOM     10  C   UNL     1      -3.669  -2.115  24.790  0.00  0.00    +0.164 C 
ATOM     11  C   UNL     1      -1.583  -2.627  23.878  0.00  0.00    +0.181 C 
ENDROOT
BRANCH   9   3
ATOM      3  O   UNL     1      -2.929  -0.872  26.748  0.00  0.00    -0.388 OA
ATOM     26  H   UNL     1      -3.443  -1.607  27.122  0.00  0.00    +0.210 HD
ENDBRANCH   9   3
BRANCH   8   6
ATOM      6  N   UNL     1      -0.149  -1.210  25.321  0.00  0.00    -0.308 NA
ATOM     25  H   UNL     1       0.459  -1.466  24.544  0.00  0.00    +0.122 HD
BRANCH   6  13
ATOM     13  C   UNL     1      -0.440   0.216  25.257  0.00  0.00    +0.087 C 
BRANCH  13  12
ATOM     12  C   UNL     1      -0.062   0.879  23.907  0.00  0.00    -0.025 C 
ATOM     15  C   UNL     1       0.672   2.200  24.206  0.00  0.00    +0.012 C 
ATOM     16  C   UNL     1       0.875  -0.032  23.094  0.00  0.00    +0.012 C 
ATOM     17  C   UNL     1      -1.315   1.194  23.070  0.00  0.00    +0.012 C 
ENDBRANCH  13  12
ENDBRANCH   6  13
ENDBRANCH   8   6
BRANCH  10  14
ATOM     14  C   UNL     1      -4.894  -1.395  24.256  0.00  0.00    +0.140 C 
BRANCH  14   7
ATOM      7  N   UNL     1      -4.579   0.033  24.051  0.00  0.00    -0.187 NA
ATOM     27  H   UNL     1      -3.663   0.231  23.630  0.00  0.00    +0.148 HD
BRANCH   7   1
ATOM      1  S   UNL     1      -5.282   1.213  25.054  0.00  0.00    +0.058 S 
ATOM      4  O   UNL     1      -5.356   0.707  26.412  0.00  0.00    -0.153 OA
ATOM      5  O   UNL     1      -6.470   1.737  24.406  0.00  0.00    -0.153 OA
BRANCH   1  18
ATOM     18  C   UNL     1      -4.065   2.493  25.014  0.00  0.00    +0.105 A 
ATOM     19  C   UNL     1      -4.051   3.409  23.962  0.00  0.00    +0.029 A 
ATOM     20  C   UNL     1      -3.118   2.587  26.034  0.00  0.00    +0.029 A 
ATOM     21  C   UNL     1      -3.088   4.418  23.929  0.00  0.00    +0.005 A 
ATOM     22  C   UNL     1      -2.155   3.597  26.000  0.00  0.00    +0.005 A 
ATOM     23  C   UNL     1      -2.141   4.512  24.948  0.00  0.00    -0.050 A 
ATOM     24  C   UNL     1      -1.111   5.591  24.912  0.00  0.00    +0.044 C 
ENDBRANCH   1  18
ENDBRANCH   7   1
ENDBRANCH  14   7
ENDBRANCH  10  14
TORSDOF 8
ENDMDL
MODEL 8
REMARK VINA RESULT:      -3.6      2.656      4.929
REMARK  Name = 75536703
REMARK  12 active torsions:
REMARK  status: ('A' for Active; 'I' for Inactive)
REMARK    1  A    between atoms: S_1  and  N_7
REMARK    2  A    between atoms: S_1  and  C_18
REMARK    3  A    between atoms: O_3  and  C_9
REMARK    4  A    between atoms: N_6  and  C_8
REMARK    5  A    between atoms: N_6  and  C_13
REMARK    6  A    between atoms: N_7  and  C_14
REMARK    7  A    between atoms: C_10  and  C_14
REMARK    8  A    between atoms: C_12  and  C_13
REMARK    9  A    between atoms: C_12  and  C_15
REMARK   10  A    between atoms: C_12  and  C_16
REMARK   11  A    between atoms: C_12  and  C_17
REMARK   12  A    between atoms: C_23  and  C_24
REMARK                            x       y       z     vdW  Elec       q    Type
REMARK                         _______ _______ _______ _____ _____    ______ ____
ROOT
ATOM      2  O   UNL     1      -2.150  -1.970  24.500  0.00  0.00    -0.371 OA
ATOM      8  C   UNL     1      -0.281  -0.524  24.262  0.00  0.00    +0.111 C 
ATOM      9  C   UNL     1      -1.283   0.113  25.207  0.00  0.00    +0.164 C 
ATOM     10  C   UNL     1      -2.088  -1.103  25.644  0.00  0.00    +0.164 C 
ATOM     11  C   UNL     1      -1.146  -1.554  23.557  0.00  0.00    +0.181 C 
ENDROOT
BRANCH   9   3
ATOM      3  O   UNL     1      -0.665   0.759  26.304  0.00  0.00    -0.388 OA
ATOM     26  H   UNL     1       0.045   1.329  25.962  0.00  0.00    +0.210 HD
ENDBRANCH   9   3
BRANCH   8   6
ATOM      6  N   UNL     1       0.337   0.420  23.345  0.00  0.00    -0.308 NA
ATOM     25  H   UNL     1      -0.219   1.273  23.323  0.00  0.00    +0.122 HD
BRANCH   6  13
ATOM     13  C   UNL     1       1.698   0.740  23.758  0.00  0.00    +0.087 C 
BRANCH  13  12
ATOM     12  C   UNL     1       2.794   0.172  22.819  0.00  0.00    -0.025 C 
ATOM     15  C   UNL     1       3.824   1.286  22.552  0.00  0.00    +0.012 C 
ATOM     16  C   UNL     1       3.516  -1.017  23.477  0.00  0.00    +0.012 C 
ATOM     17  C   UNL     1       2.198  -0.277  21.473  0.00  0.00    +0.012 C 
ENDBRANCH  13  12
ENDBRANCH   6  13
ENDBRANCH   8   6
BRANCH  10  14
ATOM     14  C   UNL     1      -3.494  -0.759  26.104  0.00  0.00    +0.140 C 
BRANCH  14   7
ATOM      7  N   UNL     1      -4.272  -0.232  24.966  0.00  0.00    -0.187 NA
ATOM     27  H   UNL     1      -3.925  -0.485  24.033  0.00  0.00    +0.148 HD
BRANCH   7   1
ATOM      1  S   UNL     1      -5.160   1.209  25.136  0.00  0.00    +0.058 S 
ATOM      4  O   UNL     1      -5.738   1.263  26.466  0.00  0.00    -0.153 OA
ATOM      5  O   UNL     1      -6.001   1.386  23.967  0.00  0.00    -0.153 OA
BRANCH   1  18
ATOM     18  C   UNL     1      -3.888   2.432  25.045  0.00  0.00    +0.105 A 
ATOM     19  C   UNL     1      -2.970   2.406  23.995  0.00  0.00    +0.029 A 
ATOM     20  C   UNL     1      -3.799   3.421  26.024  0.00  0.00    +0.029 A 
ATOM     21  C   UNL     1      -1.963   3.369  23.924  0.00  0.00    +0.005 A 
ATOM     22  C   UNL     1      -2.793   4.385  25.953  0.00  0.00    +0.005 A 
ATOM     23  C   UNL     1      -1.875   4.359  24.903  0.00  0.00    -0.050 A 
ATOM     24  C   UNL     1      -0.799   5.389  24.828  0.00  0.00    +0.044 C 
ENDBRANCH   1  18
ENDBRANCH   7   1
ENDBRANCH  14   7
ENDBRANCH  10  14
TORSDOF 8
ENDMDL
MODEL 9
REMARK VINA RESULT:      -3.6      3.028      6.866
REMARK  Name = 75536703
REMARK  12 active torsions:
REMARK  status: ('A' for Active; 'I' for Inactive)
REMARK    1  A    between atoms: S_1  and  N_7
REMARK    2  A    between atoms: S_1  and  C_18
REMARK    3  A    between atoms: O_3  and  C_9
REMARK    4  A    between atoms: N_6  and  C_8
REMARK    5  A    between atoms: N_6  and  C_13
REMARK    6  A    between atoms: N_7  and  C_14
REMARK    7  A    between atoms: C_10  and  C_14
REMARK    8  A    between atoms: C_12  and  C_13
REMARK    9  A    between atoms: C_12  and  C_15
REMARK   10  A    between atoms: C_12  and  C_16
REMARK   11  A    between atoms: C_12  and  C_17
REMARK   12  A    between atoms: C_23  and  C_24
REMARK                            x       y       z     vdW  Elec       q    Type
REMARK                         _______ _______ _______ _____ _____    ______ ____
ROOT
ATOM      2  O   UNL     1      -2.854  -1.673  25.504  0.00  0.00    -0.371 OA
ATOM      8  C   UNL     1      -4.064  -0.010  24.315  0.00  0.00    +0.111 C 
ATOM      9  C   UNL     1      -2.592   0.359  24.322  0.00  0.00    +0.164 C 
ATOM     10  C   UNL     1      -1.953  -0.991  24.616  0.00  0.00    +0.164 C 
ATOM     11  C   UNL     1      -4.129  -1.008  25.458  0.00  0.00    +0.181 C 
ENDROOT
BRANCH   9   3
ATOM      3  O   UNL     1      -2.156   0.892  23.086  0.00  0.00    -0.388 OA
ATOM     26  H   UNL     1      -2.872   0.782  22.437  0.00  0.00    +0.210 HD
ENDBRANCH   9   3
BRANCH   8   6
ATOM      6  N   UNL     1      -4.951   1.126  24.503  0.00  0.00    -0.308 NA
ATOM     25  H   UNL     1      -5.892   0.783  24.694  0.00  0.00    +0.122 HD
BRANCH   6  13
ATOM     13  C   UNL     1      -4.508   1.961  25.612  0.00  0.00    +0.087 C 
BRANCH  13  12
ATOM     12  C   UNL     1      -4.314   3.454  25.241  0.00  0.00    -0.025 C 
ATOM     15  C   UNL     1      -5.611   4.210  25.589  0.00  0.00    +0.012 C 
ATOM     16  C   UNL     1      -3.155   4.072  26.045  0.00  0.00    +0.012 C 
ATOM     17  C   UNL     1      -4.036   3.624  23.737  0.00  0.00    +0.012 C 
ENDBRANCH  13  12
ENDBRANCH   6  13
ENDBRANCH   8   6
BRANCH  10  14
ATOM     14  C   UNL     1      -0.583  -0.880  25.262  0.00  0.00    +0.140 C 
BRANCH  14   7
ATOM      7  N   UNL     1       0.462  -1.164  24.260  0.00  0.00    -0.187 NA
ATOM     27  H   UNL     1       1.145  -1.886  24.521  0.00  0.00    +0.148 HD
BRANCH   7   1
ATOM      1  S   UNL     1       0.940   0.043  23.161  0.00  0.00    +0.058 S 
ATOM      4  O   UNL     1       0.547   1.342  23.673  0.00  0.00    -0.153 OA
ATOM      5  O   UNL     1       0.555  -0.360  21.821  0.00  0.00    -0.153 OA
BRANCH   1  18
ATOM     18  C   UNL     1       2.702  -0.067  23.246  0.00  0.00    +0.105 A 
ATOM     19  C   UNL     1       3.306  -1.239  23.703  0.00  0.00    +0.029 A 
ATOM     20  C   UNL     1       3.488   1.018  22.860  0.00  0.00    +0.029 A 
ATOM     21  C   UNL     1       4.697  -1.325  23.773  0.00  0.00    +0.005 A 
ATOM     22  C   UNL     1       4.879   0.932  22.930  0.00  0.00    +0.005 A 
ATOM     23  C   UNL     1       5.483  -0.239  23.386  0.00  0.00    -0.050 A 
ATOM     24  C   UNL     1       6.970  -0.332  23.461  0.00  0.00    +0.044 C 
ENDBRANCH   1  18
ENDBRANCH   7   1
ENDBRANCH  14   7
ENDBRANCH  10  14
TORSDOF 8
ENDMDL
MODEL 10
REMARK VINA RESULT:      -3.1      2.723      5.184
REMARK  Name = 75536703
REMARK  12 active torsions:
REMARK  status: ('A' for Active; 'I' for Inactive)
REMARK    1  A    between atoms: S_1  and  N_7
REMARK    2  A    between atoms: S_1  and  C_18
REMARK    3  A    between atoms: O_3  and  C_9
REMARK    4  A    between atoms: N_6  and  C_8
REMARK    5  A    between atoms: N_6  and  C_13
REMARK    6  A    between atoms: N_7  and  C_14
REMARK    7  A    between atoms: C_10  and  C_14
REMARK    8  A    between atoms: C_12  and  C_13
REMARK    9  A    between atoms: C_12  and  C_15
REMARK   10  A    between atoms: C_12  and  C_16
REMARK   11  A    between atoms: C_12  and  C_17
REMARK   12  A    between atoms: C_23  and  C_24
REMARK                            x       y       z     vdW  Elec       q    Type
REMARK                         _______ _______ _______ _____ _____    ______ ____
ROOT
ATOM      2  O   UNL     1      -2.129   1.254  23.570  0.00  0.00    -0.371 OA
ATOM      8  C   UNL     1       0.120   1.366  24.323  0.00  0.00    +0.111 C 
ATOM      9  C   UNL     1      -0.554   2.701  24.580  0.00  0.00    +0.164 C 
ATOM     10  C   UNL     1      -2.022   2.297  24.553  0.00  0.00    +0.164 C 
ATOM     11  C   UNL     1      -0.810   0.753  23.291  0.00  0.00    +0.181 C 
ENDROOT
BRANCH   9   3
ATOM      3  O   UNL     1      -0.187   3.270  25.822  0.00  0.00    -0.388 OA
ATOM     26  H   UNL     1       0.620   2.825  26.134  0.00  0.00    +0.210 HD
ENDBRANCH   9   3
BRANCH   8   6
ATOM      6  N   UNL     1       1.490   1.486  23.851  0.00  0.00    -0.308 NA
ATOM     25  H   UNL     1       2.111   1.573  24.654  0.00  0.00    +0.122 HD
BRANCH   6  13
ATOM     13  C   UNL     1       1.878   0.323  23.064  0.00  0.00    +0.087 C 
BRANCH  13  12
ATOM     12  C   UNL     1       3.393   0.256  22.738  0.00  0.00    -0.025 C 
ATOM     15  C   UNL     1       4.052   1.555  23.239  0.00  0.00    +0.012 C 
ATOM     16  C   UNL     1       4.054  -0.937  23.450  0.00  0.00    +0.012 C 
ATOM     17  C   UNL     1       3.633   0.139  21.222  0.00  0.00    +0.012 C 
ENDBRANCH  13  12
ENDBRANCH   6  13
ENDBRANCH   8   6
BRANCH  10  14
ATOM     14  C   UNL     1      -2.953   3.441  24.191  0.00  0.00    +0.140 C 
BRANCH  14   7
ATOM      7  N   UNL     1      -4.288   2.906  23.859  0.00  0.00    -0.187 NA
ATOM     27  H   UNL     1      -4.779   3.380  23.090  0.00  0.00    +0.148 HD
BRANCH   7   1
ATOM      1  S   UNL     1      -5.215   2.126  25.053  0.00  0.00    +0.058 S 
ATOM      4  O   UNL     1      -6.603   2.086  24.633  0.00  0.00    -0.153 OA
ATOM      5  O   UNL     1      -4.862   2.665  26.352  0.00  0.00    -0.153 OA
BRANCH   1  18
ATOM     18  C   UNL     1      -4.578   0.479  24.987  0.00  0.00    +0.105 A 
ATOM     19  C   UNL     1      -4.730  -0.281  23.828  0.00  0.00    +0.029 A 
ATOM     20  C   UNL     1      -3.925  -0.061  26.095  0.00  0.00    +0.029 A 
ATOM     21  C   UNL     1      -4.229  -1.582  23.776  0.00  0.00    +0.005 A 
ATOM     22  C   UNL     1      -3.424  -1.362  26.044  0.00  0.00    +0.005 A 
ATOM     23  C   UNL     1      -3.576  -2.122  24.885  0.00  0.00    -0.050 A 
ATOM     24  C   UNL     1      -3.040  -3.514  24.830  0.00  0.00    +0.044 C 
ENDBRANCH   1  18
ENDBRANCH   7   1
ENDBRANCH  14   7
ENDBRANCH  10  14
TORSDOF 8
ENDMDL
