MODEL 1
REMARK VINA RESULT:      -4.6      0.000      0.000
REMARK  Name = 45783346
REMARK  9 active torsions:
REMARK  status: ('A' for Active; 'I' for Inactive)
REMARK    1  A    between atoms: O_3  and  C_25
REMARK    2  A    between atoms: O_3  and  C_27
REMARK    3  A    between atoms: O_4  and  C_28
REMARK    4  A    between atoms: O_4  and  C_29
REMARK    5  A    between atoms: N_5  and  C_13
REMARK    6  A    between atoms: C_9  and  C_14
REMARK    7  A    between atoms: C_13  and  C_15
REMARK    8  A    between atoms: C_18  and  C_21
REMARK    9  A    between atoms: C_27  and  C_28
REMARK                            x       y       z     vdW  Elec       q    Type
REMARK                         _______ _______ _______ _____ _____    ______ ____
ROOT
ATOM      2  O   UNL     1      -2.006   2.923  25.067  0.00  0.00    -0.336 OA
ATOM      6  N   UNL     1      -2.032   1.365  23.458  0.00  0.00    -0.190 NA
ATOM      7  N   UNL     1      -0.665   2.610  24.806  0.00  0.00    -0.056 NA
ATOM     14  C   UNL     1      -2.743   2.145  24.232  0.00  0.00    +0.245 A 
ATOM     18  C   UNL     1      -0.763   1.685  23.847  0.00  0.00    +0.202 A 
ENDROOT
BRANCH  18  21
ATOM      8  N   UNL     1       2.623  -0.157  22.108  0.00  0.00    -0.221 NA
ATOM     21  C   UNL     1       0.386   1.060  23.257  0.00  0.00    +0.029 A 
ATOM     23  C   UNL     1       1.656   1.576  23.487  0.00  0.00    +0.079 A 
ATOM     24  C   UNL     1       0.232  -0.063  22.453  0.00  0.00    +0.031 A 
ATOM     25  C   UNL     1       2.733   0.937  22.894  0.00  0.00    +0.215 A 
ATOM     26  C   UNL     1       1.373  -0.630  21.907  0.00  0.00    +0.115 A 
BRANCH  25   3
ATOM      3  O   UNL     1       3.996   1.426  23.106  0.00  0.00    -0.474 OA
BRANCH   3  27
ATOM     27  C   UNL     1       5.070   0.503  22.968  0.00  0.00    +0.258 C 
BRANCH  27  28
ATOM     28  C   UNL     1       5.758   0.341  24.309  0.00  0.00    +0.200 C 
BRANCH  28   4
ATOM      4  O   UNL     1       5.686  -1.023  24.706  0.00  0.00    -0.380 OA
ATOM     29  C   UNL     1       4.754  -1.748  23.916  0.00  0.00    +0.194 C 
ENDBRANCH  28   4
ENDBRANCH  27  28
ENDBRANCH   3  27
ENDBRANCH  25   3
ENDBRANCH  18  21
BRANCH  14   9
ATOM      5  N   UNL     1      -4.837   1.498  25.412  0.00  0.00    -0.287 NA
ATOM      9  C   UNL     1      -4.247   2.298  24.319  0.00  0.00    +0.146 C 
ATOM     10  C   UNL     1      -4.681   3.746  24.617  0.00  0.00    +0.030 C 
ATOM     11  C   UNL     1      -5.560   3.650  25.857  0.00  0.00    +0.017 C 
ATOM     12  C   UNL     1      -6.037   2.213  25.846  0.00  0.00    +0.085 C 
BRANCH   5  13
ATOM     13  C   UNL     1      -5.127   0.123  25.024  0.00  0.00    +0.123 C 
BRANCH  13  15
ATOM      1  F   UNL     1      -4.749  -2.098  23.308  0.00  0.00    -0.205 F 
ATOM     15  C   UNL     1      -3.894  -0.741  25.056  0.00  0.00    +0.002 A 
ATOM     16  C   UNL     1      -3.773  -1.821  24.182  0.00  0.00    +0.128 A 
ATOM     17  C   UNL     1      -2.872  -0.458  25.962  0.00  0.00    +0.008 A 
ATOM     19  C   UNL     1      -2.629  -2.618  24.213  0.00  0.00    +0.038 A 
ATOM     20  C   UNL     1      -1.728  -1.257  25.994  0.00  0.00    +0.000 A 
ATOM     22  C   UNL     1      -1.607  -2.336  25.120  0.00  0.00    +0.003 A 
ENDBRANCH  13  15
ENDBRANCH   5  13
ENDBRANCH  14   9
TORSDOF 8
ENDMDL
MODEL 2
REMARK VINA RESULT:      -3.2     15.223     16.770
REMARK  Name = 45783346
REMARK  9 active torsions:
REMARK  status: ('A' for Active; 'I' for Inactive)
REMARK    1  A    between atoms: O_3  and  C_25
REMARK    2  A    between atoms: O_3  and  C_27
REMARK    3  A    between atoms: O_4  and  C_28
REMARK    4  A    between atoms: O_4  and  C_29
REMARK    5  A    between atoms: N_5  and  C_13
REMARK    6  A    between atoms: C_9  and  C_14
REMARK    7  A    between atoms: C_13  and  C_15
REMARK    8  A    between atoms: C_18  and  C_21
REMARK    9  A    between atoms: C_27  and  C_28
REMARK                            x       y       z     vdW  Elec       q    Type
REMARK                         _______ _______ _______ _____ _____    ______ ____
ROOT
ATOM      2  O   UNL     1      -6.416  -8.408   9.433  0.00  0.00    -0.336 OA
ATOM      6  N   UNL     1      -6.427 -10.027  10.981  0.00  0.00    -0.190 NA
ATOM      7  N   UNL     1      -5.116  -8.459   9.952  0.00  0.00    -0.056 NA
ATOM     14  C   UNL     1      -7.123  -9.362  10.093  0.00  0.00    +0.245 A 
ATOM     18  C   UNL     1      -5.202  -9.437  10.859  0.00  0.00    +0.202 A 
ENDROOT
BRANCH  18  21
ATOM      8  N   UNL     1      -1.909 -10.651  13.218  0.00  0.00    -0.221 NA
ATOM     21  C   UNL     1      -4.085  -9.849  11.659  0.00  0.00    +0.029 A 
ATOM     23  C   UNL     1      -2.795  -9.772  11.148  0.00  0.00    +0.079 A 
ATOM     24  C   UNL     1      -4.289 -10.326  12.948  0.00  0.00    +0.031 A 
ATOM     25  C   UNL     1      -1.750 -10.182  11.960  0.00  0.00    +0.215 A 
ATOM     26  C   UNL     1      -3.177 -10.710  13.681  0.00  0.00    +0.115 A 
BRANCH  25   3
ATOM      3  O   UNL     1      -0.468 -10.117  11.479  0.00  0.00    -0.474 OA
BRANCH   3  27
ATOM     27  C   UNL     1      -0.055  -8.872  10.925  0.00  0.00    +0.258 C 
BRANCH  27  28
ATOM     28  C   UNL     1      -0.079  -7.815  12.012  0.00  0.00    +0.200 C 
BRANCH  28   4
ATOM      4  O   UNL     1       1.253  -7.558  12.439  0.00  0.00    -0.380 OA
ATOM     29  C   UNL     1       1.588  -6.184  12.302  0.00  0.00    +0.194 C 
ENDBRANCH  28   4
ENDBRANCH  27  28
ENDBRANCH   3  27
ENDBRANCH  25   3
ENDBRANCH  18  21
BRANCH  14   9
ATOM      5  N   UNL     1      -9.498  -9.123  10.798  0.00  0.00    -0.287 NA
ATOM      9  C   UNL     1      -8.580  -9.510   9.708  0.00  0.00    +0.146 C 
ATOM     10  C   UNL     1      -8.977  -8.608   8.525  0.00  0.00    +0.030 C 
ATOM     11  C   UNL     1     -10.163  -7.795   9.025  0.00  0.00    +0.017 C 
ATOM     12  C   UNL     1     -10.719  -8.634  10.157  0.00  0.00    +0.085 C 
BRANCH   5  13
ATOM     13  C   UNL     1      -9.767 -10.208  11.734  0.00  0.00    +0.123 C 
BRANCH  13  15
ATOM      1  F   UNL     1      -7.556 -10.781  13.410  0.00  0.00    -0.205 F 
ATOM     15  C   UNL     1      -9.679  -9.748  13.166  0.00  0.00    +0.002 A 
ATOM     16  C   UNL     1      -8.559 -10.066  13.935  0.00  0.00    +0.128 A 
ATOM     17  C   UNL     1     -10.718  -9.002  13.721  0.00  0.00    +0.008 A 
ATOM     19  C   UNL     1      -8.480  -9.638  15.260  0.00  0.00    +0.038 A 
ATOM     20  C   UNL     1     -10.639  -8.575  15.047  0.00  0.00    +0.000 A 
ATOM     22  C   UNL     1      -9.520  -8.893  15.816  0.00  0.00    +0.003 A 
ENDBRANCH  13  15
ENDBRANCH   5  13
ENDBRANCH  14   9
TORSDOF 8
ENDMDL
MODEL 3
REMARK VINA RESULT:      -2.0      2.249      3.637
REMARK  Name = 45783346
REMARK  9 active torsions:
REMARK  status: ('A' for Active; 'I' for Inactive)
REMARK    1  A    between atoms: O_3  and  C_25
REMARK    2  A    between atoms: O_3  and  C_27
REMARK    3  A    between atoms: O_4  and  C_28
REMARK    4  A    between atoms: O_4  and  C_29
REMARK    5  A    between atoms: N_5  and  C_13
REMARK    6  A    between atoms: C_9  and  C_14
REMARK    7  A    between atoms: C_13  and  C_15
REMARK    8  A    between atoms: C_18  and  C_21
REMARK    9  A    between atoms: C_27  and  C_28
REMARK                            x       y       z     vdW  Elec       q    Type
REMARK                         _______ _______ _______ _____ _____    ______ ____
ROOT
ATOM      2  O   UNL     1      -2.742  -0.987  25.417  0.00  0.00    -0.336 OA
ATOM      6  N   UNL     1      -2.049   0.805  24.266  0.00  0.00    -0.190 NA
ATOM      7  N   UNL     1      -1.553  -1.368  24.783  0.00  0.00    -0.056 NA
ATOM     14  C   UNL     1      -2.962   0.306  25.060  0.00  0.00    +0.245 A 
ATOM     18  C   UNL     1      -1.205  -0.259  24.124  0.00  0.00    +0.202 A 
ENDROOT
BRANCH  18  21
ATOM      8  N   UNL     1       2.278  -0.027  21.737  0.00  0.00    -0.221 NA
ATOM     21  C   UNL     1      -0.024  -0.180  23.314  0.00  0.00    +0.029 A 
ATOM     23  C   UNL     1       1.056   0.592  23.728  0.00  0.00    +0.079 A 
ATOM     24  C   UNL     1       0.046  -0.876  22.113  0.00  0.00    +0.031 A 
ATOM     25  C   UNL     1       2.173   0.636  22.910  0.00  0.00    +0.215 A 
ATOM     26  C   UNL     1       1.209  -0.767  21.368  0.00  0.00    +0.115 A 
BRANCH  25   3
ATOM      3  O   UNL     1       3.251   1.390  23.296  0.00  0.00    -0.474 OA
BRANCH   3  27
ATOM     27  C   UNL     1       4.520   1.000  22.785  0.00  0.00    +0.258 C 
BRANCH  27  28
ATOM     28  C   UNL     1       5.375   0.485  23.926  0.00  0.00    +0.200 C 
BRANCH  28   4
ATOM      4  O   UNL     1       5.674  -0.887  23.701  0.00  0.00    -0.380 OA
ATOM     29  C   UNL     1       4.542  -1.713  23.937  0.00  0.00    +0.194 C 
ENDBRANCH  28   4
ENDBRANCH  27  28
ENDBRANCH   3  27
ENDBRANCH  25   3
ENDBRANCH  18  21
BRANCH  14   9
ATOM      5  N   UNL     1      -4.250   2.414  25.367  0.00  0.00    -0.287 NA
ATOM      9  C   UNL     1      -4.205   0.960  25.624  0.00  0.00    +0.146 C 
ATOM     10  C   UNL     1      -5.502   0.413  24.998  0.00  0.00    +0.030 C 
ATOM     11  C   UNL     1      -6.236   1.638  24.470  0.00  0.00    +0.017 C 
ATOM     12  C   UNL     1      -5.665   2.777  25.288  0.00  0.00    +0.085 C 
BRANCH   5  13
ATOM     13  C   UNL     1      -3.537   3.196  26.369  0.00  0.00    +0.123 C 
BRANCH  13  15
ATOM      1  F   UNL     1      -0.927   2.096  26.429  0.00  0.00    -0.205 F 
ATOM     15  C   UNL     1      -2.337   3.894  25.786  0.00  0.00    +0.002 A 
ATOM     16  C   UNL     1      -1.079   3.295  25.850  0.00  0.00    +0.128 A 
ATOM     17  C   UNL     1      -2.485   5.142  25.181  0.00  0.00    +0.008 A 
ATOM     19  C   UNL     1       0.031   3.943  25.309  0.00  0.00    +0.038 A 
ATOM     20  C   UNL     1      -1.375   5.791  24.641  0.00  0.00    +0.000 A 
ATOM     22  C   UNL     1      -0.118   5.192  24.704  0.00  0.00    +0.003 A 
ENDBRANCH  13  15
ENDBRANCH   5  13
ENDBRANCH  14   9
TORSDOF 8
ENDMDL
MODEL 4
REMARK VINA RESULT:      -1.3      1.610      3.270
REMARK  Name = 45783346
REMARK  9 active torsions:
REMARK  status: ('A' for Active; 'I' for Inactive)
REMARK    1  A    between atoms: O_3  and  C_25
REMARK    2  A    between atoms: O_3  and  C_27
REMARK    3  A    between atoms: O_4  and  C_28
REMARK    4  A    between atoms: O_4  and  C_29
REMARK    5  A    between atoms: N_5  and  C_13
REMARK    6  A    between atoms: C_9  and  C_14
REMARK    7  A    between atoms: C_13  and  C_15
REMARK    8  A    between atoms: C_18  and  C_21
REMARK    9  A    between atoms: C_27  and  C_28
REMARK                            x       y       z     vdW  Elec       q    Type
REMARK                         _______ _______ _______ _____ _____    ______ ____
ROOT
ATOM      2  O   UNL     1      -1.214   0.905  25.818  0.00  0.00    -0.336 OA
ATOM      6  N   UNL     1      -1.099  -0.257  23.906  0.00  0.00    -0.190 NA
ATOM      7  N   UNL     1       0.060   1.150  25.288  0.00  0.00    -0.056 NA
ATOM     14  C   UNL     1      -1.829   0.067  24.943  0.00  0.00    +0.245 A 
ATOM     18  C   UNL     1       0.051   0.431  24.162  0.00  0.00    +0.202 A 
ENDROOT
BRANCH  18  21
ATOM      8  N   UNL     1       3.363   0.274  21.537  0.00  0.00    -0.221 NA
ATOM     21  C   UNL     1       1.175   0.378  23.272  0.00  0.00    +0.029 A 
ATOM     23  C   UNL     1       2.364   1.013  23.610  0.00  0.00    +0.079 A 
ATOM     24  C   UNL     1       1.078  -0.309  22.067  0.00  0.00    +0.031 A 
ATOM     25  C   UNL     1       3.420   0.932  22.716  0.00  0.00    +0.215 A 
ATOM     26  C   UNL     1       2.191  -0.332  21.243  0.00  0.00    +0.115 A 
BRANCH  25   3
ATOM      3  O   UNL     1       4.603   1.550  23.027  0.00  0.00    -0.474 OA
BRANCH   3  27
ATOM     27  C   UNL     1       5.412   0.923  24.015  0.00  0.00    +0.258 C 
BRANCH  27  28
ATOM     28  C   UNL     1       6.009  -0.344  23.434  0.00  0.00    +0.200 C 
BRANCH  28   4
ATOM      4  O   UNL     1       5.643  -1.448  24.253  0.00  0.00    -0.380 OA
ATOM     29  C   UNL     1       4.339  -1.919  23.941  0.00  0.00    +0.194 C 
ENDBRANCH  28   4
ENDBRANCH  27  28
ENDBRANCH   3  27
ENDBRANCH  25   3
ENDBRANCH  18  21
BRANCH  14   9
ATOM      5  N   UNL     1      -4.260   0.334  24.475  0.00  0.00    -0.287 NA
ATOM      9  C   UNL     1      -3.241  -0.355  25.292  0.00  0.00    +0.146 C 
ATOM     10  C   UNL     1      -3.492  -1.855  25.045  0.00  0.00    +0.030 C 
ATOM     11  C   UNL     1      -4.706  -1.909  24.128  0.00  0.00    +0.017 C 
ATOM     12  C   UNL     1      -5.395  -0.582  24.369  0.00  0.00    +0.085 C 
BRANCH   5  13
ATOM     13  C   UNL     1      -4.649   1.630  25.016  0.00  0.00    +0.123 C 
BRANCH  13  15
ATOM      1  F   UNL     1      -3.117   2.012  22.664  0.00  0.00    -0.205 F 
ATOM     15  C   UNL     1      -3.535   2.638  24.916  0.00  0.00    +0.002 A 
ATOM     16  C   UNL     1      -2.819   2.774  23.726  0.00  0.00    +0.128 A 
ATOM     17  C   UNL     1      -3.218   3.436  26.015  0.00  0.00    +0.008 A 
ATOM     19  C   UNL     1      -1.788   3.708  23.635  0.00  0.00    +0.038 A 
ATOM     20  C   UNL     1      -2.186   4.370  25.925  0.00  0.00    +0.000 A 
ATOM     22  C   UNL     1      -1.471   4.506  24.735  0.00  0.00    +0.003 A 
ENDBRANCH  13  15
ENDBRANCH   5  13
ENDBRANCH  14   9
TORSDOF 8
ENDMDL
