MODEL 1
REMARK VINA RESULT:      -4.2      0.000      0.000
REMARK  Name = 56775326
REMARK  5 active torsions:
REMARK  status: ('A' for Active; 'I' for Inactive)
REMARK    1  A    between atoms: O_5  and  C_17
REMARK    2  A    between atoms: O_5  and  C_19
REMARK    3  A    between atoms: N_7  and  C_14
REMARK    4  A    between atoms: N_8  and  C_18
REMARK    5  A    between atoms: C_14  and  C_17
REMARK                            x       y       z     vdW  Elec       q    Type
REMARK                         _______ _______ _______ _____ _____    ______ ____
ROOT
ATOM      2  O   UNL     1     -10.039  -8.322  14.524  0.00  0.00    -0.364 OA
ATOM      3  O   UNL     1     -10.324  -8.161  18.068  0.00  0.00    -0.273 OA
ATOM      4  O   UNL     1      -6.885  -9.963  11.443  0.00  0.00    -0.252 OA
ATOM      6  N   UNL     1      -7.808 -10.053  13.542  0.00  0.00    -0.281 N 
ATOM      7  N   UNL     1      -9.533  -9.908  16.750  0.00  0.00    -0.290 N 
ATOM      8  N   UNL     1      -5.481 -10.061  13.303  0.00  0.00    -0.269 N 
ATOM      9  C   UNL     1      -9.217 -10.400  15.415  0.00  0.00    +0.124 C 
ATOM     10  C   UNL     1     -10.019  -9.730  14.302  0.00  0.00    +0.158 C 
ATOM     11  C   UNL     1      -7.768 -10.123  15.002  0.00  0.00    +0.134 C 
ATOM     12  C   UNL     1      -9.185 -10.012  13.059  0.00  0.00    +0.143 C 
ATOM     13  C   UNL     1     -10.154  -8.680  16.963  0.00  0.00    +0.242 C 
ATOM     15  C   UNL     1     -10.718  -8.014  15.720  0.00  0.00    +0.256 C 
ATOM     16  C   UNL     1      -6.719 -10.023  12.663  0.00  0.00    +0.307 C 
ATOM     25  H   UNL     1      -5.472 -10.091  14.317  0.00  0.00    +0.156 HD
ENDROOT
BRANCH   8  18
ATOM      1  F   UNL     1      -0.446 -10.000  10.981  0.00  0.00    -0.205 F 
ATOM     18  C   UNL     1      -4.195 -10.045  12.710  0.00  0.00    +0.035 A 
ATOM     20  C   UNL     1      -4.046  -9.661  11.377  0.00  0.00    +0.026 A 
ATOM     21  C   UNL     1      -3.077 -10.413  13.458  0.00  0.00    +0.026 A 
ATOM     22  C   UNL     1      -2.780  -9.647  10.792  0.00  0.00    +0.040 A 
ATOM     23  C   UNL     1      -1.811 -10.399  12.873  0.00  0.00    +0.040 A 
ATOM     24  C   UNL     1      -1.662 -10.015  11.541  0.00  0.00    +0.124 A 
ENDBRANCH   8  18
BRANCH   7  14
ATOM     14  C   UNL     1      -9.028 -10.682  17.875  0.00  0.00    +0.136 C 
BRANCH  14  17
ATOM     17  C   UNL     1      -7.768 -10.065  18.455  0.00  0.00    +0.178 C 
BRANCH  17   5
ATOM      5  O   UNL     1      -7.536 -10.596  19.753  0.00  0.00    -0.381 OA
ATOM     19  C   UNL     1      -6.149 -10.781  20.001  0.00  0.00    +0.194 C 
ENDBRANCH  17   5
ENDBRANCH  14  17
ENDBRANCH   7  14
TORSDOF 4
ENDMDL
MODEL 2
REMARK VINA RESULT:      -2.5      1.678      2.368
REMARK  Name = 56775326
REMARK  5 active torsions:
REMARK  status: ('A' for Active; 'I' for Inactive)
REMARK    1  A    between atoms: O_5  and  C_17
REMARK    2  A    between atoms: O_5  and  C_19
REMARK    3  A    between atoms: N_7  and  C_14
REMARK    4  A    between atoms: N_8  and  C_18
REMARK    5  A    between atoms: C_14  and  C_17
REMARK                            x       y       z     vdW  Elec       q    Type
REMARK                         _______ _______ _______ _____ _____    ______ ____
ROOT
ATOM      2  O   UNL     1      -9.542  -9.105  11.891  0.00  0.00    -0.364 OA
ATOM      3  O   UNL     1     -10.719  -8.484  15.191  0.00  0.00    -0.273 OA
ATOM      4  O   UNL     1      -5.473 -10.421   9.929  0.00  0.00    -0.252 OA
ATOM      6  N   UNL     1      -6.853 -10.404  11.764  0.00  0.00    -0.281 N 
ATOM      7  N   UNL     1      -9.313 -10.181  14.443  0.00  0.00    -0.290 N 
ATOM      8  N   UNL     1      -4.580  -9.913  12.024  0.00  0.00    -0.269 N 
ATOM      9  C   UNL     1      -8.590 -10.781  13.330  0.00  0.00    +0.124 C 
ATOM     10  C   UNL     1      -9.203 -10.487  11.963  0.00  0.00    +0.158 C 
ATOM     11  C   UNL     1      -7.163 -10.244  13.184  0.00  0.00    +0.134 C 
ATOM     12  C   UNL     1      -8.050 -10.754  11.004  0.00  0.00    +0.143 C 
ATOM     13  C   UNL     1     -10.188  -9.110  14.273  0.00  0.00    +0.242 C 
ATOM     15  C   UNL     1     -10.541  -8.786  12.832  0.00  0.00    +0.256 C 
ATOM     16  C   UNL     1      -5.606 -10.258  11.144  0.00  0.00    +0.307 C 
ATOM     25  H   UNL     1      -4.817  -9.789  13.003  0.00  0.00    +0.156 HD
ENDROOT
BRANCH   8  18
ATOM      1  F   UNL     1       0.768  -9.050  10.844  0.00  0.00    -0.205 F 
ATOM     18  C   UNL     1      -3.214  -9.692  11.723  0.00  0.00    +0.035 A 
ATOM     20  C   UNL     1      -2.234  -9.984  12.672  0.00  0.00    +0.026 A 
ATOM     21  C   UNL     1      -2.848  -9.185  10.477  0.00  0.00    +0.026 A 
ATOM     22  C   UNL     1      -0.889  -9.766  12.376  0.00  0.00    +0.040 A 
ATOM     23  C   UNL     1      -1.502  -8.966  10.180  0.00  0.00    +0.040 A 
ATOM     24  C   UNL     1      -0.524  -9.258  11.130  0.00  0.00    +0.124 A 
ENDBRANCH   8  18
BRANCH   7  14
ATOM     14  C   UNL     1      -8.966 -10.640  15.781  0.00  0.00    +0.136 C 
BRANCH  14  17
ATOM     17  C   UNL     1      -8.388  -9.518  16.623  0.00  0.00    +0.178 C 
BRANCH  17   5
ATOM      5  O   UNL     1      -7.487 -10.060  17.580  0.00  0.00    -0.381 OA
ATOM     19  C   UNL     1      -6.381 -10.696  16.954  0.00  0.00    +0.194 C 
ENDBRANCH  17   5
ENDBRANCH  14  17
ENDBRANCH   7  14
TORSDOF 4
ENDMDL
