MODEL 1
REMARK VINA RESULT:      -4.1      0.000      0.000
REMARK  Name = 56775723
REMARK  9 active torsions:
REMARK  status: ('A' for Active; 'I' for Inactive)
REMARK    1  A    between atoms: O_3  and  C_20
REMARK    2  A    between atoms: N_4  and  C_6
REMARK    3  A    between atoms: N_4  and  C_10
REMARK    4  A    between atoms: N_4  and  C_11
REMARK    5  A    between atoms: C_6  and  C_9
REMARK    6  A    between atoms: C_9  and  C_12
REMARK    7  A    between atoms: C_10  and  C_13
REMARK    8  A    between atoms: C_11  and  C_14
REMARK    9  A    between atoms: C_16  and  C_17
REMARK                            x       y       z     vdW  Elec       q    Type
REMARK                         _______ _______ _______ _____ _____    ______ ____
ROOT
ATOM      2  O   UNL     1      -4.953 -10.292  14.561  0.00  0.00    -0.354 OA
ATOM      5  N   UNL     1      -5.026 -10.334  13.174  0.00  0.00    -0.083 NA
ATOM     12  C   UNL     1      -6.302 -10.628  12.905  0.00  0.00    +0.086 A 
ATOM     15  C   UNL     1      -7.072 -10.781  14.071  0.00  0.00    +0.076 A 
ATOM     16  C   UNL     1      -6.177 -10.559  15.084  0.00  0.00    +0.168 A 
ENDROOT
BRANCH  16  17
ATOM     17  C   UNL     1      -6.258 -10.548  16.515  0.00  0.00    +0.023 A 
ATOM     18  C   UNL     1      -7.491 -10.376  17.143  0.00  0.00    +0.057 A 
ATOM     19  C   UNL     1      -5.102 -10.709  17.281  0.00  0.00    +0.012 A 
ATOM     20  C   UNL     1      -7.570 -10.365  18.535  0.00  0.00    +0.118 A 
ATOM     21  C   UNL     1      -5.180 -10.696  18.672  0.00  0.00    +0.004 A 
ATOM     22  C   UNL     1      -6.414 -10.524  19.301  0.00  0.00    +0.045 A 
BRANCH  20   3
ATOM      3  O   UNL     1      -8.773 -10.195  19.148  0.00  0.00    -0.507 OA
ATOM     23  H   UNL     1      -9.177 -11.067  19.297  0.00  0.00    +0.292 HD
ENDBRANCH  20   3
ENDBRANCH  16  17
BRANCH  12   9
ATOM      9  C   UNL     1      -6.760 -10.759  11.468  0.00  0.00    +0.085 C 
BRANCH   9   6
ATOM      1  O   UNL     1      -4.870  -8.259  10.291  0.00  0.00    -0.376 OA
ATOM      6  C   UNL     1      -6.572  -9.470  10.729  0.00  0.00    +0.074 C 
ATOM      7  C   UNL     1      -5.503  -9.387   9.646  0.00  0.00    +0.184 C 
ATOM      8  C   UNL     1      -5.796  -8.342  11.399  0.00  0.00    +0.184 C 
BRANCH   6   4
ATOM      4  N   UNL     1      -7.833  -8.924  10.195  0.00  0.00    -0.293 NA
BRANCH   4  10
ATOM     10  C   UNL     1      -7.661  -8.623   8.774  0.00  0.00    +0.082 C 
ATOM     13  C   UNL     1      -8.165  -7.229   8.443  0.00  0.00    +0.020 C 
ENDBRANCH   4  10
BRANCH   4  11
ATOM     11  C   UNL     1      -8.900  -9.905  10.388  0.00  0.00    +0.082 C 
ATOM     14  C   UNL     1     -10.211  -9.226  10.747  0.00  0.00    +0.020 C 
ENDBRANCH   4  11
ENDBRANCH   6   4
ENDBRANCH   9   6
ENDBRANCH  12   9
TORSDOF 7
ENDMDL
MODEL 2
REMARK VINA RESULT:      -3.6     15.675     17.299
REMARK  Name = 56775723
REMARK  9 active torsions:
REMARK  status: ('A' for Active; 'I' for Inactive)
REMARK    1  A    between atoms: O_3  and  C_20
REMARK    2  A    between atoms: N_4  and  C_6
REMARK    3  A    between atoms: N_4  and  C_10
REMARK    4  A    between atoms: N_4  and  C_11
REMARK    5  A    between atoms: C_6  and  C_9
REMARK    6  A    between atoms: C_9  and  C_12
REMARK    7  A    between atoms: C_10  and  C_13
REMARK    8  A    between atoms: C_11  and  C_14
REMARK    9  A    between atoms: C_16  and  C_17
REMARK                            x       y       z     vdW  Elec       q    Type
REMARK                         _______ _______ _______ _____ _____    ______ ____
ROOT
ATOM      2  O   UNL     1       0.378  -0.743  23.876  0.00  0.00    -0.354 OA
ATOM      5  N   UNL     1      -0.981  -0.451  23.918  0.00  0.00    -0.083 NA
ATOM     12  C   UNL     1      -1.075   0.812  23.492  0.00  0.00    +0.086 A 
ATOM     15  C   UNL     1       0.177   1.363  23.171  0.00  0.00    +0.076 A 
ATOM     16  C   UNL     1       1.056   0.344  23.429  0.00  0.00    +0.168 A 
ENDROOT
BRANCH  16  17
ATOM     17  C   UNL     1       2.479   0.192  23.329  0.00  0.00    +0.023 A 
ATOM     18  C   UNL     1       3.079  -1.012  23.696  0.00  0.00    +0.057 A 
ATOM     19  C   UNL     1       3.262   1.250  22.865  0.00  0.00    +0.012 A 
ATOM     20  C   UNL     1       4.463  -1.159  23.600  0.00  0.00    +0.118 A 
ATOM     21  C   UNL     1       4.645   1.103  22.770  0.00  0.00    +0.004 A 
ATOM     22  C   UNL     1       5.246  -0.101  23.137  0.00  0.00    +0.045 A 
BRANCH  20   3
ATOM      3  O   UNL     1       5.049  -2.333  23.960  0.00  0.00    -0.507 OA
ATOM     23  H   UNL     1       5.387  -2.774  23.162  0.00  0.00    +0.292 HD
ENDBRANCH  20   3
ENDBRANCH  16  17
BRANCH  12   9
ATOM      9  C   UNL     1      -2.432   1.480  23.406  0.00  0.00    +0.085 C 
BRANCH   9   6
ATOM      1  O   UNL     1      -1.900   3.914  25.642  0.00  0.00    -0.376 OA
ATOM      6  C   UNL     1      -2.748   2.211  24.675  0.00  0.00    +0.074 C 
ATOM      7  C   UNL     1      -2.918   3.725  24.633  0.00  0.00    +0.184 C 
ATOM      8  C   UNL     1      -1.622   2.496  25.662  0.00  0.00    +0.184 C 
BRANCH   6   4
ATOM      4  N   UNL     1      -3.883   1.625  25.408  0.00  0.00    -0.293 NA
BRANCH   4  10
ATOM     10  C   UNL     1      -5.004   2.565  25.387  0.00  0.00    +0.082 C 
ATOM     13  C   UNL     1      -6.307   1.859  25.054  0.00  0.00    +0.020 C 
ENDBRANCH   4  10
BRANCH   4  11
ATOM     11  C   UNL     1      -4.261   0.360  24.778  0.00  0.00    +0.082 C 
ATOM     14  C   UNL     1      -3.859  -0.825  25.640  0.00  0.00    +0.020 C 
ENDBRANCH   4  11
ENDBRANCH   6   4
ENDBRANCH   9   6
ENDBRANCH  12   9
TORSDOF 7
ENDMDL
MODEL 3
REMARK VINA RESULT:      -3.4     15.254     17.233
REMARK  Name = 56775723
REMARK  9 active torsions:
REMARK  status: ('A' for Active; 'I' for Inactive)
REMARK    1  A    between atoms: O_3  and  C_20
REMARK    2  A    between atoms: N_4  and  C_6
REMARK    3  A    between atoms: N_4  and  C_10
REMARK    4  A    between atoms: N_4  and  C_11
REMARK    5  A    between atoms: C_6  and  C_9
REMARK    6  A    between atoms: C_9  and  C_12
REMARK    7  A    between atoms: C_10  and  C_13
REMARK    8  A    between atoms: C_11  and  C_14
REMARK    9  A    between atoms: C_16  and  C_17
REMARK                            x       y       z     vdW  Elec       q    Type
REMARK                         _______ _______ _______ _____ _____    ______ ____
ROOT
ATOM      2  O   UNL     1       0.959   1.967  24.197  0.00  0.00    -0.354 OA
ATOM      5  N   UNL     1      -0.405   2.232  24.207  0.00  0.00    -0.083 NA
ATOM     12  C   UNL     1      -0.950   1.262  23.468  0.00  0.00    +0.086 A 
ATOM     15  C   UNL     1       0.010   0.365  22.970  0.00  0.00    +0.076 A 
ATOM     16  C   UNL     1       1.194   0.853  23.458  0.00  0.00    +0.168 A 
ENDROOT
BRANCH  16  17
ATOM     17  C   UNL     1       2.567   0.450  23.358  0.00  0.00    +0.023 A 
ATOM     18  C   UNL     1       2.944  -0.839  23.733  0.00  0.00    +0.057 A 
ATOM     19  C   UNL     1       3.524   1.349  22.887  0.00  0.00    +0.012 A 
ATOM     20  C   UNL     1       4.280  -1.230  23.636  0.00  0.00    +0.118 A 
ATOM     21  C   UNL     1       4.859   0.958  22.791  0.00  0.00    +0.004 A 
ATOM     22  C   UNL     1       5.238  -0.331  23.166  0.00  0.00    +0.045 A 
BRANCH  20   3
ATOM      3  O   UNL     1       4.650  -2.487  24.004  0.00  0.00    -0.507 OA
ATOM     23  H   UNL     1       5.618  -2.559  23.951  0.00  0.00    +0.292 HD
ENDBRANCH  20   3
ENDBRANCH  16  17
BRANCH  12   9
ATOM      9  C   UNL     1      -2.449   1.229  23.253  0.00  0.00    +0.085 C 
BRANCH   9   6
ATOM      1  O   UNL     1      -3.248  -1.238  25.371  0.00  0.00    -0.376 OA
ATOM      6  C   UNL     1      -3.149   0.691  24.463  0.00  0.00    +0.074 C 
ATOM      7  C   UNL     1      -2.351  -0.110  25.485  0.00  0.00    +0.184 C 
ATOM      8  C   UNL     1      -3.994  -0.571  24.328  0.00  0.00    +0.184 C 
BRANCH   6   4
ATOM      4  N   UNL     1      -3.937   1.714  25.173  0.00  0.00    -0.293 NA
BRANCH   4  10
ATOM     10  C   UNL     1      -3.578   3.036  24.660  0.00  0.00    +0.082 C 
ATOM     13  C   UNL     1      -3.025   3.921  25.764  0.00  0.00    +0.020 C 
ENDBRANCH   4  10
BRANCH   4  11
ATOM     11  C   UNL     1      -5.361   1.452  24.967  0.00  0.00    +0.082 C 
ATOM     14  C   UNL     1      -6.202   2.106  26.050  0.00  0.00    +0.020 C 
ENDBRANCH   4  11
ENDBRANCH   6   4
ENDBRANCH   9   6
ENDBRANCH  12   9
TORSDOF 7
ENDMDL
MODEL 4
REMARK VINA RESULT:      -3.0     15.614     17.622
REMARK  Name = 56775723
REMARK  9 active torsions:
REMARK  status: ('A' for Active; 'I' for Inactive)
REMARK    1  A    between atoms: O_3  and  C_20
REMARK    2  A    between atoms: N_4  and  C_6
REMARK    3  A    between atoms: N_4  and  C_10
REMARK    4  A    between atoms: N_4  and  C_11
REMARK    5  A    between atoms: C_6  and  C_9
REMARK    6  A    between atoms: C_9  and  C_12
REMARK    7  A    between atoms: C_10  and  C_13
REMARK    8  A    between atoms: C_11  and  C_14
REMARK    9  A    between atoms: C_16  and  C_17
REMARK                            x       y       z     vdW  Elec       q    Type
REMARK                         _______ _______ _______ _____ _____    ______ ____
ROOT
ATOM      2  O   UNL     1      -0.187   0.696  25.304  0.00  0.00    -0.354 OA
ATOM      5  N   UNL     1      -1.176   1.356  26.025  0.00  0.00    -0.083 NA
ATOM     12  C   UNL     1      -1.344   2.521  25.393  0.00  0.00    +0.086 A 
ATOM     15  C   UNL     1      -0.498   2.652  24.279  0.00  0.00    +0.076 A 
ATOM     16  C   UNL     1       0.208   1.478  24.267  0.00  0.00    +0.168 A 
ENDROOT
BRANCH  16  17
ATOM     17  C   UNL     1       1.230   0.926  23.425  0.00  0.00    +0.023 A 
ATOM     18  C   UNL     1       2.567   1.256  23.643  0.00  0.00    +0.057 A 
ATOM     19  C   UNL     1       0.885   0.058  22.388  0.00  0.00    +0.012 A 
ATOM     20  C   UNL     1       3.560   0.720  22.823  0.00  0.00    +0.118 A 
ATOM     21  C   UNL     1       1.878  -0.477  21.568  0.00  0.00    +0.004 A 
ATOM     22  C   UNL     1       3.215  -0.146  21.785  0.00  0.00    +0.045 A 
BRANCH  20   3
ATOM      3  O   UNL     1       4.865   1.044  23.034  0.00  0.00    -0.507 OA
ATOM     23  H   UNL     1       5.173   0.599  23.842  0.00  0.00    +0.292 HD
ENDBRANCH  20   3
ENDBRANCH  16  17
BRANCH  12   9
ATOM      9  C   UNL     1      -2.361   3.519  25.907  0.00  0.00    +0.085 C 
BRANCH   9   6
ATOM      1  O   UNL     1      -5.621   4.182  25.536  0.00  0.00    -0.376 OA
ATOM      6  C   UNL     1      -3.706   3.270  25.298  0.00  0.00    +0.074 C 
ATOM      7  C   UNL     1      -4.474   4.441  24.696  0.00  0.00    +0.184 C 
ATOM      8  C   UNL     1      -4.915   3.118  26.214  0.00  0.00    +0.184 C 
BRANCH   6   4
ATOM      4  N   UNL     1      -3.702   2.158  24.331  0.00  0.00    -0.293 NA
BRANCH   4  10
ATOM     10  C   UNL     1      -4.775   1.223  24.672  0.00  0.00    +0.082 C 
ATOM     13  C   UNL     1      -4.279  -0.213  24.650  0.00  0.00    +0.020 C 
ENDBRANCH   4  10
BRANCH   4  11
ATOM     11  C   UNL     1      -3.894   2.692  22.983  0.00  0.00    +0.082 C 
ATOM     14  C   UNL     1      -2.831   2.173  22.030  0.00  0.00    +0.020 C 
ENDBRANCH   4  11
ENDBRANCH   6   4
ENDBRANCH   9   6
ENDBRANCH  12   9
TORSDOF 7
ENDMDL
MODEL 5
REMARK VINA RESULT:      -2.7     15.755     17.658
REMARK  Name = 56775723
REMARK  9 active torsions:
REMARK  status: ('A' for Active; 'I' for Inactive)
REMARK    1  A    between atoms: O_3  and  C_20
REMARK    2  A    between atoms: N_4  and  C_6
REMARK    3  A    between atoms: N_4  and  C_10
REMARK    4  A    between atoms: N_4  and  C_11
REMARK    5  A    between atoms: C_6  and  C_9
REMARK    6  A    between atoms: C_9  and  C_12
REMARK    7  A    between atoms: C_10  and  C_13
REMARK    8  A    between atoms: C_11  and  C_14
REMARK    9  A    between atoms: C_16  and  C_17
REMARK                            x       y       z     vdW  Elec       q    Type
REMARK                         _______ _______ _______ _____ _____    ______ ____
ROOT
ATOM      2  O   UNL     1       0.776   2.072  25.562  0.00  0.00    -0.354 OA
ATOM      5  N   UNL     1      -0.232   2.698  26.287  0.00  0.00    -0.083 NA
ATOM     12  C   UNL     1      -1.301   2.672  25.485  0.00  0.00    +0.086 A 
ATOM     15  C   UNL     1      -1.031   2.050  24.254  0.00  0.00    +0.076 A 
ATOM     16  C   UNL     1       0.288   1.690  24.354  0.00  0.00    +0.168 A 
ENDROOT
BRANCH  16  17
ATOM     17  C   UNL     1       1.218   1.024  23.489  0.00  0.00    +0.023 A 
ATOM     18  C   UNL     1       2.583   1.289  23.596  0.00  0.00    +0.057 A 
ATOM     19  C   UNL     1       0.756   0.111  22.540  0.00  0.00    +0.012 A 
ATOM     20  C   UNL     1       3.487   0.642  22.754  0.00  0.00    +0.118 A 
ATOM     21  C   UNL     1       1.660  -0.536  21.698  0.00  0.00    +0.004 A 
ATOM     22  C   UNL     1       3.026  -0.270  21.804  0.00  0.00    +0.045 A 
BRANCH  20   3
ATOM      3  O   UNL     1       4.819   0.902  22.857  0.00  0.00    -0.507 OA
ATOM     23  H   UNL     1       5.047   1.625  22.248  0.00  0.00    +0.292 HD
ENDBRANCH  20   3
ENDBRANCH  16  17
BRANCH  12   9
ATOM      9  C   UNL     1      -2.609   3.277  25.951  0.00  0.00    +0.085 C 
BRANCH   9   6
ATOM      1  O   UNL     1      -4.403   3.764  23.166  0.00  0.00    -0.376 OA
ATOM      6  C   UNL     1      -3.721   2.931  25.009  0.00  0.00    +0.074 C 
ATOM      7  C   UNL     1      -3.412   2.774  23.525  0.00  0.00    +0.184 C 
ATOM      8  C   UNL     1      -4.678   4.030  24.561  0.00  0.00    +0.184 C 
BRANCH   6   4
ATOM      4  N   UNL     1      -4.510   1.769  25.455  0.00  0.00    -0.293 NA
BRANCH   4  10
ATOM     10  C   UNL     1      -5.929   2.126  25.454  0.00  0.00    +0.082 C 
ATOM     13  C   UNL     1      -6.605   1.690  26.743  0.00  0.00    +0.020 C 
ENDBRANCH   4  10
BRANCH   4  11
ATOM     11  C   UNL     1      -4.262   0.644  24.555  0.00  0.00    +0.082 C 
ATOM     14  C   UNL     1      -3.840  -0.595  25.326  0.00  0.00    +0.020 C 
ENDBRANCH   4  11
ENDBRANCH   6   4
ENDBRANCH   9   6
ENDBRANCH  12   9
TORSDOF 7
ENDMDL
MODEL 6
REMARK VINA RESULT:      -2.5     15.498     17.111
REMARK  Name = 56775723
REMARK  9 active torsions:
REMARK  status: ('A' for Active; 'I' for Inactive)
REMARK    1  A    between atoms: O_3  and  C_20
REMARK    2  A    between atoms: N_4  and  C_6
REMARK    3  A    between atoms: N_4  and  C_10
REMARK    4  A    between atoms: N_4  and  C_11
REMARK    5  A    between atoms: C_6  and  C_9
REMARK    6  A    between atoms: C_9  and  C_12
REMARK    7  A    between atoms: C_10  and  C_13
REMARK    8  A    between atoms: C_11  and  C_14
REMARK    9  A    between atoms: C_16  and  C_17
REMARK                            x       y       z     vdW  Elec       q    Type
REMARK                         _______ _______ _______ _____ _____    ______ ____
ROOT
ATOM      2  O   UNL     1      -0.492   0.042  25.410  0.00  0.00    -0.354 OA
ATOM      5  N   UNL     1      -1.729   0.069  26.044  0.00  0.00    -0.083 NA
ATOM     12  C   UNL     1      -2.623   0.123  25.052  0.00  0.00    +0.086 A 
ATOM     15  C   UNL     1      -2.015   0.132  23.785  0.00  0.00    +0.076 A 
ATOM     16  C   UNL     1      -0.676   0.080  24.066  0.00  0.00    +0.168 A 
ENDROOT
BRANCH  16  17
ATOM     17  C   UNL     1       0.519   0.056  23.274  0.00  0.00    +0.023 A 
ATOM     18  C   UNL     1       1.681   0.667  23.745  0.00  0.00    +0.057 A 
ATOM     19  C   UNL     1       0.519  -0.579  22.030  0.00  0.00    +0.012 A 
ATOM     20  C   UNL     1       2.843   0.644  22.973  0.00  0.00    +0.118 A 
ATOM     21  C   UNL     1       1.680  -0.600  21.259  0.00  0.00    +0.004 A 
ATOM     22  C   UNL     1       2.842   0.011  21.730  0.00  0.00    +0.045 A 
BRANCH  20   3
ATOM      3  O   UNL     1       3.976   1.242  23.432  0.00  0.00    -0.507 OA
ATOM     23  H   UNL     1       4.104   2.081  22.958  0.00  0.00    +0.292 HD
ENDBRANCH  20   3
ENDBRANCH  16  17
BRANCH  12   9
ATOM      9  C   UNL     1      -4.103   0.166  25.371  0.00  0.00    +0.085 C 
BRANCH   9   6
ATOM      1  O   UNL     1      -6.574   2.422  25.470  0.00  0.00    -0.376 OA
ATOM      6  C   UNL     1      -4.646   1.551  25.194  0.00  0.00    +0.074 C 
ATOM      7  C   UNL     1      -5.438   2.186  26.331  0.00  0.00    +0.184 C 
ATOM      8  C   UNL     1      -5.916   1.747  24.374  0.00  0.00    +0.184 C 
BRANCH   6   4
ATOM      4  N   UNL     1      -3.629   2.511  24.730  0.00  0.00    -0.293 NA
BRANCH   4  10
ATOM     10  C   UNL     1      -4.048   3.066  23.442  0.00  0.00    +0.082 C 
ATOM     13  C   UNL     1      -3.048   2.732  22.349  0.00  0.00    +0.020 C 
ENDBRANCH   4  10
BRANCH   4  11
ATOM     11  C   UNL     1      -3.481   3.573  25.724  0.00  0.00    +0.082 C 
ATOM     14  C   UNL     1      -2.069   4.136  25.720  0.00  0.00    +0.020 C 
ENDBRANCH   4  11
ENDBRANCH   6   4
ENDBRANCH   9   6
ENDBRANCH  12   9
TORSDOF 7
ENDMDL
MODEL 7
REMARK VINA RESULT:      -1.9     15.813     17.493
REMARK  Name = 56775723
REMARK  9 active torsions:
REMARK  status: ('A' for Active; 'I' for Inactive)
REMARK    1  A    between atoms: O_3  and  C_20
REMARK    2  A    between atoms: N_4  and  C_6
REMARK    3  A    between atoms: N_4  and  C_10
REMARK    4  A    between atoms: N_4  and  C_11
REMARK    5  A    between atoms: C_6  and  C_9
REMARK    6  A    between atoms: C_9  and  C_12
REMARK    7  A    between atoms: C_10  and  C_13
REMARK    8  A    between atoms: C_11  and  C_14
REMARK    9  A    between atoms: C_16  and  C_17
REMARK                            x       y       z     vdW  Elec       q    Type
REMARK                         _______ _______ _______ _____ _____    ______ ____
ROOT
ATOM      2  O   UNL     1       0.293  -1.033  23.787  0.00  0.00    -0.354 OA
ATOM      5  N   UNL     1      -1.033  -0.851  24.162  0.00  0.00    -0.083 NA
ATOM     12  C   UNL     1      -1.122   0.440  24.496  0.00  0.00    +0.086 A 
ATOM     15  C   UNL     1       0.103   1.115  24.353  0.00  0.00    +0.076 A 
ATOM     16  C   UNL     1       0.959   0.144  23.904  0.00  0.00    +0.168 A 
ENDROOT
BRANCH  16  17
ATOM     17  C   UNL     1       2.347   0.112  23.547  0.00  0.00    +0.023 A 
ATOM     18  C   UNL     1       3.141  -0.970  23.927  0.00  0.00    +0.057 A 
ATOM     19  C   UNL     1       2.904   1.165  22.820  0.00  0.00    +0.012 A 
ATOM     20  C   UNL     1       4.492  -1.000  23.580  0.00  0.00    +0.118 A 
ATOM     21  C   UNL     1       4.254   1.135  22.474  0.00  0.00    +0.004 A 
ATOM     22  C   UNL     1       5.049   0.053  22.854  0.00  0.00    +0.045 A 
BRANCH  20   3
ATOM      3  O   UNL     1       5.267  -2.055  23.952  0.00  0.00    -0.507 OA
ATOM     23  H   UNL     1       4.853  -2.876  23.637  0.00  0.00    +0.292 HD
ENDBRANCH  20   3
ENDBRANCH  16  17
BRANCH  12   9
ATOM      9  C   UNL     1      -2.444   1.009  24.965  0.00  0.00    +0.085 C 
BRANCH   9   6
ATOM      1  O   UNL     1      -2.989   2.517  22.026  0.00  0.00    -0.376 OA
ATOM      6  C   UNL     1      -2.844   2.187  24.130  0.00  0.00    +0.074 C 
ATOM      7  C   UNL     1      -3.886   1.997  23.034  0.00  0.00    +0.184 C 
ATOM      8  C   UNL     1      -1.925   2.634  22.998  0.00  0.00    +0.184 C 
BRANCH   6   4
ATOM      4  N   UNL     1      -3.211   3.365  24.935  0.00  0.00    -0.293 NA
BRANCH   4  10
ATOM     10  C   UNL     1      -4.316   3.011  25.826  0.00  0.00    +0.082 C 
ATOM     13  C   UNL     1      -5.546   3.854  25.535  0.00  0.00    +0.020 C 
ENDBRANCH   4  10
BRANCH   4  11
ATOM     11  C   UNL     1      -2.048   3.800  25.707  0.00  0.00    +0.082 C 
ATOM     14  C   UNL     1      -1.516   5.129  25.197  0.00  0.00    +0.020 C 
ENDBRANCH   4  11
ENDBRANCH   6   4
ENDBRANCH   9   6
ENDBRANCH  12   9
TORSDOF 7
ENDMDL
MODEL 8
REMARK VINA RESULT:      -1.6     15.731     17.251
REMARK  Name = 56775723
REMARK  9 active torsions:
REMARK  status: ('A' for Active; 'I' for Inactive)
REMARK    1  A    between atoms: O_3  and  C_20
REMARK    2  A    between atoms: N_4  and  C_6
REMARK    3  A    between atoms: N_4  and  C_10
REMARK    4  A    between atoms: N_4  and  C_11
REMARK    5  A    between atoms: C_6  and  C_9
REMARK    6  A    between atoms: C_9  and  C_12
REMARK    7  A    between atoms: C_10  and  C_13
REMARK    8  A    between atoms: C_11  and  C_14
REMARK    9  A    between atoms: C_16  and  C_17
REMARK                            x       y       z     vdW  Elec       q    Type
REMARK                         _______ _______ _______ _____ _____    ______ ____
ROOT
ATOM      2  O   UNL     1       0.197  -1.183  24.500  0.00  0.00    -0.354 OA
ATOM      5  N   UNL     1      -1.176  -1.118  24.709  0.00  0.00    -0.083 NA
ATOM     12  C   UNL     1      -1.561   0.018  24.121  0.00  0.00    +0.086 A 
ATOM     15  C   UNL     1      -0.487   0.706  23.531  0.00  0.00    +0.076 A 
ATOM     16  C   UNL     1       0.595  -0.092  23.797  0.00  0.00    +0.168 A 
ENDROOT
BRANCH  16  17
ATOM     17  C   UNL     1       1.996  -0.019  23.501  0.00  0.00    +0.023 A 
ATOM     18  C   UNL     1       2.843  -1.062  23.877  0.00  0.00    +0.057 A 
ATOM     19  C   UNL     1       2.512   1.095  22.838  0.00  0.00    +0.012 A 
ATOM     20  C   UNL     1       4.206  -0.991  23.590  0.00  0.00    +0.118 A 
ATOM     21  C   UNL     1       3.875   1.166  22.552  0.00  0.00    +0.004 A 
ATOM     22  C   UNL     1       4.723   0.124  22.928  0.00  0.00    +0.045 A 
BRANCH  20   3
ATOM      3  O   UNL     1       5.033  -2.007  23.958  0.00  0.00    -0.507 OA
ATOM     23  H   UNL     1       5.929  -1.819  23.629  0.00  0.00    +0.292 HD
ENDBRANCH  20   3
ENDBRANCH  16  17
BRANCH  12   9
ATOM      9  C   UNL     1      -3.020   0.425  24.148  0.00  0.00    +0.085 C 
BRANCH   9   6
ATOM      1  O   UNL     1      -3.413   3.248  22.391  0.00  0.00    -0.376 OA
ATOM      6  C   UNL     1      -3.160   1.913  24.037  0.00  0.00    +0.074 C 
ATOM      7  C   UNL     1      -4.315   2.489  23.227  0.00  0.00    +0.184 C 
ATOM      8  C   UNL     1      -2.268   2.666  23.056  0.00  0.00    +0.184 C 
BRANCH   6   4
ATOM      4  N   UNL     1      -3.108   2.594  25.342  0.00  0.00    -0.293 NA
BRANCH   4  10
ATOM     10  C   UNL     1      -1.908   3.430  25.399  0.00  0.00    +0.082 C 
ATOM     13  C   UNL     1      -0.836   2.792  26.265  0.00  0.00    +0.020 C 
ENDBRANCH   4  10
BRANCH   4  11
ATOM     11  C   UNL     1      -4.311   3.409  25.507  0.00  0.00    +0.082 C 
ATOM     14  C   UNL     1      -5.446   2.598  26.109  0.00  0.00    +0.020 C 
ENDBRANCH   4  11
ENDBRANCH   6   4
ENDBRANCH   9   6
ENDBRANCH  12   9
TORSDOF 7
ENDMDL
MODEL 9
REMARK VINA RESULT:      -1.5     15.357     17.357
REMARK  Name = 56775723
REMARK  9 active torsions:
REMARK  status: ('A' for Active; 'I' for Inactive)
REMARK    1  A    between atoms: O_3  and  C_20
REMARK    2  A    between atoms: N_4  and  C_6
REMARK    3  A    between atoms: N_4  and  C_10
REMARK    4  A    between atoms: N_4  and  C_11
REMARK    5  A    between atoms: C_6  and  C_9
REMARK    6  A    between atoms: C_9  and  C_12
REMARK    7  A    between atoms: C_10  and  C_13
REMARK    8  A    between atoms: C_11  and  C_14
REMARK    9  A    between atoms: C_16  and  C_17
REMARK                            x       y       z     vdW  Elec       q    Type
REMARK                         _______ _______ _______ _____ _____    ______ ____
ROOT
ATOM      2  O   UNL     1      -1.195   2.349  25.857  0.00  0.00    -0.354 OA
ATOM      5  N   UNL     1       0.151   2.252  25.523  0.00  0.00    -0.083 NA
ATOM     12  C   UNL     1       0.162   1.853  24.247  0.00  0.00    +0.086 A 
ATOM     15  C   UNL     1      -1.134   1.683  23.730  0.00  0.00    +0.076 A 
ATOM     16  C   UNL     1      -1.949   2.008  24.781  0.00  0.00    +0.168 A 
ENDROOT
BRANCH  16  17
ATOM     17  C   UNL     1      -3.369   2.063  24.975  0.00  0.00    +0.023 A 
ATOM     18  C   UNL     1      -3.983   3.273  25.298  0.00  0.00    +0.057 A 
ATOM     19  C   UNL     1      -4.137   0.905  24.841  0.00  0.00    +0.012 A 
ATOM     20  C   UNL     1      -5.364   3.325  25.488  0.00  0.00    +0.118 A 
ATOM     21  C   UNL     1      -5.517   0.957  25.032  0.00  0.00    +0.004 A 
ATOM     22  C   UNL     1      -6.131   2.167  25.355  0.00  0.00    +0.045 A 
BRANCH  20   3
ATOM      3  O   UNL     1      -5.963   4.506  25.805  0.00  0.00    -0.507 OA
ATOM     23  H   UNL     1      -5.945   5.087  25.026  0.00  0.00    +0.292 HD
ENDBRANCH  20   3
ENDBRANCH  16  17
BRANCH  12   9
ATOM      9  C   UNL     1       1.480   1.637  23.535  0.00  0.00    +0.085 C 
BRANCH   9   6
ATOM      1  O   UNL     1       0.175  -1.298  22.591  0.00  0.00    -0.376 OA
ATOM      6  C   UNL     1       1.598   0.225  23.049  0.00  0.00    +0.074 C 
ATOM      7  C   UNL     1       0.774  -0.215  21.845  0.00  0.00    +0.184 C 
ATOM      8  C   UNL     1       0.855  -0.877  23.796  0.00  0.00    +0.184 C 
BRANCH   6   4
ATOM      4  N   UNL     1       2.995  -0.199  22.849  0.00  0.00    -0.293 NA
BRANCH   4  10
ATOM     10  C   UNL     1       3.844   0.987  22.735  0.00  0.00    +0.082 C 
ATOM     13  C   UNL     1       5.153   0.799  23.484  0.00  0.00    +0.020 C 
ENDBRANCH   4  10
BRANCH   4  11
ATOM     11  C   UNL     1       3.414  -1.024  23.982  0.00  0.00    +0.082 C 
ATOM     14  C   UNL     1       4.641  -1.850  23.636  0.00  0.00    +0.020 C 
ENDBRANCH   4  11
ENDBRANCH   6   4
ENDBRANCH   9   6
ENDBRANCH  12   9
TORSDOF 7
ENDMDL
MODEL 10
REMARK VINA RESULT:      -1.4     14.967     17.373
REMARK  Name = 56775723
REMARK  9 active torsions:
REMARK  status: ('A' for Active; 'I' for Inactive)
REMARK    1  A    between atoms: O_3  and  C_20
REMARK    2  A    between atoms: N_4  and  C_6
REMARK    3  A    between atoms: N_4  and  C_10
REMARK    4  A    between atoms: N_4  and  C_11
REMARK    5  A    between atoms: C_6  and  C_9
REMARK    6  A    between atoms: C_9  and  C_12
REMARK    7  A    between atoms: C_10  and  C_13
REMARK    8  A    between atoms: C_11  and  C_14
REMARK    9  A    between atoms: C_16  and  C_17
REMARK                            x       y       z     vdW  Elec       q    Type
REMARK                         _______ _______ _______ _____ _____    ______ ____
ROOT
ATOM      2  O   UNL     1       0.515   2.321  25.379  0.00  0.00    -0.354 OA
ATOM      5  N   UNL     1      -0.575   2.755  26.125  0.00  0.00    -0.083 NA
ATOM     12  C   UNL     1      -1.641   2.224  25.519  0.00  0.00    +0.086 A 
ATOM     15  C   UNL     1      -1.289   1.454  24.396  0.00  0.00    +0.076 A 
ATOM     16  C   UNL     1       0.077   1.548  24.353  0.00  0.00    +0.168 A 
ENDROOT
BRANCH  16  17
ATOM     17  C   UNL     1       1.095   1.023  23.491  0.00  0.00    +0.023 A 
ATOM     18  C   UNL     1       0.757   0.125  22.478  0.00  0.00    +0.057 A 
ATOM     19  C   UNL     1       2.425   1.409  23.666  0.00  0.00    +0.012 A 
ATOM     20  C   UNL     1       1.748  -0.387  21.641  0.00  0.00    +0.118 A 
ATOM     21  C   UNL     1       3.415   0.896  22.830  0.00  0.00    +0.004 A 
ATOM     22  C   UNL     1       3.078  -0.002  21.817  0.00  0.00    +0.045 A 
BRANCH  20   3
ATOM      3  O   UNL     1       1.419  -1.265  20.654  0.00  0.00    -0.507 OA
ATOM     23  H   UNL     1       1.934  -2.081  20.773  0.00  0.00    +0.292 HD
ENDBRANCH  20   3
ENDBRANCH  16  17
BRANCH  12   9
ATOM      9  C   UNL     1      -3.029   2.487  26.064  0.00  0.00    +0.085 C 
BRANCH   9   6
ATOM      1  O   UNL     1      -4.294   4.489  23.697  0.00  0.00    -0.376 OA
ATOM      6  C   UNL     1      -3.988   2.792  24.955  0.00  0.00    +0.074 C 
ATOM      7  C   UNL     1      -3.446   3.319  23.632  0.00  0.00    +0.184 C 
ATOM      8  C   UNL     1      -4.780   4.094  25.001  0.00  0.00    +0.184 C 
BRANCH   6   4
ATOM      4  N   UNL     1      -4.918   1.682  24.679  0.00  0.00    -0.293 NA
BRANCH   4  10
ATOM     10  C   UNL     1      -4.431   0.473  25.344  0.00  0.00    +0.082 C 
ATOM     13  C   UNL     1      -4.255  -0.665  24.352  0.00  0.00    +0.020 C 
ENDBRANCH   4  10
BRANCH   4  11
ATOM     11  C   UNL     1      -6.249   2.037  25.168  0.00  0.00    +0.082 C 
ATOM     14  C   UNL     1      -6.461   1.549  26.591  0.00  0.00    +0.020 C 
ENDBRANCH   4  11
ENDBRANCH   6   4
ENDBRANCH   9   6
ENDBRANCH  12   9
TORSDOF 7
ENDMDL
