MODEL 1
REMARK VINA RESULT:      -0.6      0.000      0.000
REMARK  Name = 51136913
REMARK  5 active torsions:
REMARK  status: ('A' for Active; 'I' for Inactive)
REMARK    1  A    between atoms: N_2  and  C_13
REMARK    2  A    between atoms: C_9  and  C_14
REMARK    3  A    between atoms: C_13  and  C_15
REMARK    4  A    between atoms: C_16  and  C_19
REMARK    5  A    between atoms: C_25  and  C_26
REMARK                            x       y       z     vdW  Elec       q    Type
REMARK                         _______ _______ _______ _____ _____    ______ ____
ROOT
ATOM      1  O   UNL     1      -3.361   2.630  22.333  0.00  0.00    -0.336 OA
ATOM      3  N   UNL     1      -2.419   1.622  24.099  0.00  0.00    -0.190 NA
ATOM      4  N   UNL     1      -2.053   2.307  21.946  0.00  0.00    -0.056 NA
ATOM     14  C   UNL     1      -3.493   2.193  23.613  0.00  0.00    +0.245 A 
ATOM     16  C   UNL     1      -1.563   1.716  23.041  0.00  0.00    +0.204 A 
ENDROOT
BRANCH  16  19
ATOM      6  N   UNL     1       2.051   1.479  23.884  0.00  0.00    -0.254 NA
ATOM     19  C   UNL     1      -0.223   1.209  23.108  0.00  0.00    +0.041 A 
ATOM     22  C   UNL     1       0.119   0.008  22.499  0.00  0.00    +0.015 A 
ATOM     23  C   UNL     1       0.770   1.901  23.782  0.00  0.00    +0.123 A 
ATOM     24  C   UNL     1       1.427  -0.459  22.581  0.00  0.00    +0.029 A 
ATOM     25  C   UNL     1       2.346   0.307  23.279  0.00  0.00    +0.074 A 
BRANCH  25  26
ATOM      7  N   UNL     1       5.337  -1.819  23.935  0.00  0.00    -0.243 NA
ATOM      8  N   UNL     1       6.073   0.372  23.253  0.00  0.00    -0.243 NA
ATOM     26  C   UNL     1       3.721  -0.115  23.406  0.00  0.00    +0.037 A 
ATOM     27  C   UNL     1       4.064  -1.391  23.803  0.00  0.00    +0.124 A 
ATOM     28  C   UNL     1       4.778   0.732  23.142  0.00  0.00    +0.124 A 
ATOM     29  C   UNL     1       6.278  -0.898  23.648  0.00  0.00    +0.221 A 
ENDBRANCH  25  26
ENDBRANCH  16  19
BRANCH  14   9
ATOM      2  N   UNL     1      -5.017   1.623  25.496  0.00  0.00    -0.287 NA
ATOM      9  C   UNL     1      -4.837   2.426  24.270  0.00  0.00    +0.146 C 
ATOM     10  C   UNL     1      -5.031   3.884  24.725  0.00  0.00    +0.030 C 
ATOM     11  C   UNL     1      -5.375   3.797  26.206  0.00  0.00    +0.017 C 
ATOM     12  C   UNL     1      -5.913   2.389  26.365  0.00  0.00    +0.085 C 
BRANCH   2  13
ATOM     13  C   UNL     1      -5.521   0.281  25.236  0.00  0.00    +0.121 C 
BRANCH  13  15
ATOM      5  N   UNL     1      -2.258  -1.575  25.725  0.00  0.00    -0.263 NA
ATOM     15  C   UNL     1      -4.403  -0.706  25.027  0.00  0.00    -0.015 A 
ATOM     17  C   UNL     1      -4.450  -1.634  23.993  0.00  0.00    +0.008 A 
ATOM     18  C   UNL     1      -3.294  -0.717  25.858  0.00  0.00    +0.115 A 
ATOM     20  C   UNL     1      -3.403  -2.532  23.823  0.00  0.00    +0.020 A 
ATOM     21  C   UNL     1      -2.339  -2.463  24.708  0.00  0.00    +0.111 A 
ENDBRANCH  13  15
ENDBRANCH   2  13
ENDBRANCH  14   9
TORSDOF 5
ENDMDL
MODEL 2
REMARK VINA RESULT:       2.9      2.017      3.438
REMARK  Name = 51136913
REMARK  5 active torsions:
REMARK  status: ('A' for Active; 'I' for Inactive)
REMARK    1  A    between atoms: N_2  and  C_13
REMARK    2  A    between atoms: C_9  and  C_14
REMARK    3  A    between atoms: C_13  and  C_15
REMARK    4  A    between atoms: C_16  and  C_19
REMARK    5  A    between atoms: C_25  and  C_26
REMARK                            x       y       z     vdW  Elec       q    Type
REMARK                         _______ _______ _______ _____ _____    ______ ____
ROOT
ATOM      1  O   UNL     1      -4.303  -0.300  24.274  0.00  0.00    -0.336 OA
ATOM      3  N   UNL     1      -2.697   1.041  25.076  0.00  0.00    -0.190 NA
ATOM      4  N   UNL     1      -3.090  -0.824  23.810  0.00  0.00    -0.056 NA
ATOM     14  C   UNL     1      -3.982   0.797  25.010  0.00  0.00    +0.245 A 
ATOM     16  C   UNL     1      -2.191   0.021  24.325  0.00  0.00    +0.204 A 
ENDROOT
BRANCH  16  19
ATOM      6  N   UNL     1       1.321   0.865  23.442  0.00  0.00    -0.254 NA
ATOM     19  C   UNL     1      -0.781  -0.127  24.107  0.00  0.00    +0.041 A 
ATOM     22  C   UNL     1      -0.146  -1.342  24.331  0.00  0.00    +0.015 A 
ATOM     23  C   UNL     1      -0.011   0.937  23.666  0.00  0.00    +0.123 A 
ATOM     24  C   UNL     1       1.223  -1.456  24.112  0.00  0.00    +0.029 A 
ATOM     25  C   UNL     1       1.904  -0.333  23.671  0.00  0.00    +0.074 A 
BRANCH  25  26
ATOM      7  N   UNL     1       5.450  -1.484  23.661  0.00  0.00    -0.243 NA
ATOM      8  N   UNL     1       5.307   0.609  22.474  0.00  0.00    -0.243 NA
ATOM     26  C   UNL     1       3.326  -0.377  23.422  0.00  0.00    +0.037 A 
ATOM     27  C   UNL     1       4.119  -1.412  23.872  0.00  0.00    +0.124 A 
ATOM     28  C   UNL     1       3.980   0.616  22.721  0.00  0.00    +0.124 A 
ATOM     29  C   UNL     1       5.971  -0.455  22.965  0.00  0.00    +0.221 A 
ENDBRANCH  25  26
ENDBRANCH  16  19
BRANCH  14   9
ATOM      2  N   UNL     1      -5.026   3.014  25.440  0.00  0.00    -0.287 NA
ATOM      9  C   UNL     1      -5.137   1.554  25.631  0.00  0.00    +0.146 C 
ATOM     10  C   UNL     1      -6.495   1.180  25.011  0.00  0.00    +0.030 C 
ATOM     11  C   UNL     1      -7.101   2.500  24.553  0.00  0.00    +0.017 C 
ATOM     12  C   UNL     1      -6.395   3.532  25.409  0.00  0.00    +0.085 C 
BRANCH   2  13
ATOM     13  C   UNL     1      -4.216   3.668  26.460  0.00  0.00    +0.121 C 
BRANCH  13  15
ATOM      5  N   UNL     1      -0.489   3.540  25.805  0.00  0.00    -0.263 NA
ATOM     15  C   UNL     1      -2.852   4.037  25.940  0.00  0.00    -0.015 A 
ATOM     17  C   UNL     1      -2.668   5.162  25.146  0.00  0.00    +0.008 A 
ATOM     18  C   UNL     1      -1.740   3.265  26.239  0.00  0.00    +0.115 A 
ATOM     20  C   UNL     1      -1.397   5.479  24.681  0.00  0.00    +0.020 A 
ATOM     21  C   UNL     1      -0.350   4.643  25.035  0.00  0.00    +0.111 A 
ENDBRANCH  13  15
ENDBRANCH   2  13
ENDBRANCH  14   9
TORSDOF 5
ENDMDL
