MODEL 1
REMARK VINA RESULT:      -3.7      0.000      0.000
REMARK  Name = 51137882
REMARK  4 active torsions:
REMARK  status: ('A' for Active; 'I' for Inactive)
REMARK    1  A    between atoms: N_2  and  C_10
REMARK    2  A    between atoms: N_3  and  C_14
REMARK    3  A    between atoms: C_5  and  C_9
REMARK    4  A    between atoms: C_10  and  C_12
REMARK                            x       y       z     vdW  Elec       q    Type
REMARK                         _______ _______ _______ _____ _____    ______ ____
ROOT
ATOM      2  N   UNL     1      -5.405  -9.647  11.106  0.00  0.00    -0.297 NA
ATOM      5  C   UNL     1      -5.649  -9.349  13.420  0.00  0.00    +0.070 C 
ATOM      6  C   UNL     1      -4.501 -10.336  13.146  0.00  0.00    +0.028 C 
ATOM      7  C   UNL     1      -6.419  -9.272  12.094  0.00  0.00    +0.096 C 
ATOM      8  C   UNL     1      -4.699 -10.781  11.703  0.00  0.00    +0.085 C 
ENDROOT
BRANCH   5   9
ATOM      3  N   UNL     1      -6.031  -9.883  15.853  0.00  0.00    -0.330 N 
ATOM      4  N   UNL     1      -7.831  -9.897  14.549  0.00  0.00    -0.232 NA
ATOM      9  C   UNL     1      -6.531  -9.710  14.592  0.00  0.00    +0.115 A 
ATOM     11  C   UNL     1      -7.079 -10.201  16.678  0.00  0.00    +0.069 A 
ATOM     13  C   UNL     1      -8.191 -10.204  15.841  0.00  0.00    +0.089 A 
ATOM     14  C   UNL     1      -4.647  -9.754  16.249  0.00  0.00    +0.150 C 
ATOM     15  C   UNL     1      -7.147 -10.481  18.044  0.00  0.00    +0.028 A 
ATOM     16  C   UNL     1      -9.454 -10.499  16.381  0.00  0.00    +0.030 A 
ATOM     19  C   UNL     1      -8.412 -10.771  18.565  0.00  0.00    +0.002 A 
ATOM     20  C   UNL     1      -9.546 -10.781  17.749  0.00  0.00    +0.002 A 
ENDBRANCH   5   9
BRANCH   2  10
ATOM     10  C   UNL     1      -5.984  -9.974   9.812  0.00  0.00    +0.119 C 
BRANCH  10  12
ATOM      1 CL   UNL     1     -10.112  -5.936   8.124  0.00  0.00    -0.084 Cl
ATOM     12  C   UNL     1      -7.017  -8.964   9.389  0.00  0.00    -0.033 A 
ATOM     17  C   UNL     1      -8.374  -9.256   9.524  0.00  0.00    +0.006 A 
ATOM     18  C   UNL     1      -6.617  -7.736   8.861  0.00  0.00    +0.006 A 
ATOM     21  C   UNL     1      -9.331  -8.320   9.132  0.00  0.00    +0.020 A 
ATOM     22  C   UNL     1      -7.574  -6.800   8.469  0.00  0.00    +0.020 A 
ATOM     23  C   UNL     1      -8.931  -7.092   8.604  0.00  0.00    +0.041 A 
ENDBRANCH  10  12
ENDBRANCH   2  10
TORSDOF 3
ENDMDL
MODEL 2
REMARK VINA RESULT:      -3.4     15.931     17.748
REMARK  Name = 51137882
REMARK  4 active torsions:
REMARK  status: ('A' for Active; 'I' for Inactive)
REMARK    1  A    between atoms: N_2  and  C_10
REMARK    2  A    between atoms: N_3  and  C_14
REMARK    3  A    between atoms: C_5  and  C_9
REMARK    4  A    between atoms: C_10  and  C_12
REMARK                            x       y       z     vdW  Elec       q    Type
REMARK                         _______ _______ _______ _____ _____    ______ ____
ROOT
ATOM      2  N   UNL     1       0.522  -0.488  23.887  0.00  0.00    -0.297 NA
ATOM      5  C   UNL     1      -1.201   0.264  25.291  0.00  0.00    +0.070 C 
ATOM      6  C   UNL     1      -1.389  -1.235  25.003  0.00  0.00    +0.028 C 
ATOM      7  C   UNL     1      -0.199   0.741  24.230  0.00  0.00    +0.096 C 
ATOM      8  C   UNL     1      -0.515  -1.516  23.788  0.00  0.00    +0.085 C 
ENDROOT
BRANCH   5   9
ATOM      3  N   UNL     1      -2.477   2.426  25.509  0.00  0.00    -0.330 N 
ATOM      4  N   UNL     1      -3.689   0.604  25.123  0.00  0.00    -0.232 NA
ATOM      9  C   UNL     1      -2.476   1.075  25.301  0.00  0.00    +0.115 A 
ATOM     11  C   UNL     1      -3.778   2.856  25.458  0.00  0.00    +0.069 A 
ATOM     13  C   UNL     1      -4.516   1.700  25.217  0.00  0.00    +0.089 A 
ATOM     14  C   UNL     1      -1.317   3.257  25.738  0.00  0.00    +0.150 C 
ATOM     15  C   UNL     1      -4.357   4.118  25.602  0.00  0.00    +0.028 A 
ATOM     16  C   UNL     1      -5.913   1.789  25.108  0.00  0.00    +0.030 A 
ATOM     19  C   UNL     1      -5.749   4.189  25.489  0.00  0.00    +0.002 A 
ATOM     20  C   UNL     1      -6.515   3.046  25.247  0.00  0.00    +0.002 A 
ENDBRANCH   5   9
BRANCH   2  10
ATOM     10  C   UNL     1       1.291  -0.357  22.659  0.00  0.00    +0.119 C 
BRANCH  10  12
ATOM      1 CL   UNL     1       7.196   0.039  23.743  0.00  0.00    -0.084 Cl
ATOM     12  C   UNL     1       2.769  -0.258  22.932  0.00  0.00    -0.033 A 
ATOM     17  C   UNL     1       3.435  -1.311  23.557  0.00  0.00    +0.006 A 
ATOM     18  C   UNL     1       3.471   0.889  22.558  0.00  0.00    +0.006 A 
ATOM     21  C   UNL     1       4.804  -1.219  23.809  0.00  0.00    +0.020 A 
ATOM     22  C   UNL     1       4.840   0.981  22.810  0.00  0.00    +0.020 A 
ATOM     23  C   UNL     1       5.506  -0.072  23.435  0.00  0.00    +0.041 A 
ENDBRANCH  10  12
ENDBRANCH   2  10
TORSDOF 3
ENDMDL
MODEL 3
REMARK VINA RESULT:      -2.3      1.616      2.398
REMARK  Name = 51137882
REMARK  4 active torsions:
REMARK  status: ('A' for Active; 'I' for Inactive)
REMARK    1  A    between atoms: N_2  and  C_10
REMARK    2  A    between atoms: N_3  and  C_14
REMARK    3  A    between atoms: C_5  and  C_9
REMARK    4  A    between atoms: C_10  and  C_12
REMARK                            x       y       z     vdW  Elec       q    Type
REMARK                         _______ _______ _______ _____ _____    ______ ____
ROOT
ATOM      2  N   UNL     1      -6.677  -9.387   9.277  0.00  0.00    -0.297 NA
ATOM      5  C   UNL     1      -7.123 -10.263  11.407  0.00  0.00    +0.070 C 
ATOM      6  C   UNL     1      -8.171 -10.781  10.408  0.00  0.00    +0.028 C 
ATOM      7  C   UNL     1      -6.457  -9.079  10.693  0.00  0.00    +0.096 C 
ATOM      8  C   UNL     1      -8.062  -9.853   9.205  0.00  0.00    +0.085 C 
ENDROOT
BRANCH   5   9
ATOM      3  N   UNL     1      -6.929 -10.033  13.910  0.00  0.00    -0.330 N 
ATOM      4  N   UNL     1      -8.871  -9.425  13.015  0.00  0.00    -0.232 NA
ATOM      9  C   UNL     1      -7.669  -9.897  12.768  0.00  0.00    +0.115 A 
ATOM     11  C   UNL     1      -7.705  -9.619  14.962  0.00  0.00    +0.069 A 
ATOM     13  C   UNL     1      -8.912  -9.245  14.378  0.00  0.00    +0.089 A 
ATOM     14  C   UNL     1      -5.573 -10.523  13.996  0.00  0.00    +0.150 C 
ATOM     15  C   UNL     1      -7.462  -9.545  16.335  0.00  0.00    +0.028 A 
ATOM     16  C   UNL     1      -9.949  -8.765  15.194  0.00  0.00    +0.030 A 
ATOM     19  C   UNL     1      -8.505  -9.063  17.133  0.00  0.00    +0.002 A 
ATOM     20  C   UNL     1      -9.727  -8.681  16.575  0.00  0.00    +0.002 A 
ENDBRANCH   5   9
BRANCH   2  10
ATOM     10  C   UNL     1      -6.432  -8.241   8.415  0.00  0.00    +0.119 C 
BRANCH  10  12
ATOM      1 CL   UNL     1     -10.715  -4.054   8.982  0.00  0.00    -0.084 Cl
ATOM     12  C   UNL     1      -7.505  -7.194   8.556  0.00  0.00    -0.033 A 
ATOM     17  C   UNL     1      -8.756  -7.540   9.065  0.00  0.00    +0.006 A 
ATOM     18  C   UNL     1      -7.246  -5.876   8.176  0.00  0.00    +0.006 A 
ATOM     21  C   UNL     1      -9.749  -6.570   9.196  0.00  0.00    +0.020 A 
ATOM     22  C   UNL     1      -8.239  -4.905   8.307  0.00  0.00    +0.020 A 
ATOM     23  C   UNL     1      -9.490  -5.252   8.817  0.00  0.00    +0.041 A 
ENDBRANCH  10  12
ENDBRANCH   2  10
TORSDOF 3
ENDMDL
MODEL 4
REMARK VINA RESULT:      -1.8      2.177      3.287
REMARK  Name = 51137882
REMARK  4 active torsions:
REMARK  status: ('A' for Active; 'I' for Inactive)
REMARK    1  A    between atoms: N_2  and  C_10
REMARK    2  A    between atoms: N_3  and  C_14
REMARK    3  A    between atoms: C_5  and  C_9
REMARK    4  A    between atoms: C_10  and  C_12
REMARK                            x       y       z     vdW  Elec       q    Type
REMARK                         _______ _______ _______ _____ _____    ______ ____
ROOT
ATOM      2  N   UNL     1      -5.311  -9.443   9.984  0.00  0.00    -0.297 NA
ATOM      5  C   UNL     1      -4.901 -10.781  11.867  0.00  0.00    +0.070 C 
ATOM      6  C   UNL     1      -6.410 -10.760  11.569  0.00  0.00    +0.028 C 
ATOM      7  C   UNL     1      -4.329  -9.608  11.059  0.00  0.00    +0.096 C 
ATOM      8  C   UNL     1      -6.613  -9.569  10.641  0.00  0.00    +0.085 C 
ENDROOT
BRANCH   5   9
ATOM      3  N   UNL     1      -3.244 -10.694  13.763  0.00  0.00    -0.330 N 
ATOM      4  N   UNL     1      -5.392 -10.678  14.334  0.00  0.00    -0.232 NA
ATOM      9  C   UNL     1      -4.542 -10.717  13.333  0.00  0.00    +0.115 A 
ATOM     11  C   UNL     1      -3.259 -10.635  15.134  0.00  0.00    +0.069 A 
ATOM     13  C   UNL     1      -4.612 -10.627  15.465  0.00  0.00    +0.089 A 
ATOM     14  C   UNL     1      -2.065 -10.726  12.929  0.00  0.00    +0.150 C 
ATOM     15  C   UNL     1      -2.237 -10.592  16.083  0.00  0.00    +0.028 A 
ATOM     16  C   UNL     1      -4.985 -10.570  16.818  0.00  0.00    +0.030 A 
ATOM     19  C   UNL     1      -2.627 -10.536  17.425  0.00  0.00    +0.002 A 
ATOM     20  C   UNL     1      -3.976 -10.526  17.788  0.00  0.00    +0.002 A 
ENDBRANCH   5   9
BRANCH   2  10
ATOM     10  C   UNL     1      -5.163  -8.175   9.287  0.00  0.00    +0.119 C 
BRANCH  10  12
ATOM      1 CL   UNL     1     -10.485  -5.621   8.125  0.00  0.00    -0.084 Cl
ATOM     12  C   UNL     1      -6.495  -7.535   8.997  0.00  0.00    -0.033 A 
ATOM     17  C   UNL     1      -6.575  -6.162   8.770  0.00  0.00    +0.006 A 
ATOM     18  C   UNL     1      -7.650  -8.318   8.956  0.00  0.00    +0.006 A 
ATOM     21  C   UNL     1      -7.809  -5.569   8.501  0.00  0.00    +0.020 A 
ATOM     22  C   UNL     1      -8.884  -7.725   8.687  0.00  0.00    +0.020 A 
ATOM     23  C   UNL     1      -8.964  -6.352   8.460  0.00  0.00    +0.041 A 
ENDBRANCH  10  12
ENDBRANCH   2  10
TORSDOF 3
ENDMDL
MODEL 5
REMARK VINA RESULT:      -1.8      4.440      7.260
REMARK  Name = 51137882
REMARK  4 active torsions:
REMARK  status: ('A' for Active; 'I' for Inactive)
REMARK    1  A    between atoms: N_2  and  C_10
REMARK    2  A    between atoms: N_3  and  C_14
REMARK    3  A    between atoms: C_5  and  C_9
REMARK    4  A    between atoms: C_10  and  C_12
REMARK                            x       y       z     vdW  Elec       q    Type
REMARK                         _______ _______ _______ _____ _____    ______ ____
ROOT
ATOM      2  N   UNL     1      -2.759  -9.673  11.846  0.00  0.00    -0.297 NA
ATOM      5  C   UNL     1      -5.076  -9.323  11.756  0.00  0.00    +0.070 C 
ATOM      6  C   UNL     1      -4.747 -10.298  12.899  0.00  0.00    +0.028 C 
ATOM      7  C   UNL     1      -3.806  -9.290  10.896  0.00  0.00    +0.096 C 
ATOM      8  C   UNL     1      -3.332 -10.781  12.611  0.00  0.00    +0.085 C 
ENDROOT
BRANCH   5   9
ATOM      3  N   UNL     1      -7.547  -9.773  11.546  0.00  0.00    -0.330 N 
ATOM      4  N   UNL     1      -6.361  -9.905   9.671  0.00  0.00    -0.232 NA
ATOM      9  C   UNL     1      -6.315  -9.669  10.962  0.00  0.00    +0.115 A 
ATOM     11  C   UNL     1      -8.449 -10.097  10.564  0.00  0.00    +0.069 A 
ATOM     13  C   UNL     1      -7.684 -10.174   9.403  0.00  0.00    +0.089 A 
ATOM     14  C   UNL     1      -7.850  -9.578  12.945  0.00  0.00    +0.150 C 
ATOM     15  C   UNL     1      -9.825 -10.323  10.591  0.00  0.00    +0.028 A 
ATOM     16  C   UNL     1      -8.312 -10.493   8.188  0.00  0.00    +0.030 A 
ATOM     19  C   UNL     1     -10.435 -10.639   9.373  0.00  0.00    +0.002 A 
ATOM     20  C   UNL     1      -9.694 -10.724   8.192  0.00  0.00    +0.002 A 
ENDBRANCH   5   9
BRANCH   2  10
ATOM     10  C   UNL     1      -1.516 -10.040  11.185  0.00  0.00    +0.119 C 
BRANCH  10  12
ATOM      1 CL   UNL     1       2.838  -6.016  12.209  0.00  0.00    -0.084 Cl
ATOM     12  C   UNL     1      -0.425  -9.034  11.442  0.00  0.00    -0.033 A 
ATOM     17  C   UNL     1       0.759  -9.085  10.707  0.00  0.00    +0.006 A 
ATOM     18  C   UNL     1      -0.600  -8.049  12.416  0.00  0.00    +0.006 A 
ATOM     21  C   UNL     1       1.768  -8.153  10.945  0.00  0.00    +0.020 A 
ATOM     22  C   UNL     1       0.410  -7.117  12.653  0.00  0.00    +0.020 A 
ATOM     23  C   UNL     1       1.594  -7.168  11.919  0.00  0.00    +0.041 A 
ENDBRANCH  10  12
ENDBRANCH   2  10
TORSDOF 3
ENDMDL
MODEL 6
REMARK VINA RESULT:      -1.3     14.956     17.405
REMARK  Name = 51137882
REMARK  4 active torsions:
REMARK  status: ('A' for Active; 'I' for Inactive)
REMARK    1  A    between atoms: N_2  and  C_10
REMARK    2  A    between atoms: N_3  and  C_14
REMARK    3  A    between atoms: C_5  and  C_9
REMARK    4  A    between atoms: C_10  and  C_12
REMARK                            x       y       z     vdW  Elec       q    Type
REMARK                         _______ _______ _______ _____ _____    ______ ____
ROOT
ATOM      2  N   UNL     1       0.045   3.411  25.215  0.00  0.00    -0.297 NA
ATOM      5  C   UNL     1      -0.113   1.072  25.116  0.00  0.00    +0.070 C 
ATOM      6  C   UNL     1       0.618   1.592  23.867  0.00  0.00    +0.028 C 
ATOM      7  C   UNL     1      -0.787   2.313  25.716  0.00  0.00    +0.096 C 
ATOM      8  C   UNL     1       0.297   3.081  23.813  0.00  0.00    +0.085 C 
ENDROOT
BRANCH   5   9
ATOM      3  N   UNL     1      -2.357   0.164  24.414  0.00  0.00    -0.330 N 
ATOM      4  N   UNL     1      -0.837  -1.338  25.028  0.00  0.00    -0.232 NA
ATOM      9  C   UNL     1      -1.083  -0.058  24.860  0.00  0.00    +0.115 A 
ATOM     11  C   UNL     1      -2.972  -1.055  24.284  0.00  0.00    +0.069 A 
ATOM     13  C   UNL     1      -2.003  -1.976  24.674  0.00  0.00    +0.089 A 
ATOM     14  C   UNL     1      -2.951   1.449  24.128  0.00  0.00    +0.150 C 
ATOM     15  C   UNL     1      -4.255  -1.420  23.873  0.00  0.00    +0.028 A 
ATOM     16  C   UNL     1      -2.313  -3.346  24.658  0.00  0.00    +0.030 A 
ATOM     19  C   UNL     1      -4.547  -2.788  23.863  0.00  0.00    +0.002 A 
ATOM     20  C   UNL     1      -3.595  -3.735  24.249  0.00  0.00    +0.002 A 
ENDBRANCH   5   9
BRANCH   2  10
ATOM     10  C   UNL     1      -0.594   4.708  25.373  0.00  0.00    +0.119 C 
BRANCH  10  12
ATOM      1 CL   UNL     1      -6.595   4.273  25.376  0.00  0.00    -0.084 Cl
ATOM     12  C   UNL     1      -2.096   4.598  25.374  0.00  0.00    -0.033 A 
ATOM     17  C   UNL     1      -2.767   4.219  26.536  0.00  0.00    +0.006 A 
ATOM     18  C   UNL     1      -2.816   4.876  24.211  0.00  0.00    +0.006 A 
ATOM     21  C   UNL     1      -4.158   4.117  26.536  0.00  0.00    +0.020 A 
ATOM     22  C   UNL     1      -4.207   4.775  24.212  0.00  0.00    +0.020 A 
ATOM     23  C   UNL     1      -4.878   4.395  25.373  0.00  0.00    +0.041 A 
ENDBRANCH  10  12
ENDBRANCH   2  10
TORSDOF 3
ENDMDL
MODEL 7
REMARK VINA RESULT:      -1.1     16.316     17.763
REMARK  Name = 51137882
REMARK  4 active torsions:
REMARK  status: ('A' for Active; 'I' for Inactive)
REMARK    1  A    between atoms: N_2  and  C_10
REMARK    2  A    between atoms: N_3  and  C_14
REMARK    3  A    between atoms: C_5  and  C_9
REMARK    4  A    between atoms: C_10  and  C_12
REMARK                            x       y       z     vdW  Elec       q    Type
REMARK                         _______ _______ _______ _____ _____    ______ ____
ROOT
ATOM      2  N   UNL     1       0.660   1.051  23.158  0.00  0.00    -0.297 NA
ATOM      5  C   UNL     1      -1.183   2.445  23.559  0.00  0.00    +0.070 C 
ATOM      6  C   UNL     1      -0.030   2.834  24.499  0.00  0.00    +0.028 C 
ATOM      7  C   UNL     1      -0.799   1.059  23.026  0.00  0.00    +0.096 C 
ATOM      8  C   UNL     1       0.922   1.645  24.470  0.00  0.00    +0.085 C 
ENDROOT
BRANCH   5   9
ATOM      3  N   UNL     1      -3.214   1.329  24.549  0.00  0.00    -0.330 N 
ATOM      4  N   UNL     1      -3.257   3.550  24.463  0.00  0.00    -0.232 NA
ATOM      9  C   UNL     1      -2.555   2.473  24.191  0.00  0.00    +0.115 A 
ATOM     11  C   UNL     1      -4.421   1.694  25.089  0.00  0.00    +0.069 A 
ATOM     13  C   UNL     1      -4.424   3.085  25.023  0.00  0.00    +0.089 A 
ATOM     14  C   UNL     1      -2.730  -0.022  24.389  0.00  0.00    +0.150 C 
ATOM     15  C   UNL     1      -5.480   0.949  25.611  0.00  0.00    +0.028 A 
ATOM     16  C   UNL     1      -5.539   3.792  25.504  0.00  0.00    +0.030 A 
ATOM     19  C   UNL     1      -6.581   1.669  26.086  0.00  0.00    +0.002 A 
ATOM     20  C   UNL     1      -6.612   3.064  26.033  0.00  0.00    +0.002 A 
ENDBRANCH   5   9
BRANCH   2  10
ATOM     10  C   UNL     1       1.222  -0.285  23.033  0.00  0.00    +0.119 C 
BRANCH  10  12
ATOM      1 CL   UNL     1       7.223  -0.242  23.459  0.00  0.00    -0.084 Cl
ATOM     12  C   UNL     1       2.724  -0.274  23.141  0.00  0.00    -0.033 A 
ATOM     17  C   UNL     1       3.392  -1.364  23.699  0.00  0.00    +0.006 A 
ATOM     18  C   UNL     1       3.448   0.827  22.681  0.00  0.00    +0.006 A 
ATOM     21  C   UNL     1       4.783  -1.353  23.799  0.00  0.00    +0.020 A 
ATOM     22  C   UNL     1       4.839   0.837  22.781  0.00  0.00    +0.020 A 
ATOM     23  C   UNL     1       5.507  -0.252  23.339  0.00  0.00    +0.041 A 
ENDBRANCH  10  12
ENDBRANCH   2  10
TORSDOF 3
ENDMDL
MODEL 8
REMARK VINA RESULT:      -0.8      1.390      2.527
REMARK  Name = 51137882
REMARK  4 active torsions:
REMARK  status: ('A' for Active; 'I' for Inactive)
REMARK    1  A    between atoms: N_2  and  C_10
REMARK    2  A    between atoms: N_3  and  C_14
REMARK    3  A    between atoms: C_5  and  C_9
REMARK    4  A    between atoms: C_10  and  C_12
REMARK                            x       y       z     vdW  Elec       q    Type
REMARK                         _______ _______ _______ _____ _____    ______ ____
ROOT
ATOM      2  N   UNL     1      -5.182  -9.191  10.164  0.00  0.00    -0.297 NA
ATOM      5  C   UNL     1      -5.070 -10.527  12.089  0.00  0.00    +0.070 C 
ATOM      6  C   UNL     1      -6.405 -10.776  11.367  0.00  0.00    +0.028 C 
ATOM      7  C   UNL     1      -4.535  -9.224  11.479  0.00  0.00    +0.096 C 
ATOM      8  C   UNL     1      -6.565  -9.597  10.416  0.00  0.00    +0.085 C 
ENDROOT
BRANCH   5   9
ATOM      3  N   UNL     1      -6.356 -10.316  14.246  0.00  0.00    -0.330 N 
ATOM      4  N   UNL     1      -4.156 -10.568  14.435  0.00  0.00    -0.232 NA
ATOM      9  C   UNL     1      -5.163 -10.474  13.596  0.00  0.00    +0.115 A 
ATOM     11  C   UNL     1      -6.100 -10.309  15.594  0.00  0.00    +0.069 A 
ATOM     13  C   UNL     1      -4.720 -10.467  15.685  0.00  0.00    +0.089 A 
ATOM     14  C   UNL     1      -7.655 -10.181  13.628  0.00  0.00    +0.150 C 
ATOM     15  C   UNL     1      -6.933 -10.179  16.707  0.00  0.00    +0.028 A 
ATOM     16  C   UNL     1      -4.117 -10.502  16.954  0.00  0.00    +0.030 A 
ATOM     19  C   UNL     1      -6.316 -10.217  17.961  0.00  0.00    +0.002 A 
ATOM     20  C   UNL     1      -4.933 -10.375  18.085  0.00  0.00    +0.002 A 
ENDBRANCH   5   9
BRANCH   2  10
ATOM     10  C   UNL     1      -5.094  -7.882   9.536  0.00  0.00    +0.119 C 
BRANCH  10  12
ATOM      1 CL   UNL     1     -10.523  -5.705   8.126  0.00  0.00    -0.084 Cl
ATOM     12  C   UNL     1      -6.453  -7.337   9.182  0.00  0.00    -0.033 A 
ATOM     17  C   UNL     1      -7.558  -8.186   9.152  0.00  0.00    +0.006 A 
ATOM     18  C   UNL     1      -6.605  -5.982   8.883  0.00  0.00    +0.006 A 
ATOM     21  C   UNL     1      -8.817  -7.682   8.825  0.00  0.00    +0.020 A 
ATOM     22  C   UNL     1      -7.863  -5.478   8.555  0.00  0.00    +0.020 A 
ATOM     23  C   UNL     1      -8.969  -6.327   8.526  0.00  0.00    +0.041 A 
ENDBRANCH  10  12
ENDBRANCH   2  10
TORSDOF 3
ENDMDL
MODEL 9
REMARK VINA RESULT:      -0.5     15.462     17.496
REMARK  Name = 51137882
REMARK  4 active torsions:
REMARK  status: ('A' for Active; 'I' for Inactive)
REMARK    1  A    between atoms: N_2  and  C_10
REMARK    2  A    between atoms: N_3  and  C_14
REMARK    3  A    between atoms: C_5  and  C_9
REMARK    4  A    between atoms: C_10  and  C_12
REMARK                            x       y       z     vdW  Elec       q    Type
REMARK                         _______ _______ _______ _____ _____    ______ ____
ROOT
ATOM      2  N   UNL     1      -4.283   0.003  24.839  0.00  0.00    -0.297 NA
ATOM      5  C   UNL     1      -2.311  -0.862  23.909  0.00  0.00    +0.070 C 
ATOM      6  C   UNL     1      -2.482  -1.396  25.341  0.00  0.00    +0.028 C 
ATOM      7  C   UNL     1      -3.283   0.322  23.817  0.00  0.00    +0.096 C 
ATOM      8  C   UNL     1      -3.510  -0.475  25.986  0.00  0.00    +0.085 C 
ENDROOT
BRANCH   5   9
ATOM      3  N   UNL     1      -0.244   0.566  24.106  0.00  0.00    -0.330 N 
ATOM      4  N   UNL     1      -0.146  -1.109  22.648  0.00  0.00    -0.232 NA
ATOM      9  C   UNL     1      -0.895  -0.491  23.533  0.00  0.00    +0.115 A 
ATOM     11  C   UNL     1       1.010   0.633  23.554  0.00  0.00    +0.069 A 
ATOM     13  C   UNL     1       1.046  -0.422  22.646  0.00  0.00    +0.089 A 
ATOM     14  C   UNL     1      -0.776   1.454  25.114  0.00  0.00    +0.150 C 
ATOM     15  C   UNL     1       2.082   1.502  23.763  0.00  0.00    +0.028 A 
ATOM     16  C   UNL     1       2.213  -0.640  21.895  0.00  0.00    +0.030 A 
ATOM     19  C   UNL     1       3.236   1.270  23.007  0.00  0.00    +0.002 A 
ATOM     20  C   UNL     1       3.302   0.219  22.089  0.00  0.00    +0.002 A 
ENDBRANCH   5   9
BRANCH   2  10
ATOM     10  C   UNL     1      -5.121   1.145  25.173  0.00  0.00    +0.119 C 
BRANCH  10  12
ATOM      1 CL   UNL     1      -2.031   6.305  25.022  0.00  0.00    -0.084 Cl
ATOM     12  C   UNL     1      -4.348   2.437  25.136  0.00  0.00    -0.033 A 
ATOM     17  C   UNL     1      -3.911   3.023  26.323  0.00  0.00    +0.006 A 
ATOM     18  C   UNL     1      -4.070   3.048  23.912  0.00  0.00    +0.006 A 
ATOM     21  C   UNL     1      -3.195   4.219  26.288  0.00  0.00    +0.020 A 
ATOM     22  C   UNL     1      -3.355   4.244  23.877  0.00  0.00    +0.020 A 
ATOM     23  C   UNL     1      -2.917   4.830  25.064  0.00  0.00    +0.041 A 
ENDBRANCH  10  12
ENDBRANCH   2  10
TORSDOF 3
ENDMDL
MODEL 10
REMARK VINA RESULT:      -0.5     14.472     17.301
REMARK  Name = 51137882
REMARK  4 active torsions:
REMARK  status: ('A' for Active; 'I' for Inactive)
REMARK    1  A    between atoms: N_2  and  C_10
REMARK    2  A    between atoms: N_3  and  C_14
REMARK    3  A    between atoms: C_5  and  C_9
REMARK    4  A    between atoms: C_10  and  C_12
REMARK                            x       y       z     vdW  Elec       q    Type
REMARK                         _______ _______ _______ _____ _____    ______ ____
ROOT
ATOM      2  N   UNL     1      -3.438   2.506  25.483  0.00  0.00    -0.297 NA
ATOM      5  C   UNL     1      -1.143   2.711  25.043  0.00  0.00    +0.070 C 
ATOM      6  C   UNL     1      -1.919   3.760  24.229  0.00  0.00    +0.028 C 
ATOM      7  C   UNL     1      -2.211   1.707  25.499  0.00  0.00    +0.096 C 
ATOM      8  C   UNL     1      -3.365   3.282  24.245  0.00  0.00    +0.085 C 
ENDROOT
BRANCH   5   9
ATOM      3  N   UNL     1      -0.170   0.944  23.532  0.00  0.00    -0.330 N 
ATOM      4  N   UNL     1       1.255   2.455  24.323  0.00  0.00    -0.232 NA
ATOM      9  C   UNL     1       0.003   2.057  24.308  0.00  0.00    +0.115 A 
ATOM     11  C   UNL     1       1.051   0.604  23.010  0.00  0.00    +0.069 A 
ATOM     13  C   UNL     1       1.925   1.561  23.519  0.00  0.00    +0.089 A 
ATOM     14  C   UNL     1      -1.416   0.249  23.300  0.00  0.00    +0.150 C 
ATOM     15  C   UNL     1       1.456  -0.430  22.164  0.00  0.00    +0.028 A 
ATOM     16  C   UNL     1       3.285   1.501  23.173  0.00  0.00    +0.030 A 
ATOM     19  C   UNL     1       2.813  -0.474  21.829  0.00  0.00    +0.002 A 
ATOM     20  C   UNL     1       3.713   0.473  22.324  0.00  0.00    +0.002 A 
ENDBRANCH   5   9
BRANCH   2  10
ATOM     10  C   UNL     1      -4.637   1.684  25.551  0.00  0.00    +0.119 C 
BRANCH  10  12
ATOM      1 CL   UNL     1      -3.503  -4.051  24.134  0.00  0.00    -0.084 Cl
ATOM     12  C   UNL     1      -4.354   0.249  25.197  0.00  0.00    -0.033 A 
ATOM     17  C   UNL     1      -4.767  -0.260  23.966  0.00  0.00    +0.006 A 
ATOM     18  C   UNL     1      -3.679  -0.573  26.101  0.00  0.00    +0.006 A 
ATOM     21  C   UNL     1      -4.505  -1.590  23.638  0.00  0.00    +0.020 A 
ATOM     22  C   UNL     1      -3.416  -1.902  25.772  0.00  0.00    +0.020 A 
ATOM     23  C   UNL     1      -3.829  -2.412  24.542  0.00  0.00    +0.041 A 
ENDBRANCH  10  12
ENDBRANCH   2  10
TORSDOF 3
ENDMDL
