MODEL 1
REMARK VINA RESULT:       3.9      0.000      0.000
REMARK  Name = 11885094
REMARK  19 active torsions:
REMARK  status: ('A' for Active; 'I' for Inactive)
REMARK    1  A    between atoms: O_2  and  C_15
REMARK    2  A    between atoms: O_3  and  C_20
REMARK    3  A    between atoms: O_5  and  C_29
REMARK    4  A    between atoms: N_8  and  CA_26
REMARK    5  A    between atoms: C_10  and  C_18
REMARK    6  A    between atoms: C_12  and  C_20
REMARK    7  A    between atoms: C_12  and  C_21
REMARK    8  A    between atoms: C_13  and  C_23
REMARK    9  A    between atoms: C_23  and  C_24
REMARK   10  A    between atoms: CA_26  and  CB_27
REMARK   11  A    between atoms: CA_26  and  C_29
REMARK   12  A    between atoms: CB_27  and  CG_30
REMARK   13  A    between atoms: C_28  and  C_31
REMARK   14  A    between atoms: CG_30  and  CD1_32
REMARK   15  A    between atoms: CG_30  and  CD2_33
REMARK   16  A    between atoms: C_31  and  C_34
REMARK   17  A    between atoms: C_34  and  C_35
REMARK   18  A    between atoms: C_35  and  C_36
REMARK   19  A    between atoms: C_36  and  C_37
REMARK                            x       y       z     vdW  Elec       q    Type
REMARK                         _______ _______ _______ _____ _____    ______ ____
ROOT
ATOM      1  S   UNL     1       0.737   2.338  25.036  0.00  0.00    -0.057 S 
ATOM      6  O   UNL     1       1.549  -0.212  21.220  0.00  0.00    -0.275 OA
ATOM      7  N   UNL     1      -0.368   1.184  23.002  0.00  0.00    -0.229 NA
ATOM      9  N   UNL     1       2.027   0.985  23.196  0.00  0.00    -0.265 N 
ATOM     10  C   UNL     1      -3.797   2.122  24.496  0.00  0.00    -0.019 C 
ATOM     11  C   UNL     1      -3.227   3.444  25.175  0.00  0.00    +0.011 C 
ATOM     12  C   UNL     1      -4.215   4.259  26.096  0.00  0.00    +0.021 C 
ATOM     13  C   UNL     1      -2.815   1.719  23.300  0.00  0.00    +0.054 C 
ATOM     14  C   UNL     1      -5.199   2.410  23.900  0.00  0.00    +0.010 C 
ATOM     15  C   UNL     1      -5.580   4.416  25.369  0.00  0.00    +0.123 C 
ATOM     16  C   UNL     1      -1.831   3.198  25.817  0.00  0.00    +0.049 C 
ATOM     17  C   UNL     1      -6.152   3.094  24.869  0.00  0.00    +0.032 C 
ATOM     18  C   UNL     1      -3.913   0.938  25.488  0.00  0.00    +0.012 C 
ATOM     19  C   UNL     1      -1.374   1.779  23.739  0.00  0.00    +0.058 A 
ATOM     21  C   UNL     1      -3.640   5.687  26.317  0.00  0.00    +0.016 C 
ATOM     22  C   UNL     1      -0.953   2.463  24.861  0.00  0.00    +0.015 A 
ATOM     25  C   UNL     1       0.785   1.407  23.594  0.00  0.00    +0.165 A 
ATOM     28  C   UNL     1       2.335   0.217  22.058  0.00  0.00    +0.219 C 
ATOM     41  H   UNL     1       2.791   1.271  23.803  0.00  0.00    +0.157 HD
ENDROOT
BRANCH  15   2
ATOM      2  O   UNL     1      -6.538   5.037  26.227  0.00  0.00    -0.391 OA
ATOM     38  H   UNL     1      -6.469   5.998  26.097  0.00  0.00    +0.210 HD
ENDBRANCH  15   2
BRANCH  12  20
ATOM     20  C   UNL     1      -4.409   3.665  27.508  0.00  0.00    +0.165 C 
BRANCH  20   3
ATOM      3  O   UNL     1      -3.416   4.212  28.348  0.00  0.00    -0.394 OA
ATOM     39  H   UNL     1      -3.089   5.021  27.920  0.00  0.00    +0.209 HD
ENDBRANCH  20   3
ENDBRANCH  12  20
BRANCH  13  23
ATOM     23  C   UNL     1      -3.143   0.378  22.631  0.00  0.00    +0.106 C 
BRANCH  23  24
ATOM      4  O   UNL     1      -4.822  -0.659  24.031  0.00  0.00    -0.276 OA
ATOM      8  N   UNL     1      -2.665  -1.522  23.998  0.00  0.00    -0.310 N 
ATOM     24  C   ACE A   0      -3.665  -0.637  23.621  0.00  0.00    +0.214 C 
ATOM     40  H   UNL     1      -1.754  -1.454  23.553  0.00  0.00    +0.149 HD
BRANCH   8  26
ATOM     26  CA  UNL     1      -2.876  -2.599  24.938  0.00  0.00    +0.098 C 
BRANCH  26  27
ATOM     27  CB  UNL     1      -1.547  -3.045  25.573  0.00  0.00    +0.027 C 
BRANCH  27  30
ATOM     30  CG  UNL     1      -0.468  -1.944  25.670  0.00  0.00    -0.015 C 
ATOM     32  CD1 UNL     1       0.095  -1.553  24.303  0.00  0.00    +0.007 C 
ATOM     33  CD2 UNL     1      -1.055  -0.707  26.357  0.00  0.00    +0.007 C 
ENDBRANCH  27  30
ENDBRANCH  26  27
BRANCH  26  29
ATOM     29  C   UNL     1      -3.599  -3.762  24.250  0.00  0.00    +0.178 C 
BRANCH  29   5
ATOM      5  O   UNL     1      -4.668  -3.283  23.442  0.00  0.00    -0.393 OA
ATOM     42  H   UNL     1      -4.492  -2.343  23.264  0.00  0.00    +0.209 HD
ENDBRANCH  29   5
ENDBRANCH  26  29
ENDBRANCH   8  26
ENDBRANCH  23  24
ENDBRANCH  13  23
BRANCH  28  31
ATOM     31  C   UNL     1       3.832  -0.044  21.961  0.00  0.00    +0.096 C 
BRANCH  31  34
ATOM     34  C   UNL     1       4.654   0.901  22.835  0.00  0.00    +0.009 C 
BRANCH  34  35
ATOM     35  C   UNL     1       5.879   0.197  23.419  0.00  0.00    +0.000 C 
BRANCH  35  36
ATOM     36  C   UNL     1       5.484  -0.781  24.525  0.00  0.00    -0.003 C 
ATOM     37  C   UNL     1       4.674  -1.945  23.977  0.00  0.00    +0.004 C 
ENDBRANCH  35  36
ENDBRANCH  34  35
ENDBRANCH  31  34
ENDBRANCH  28  31
TORSDOF 14
ENDMDL
MODEL 2
REMARK VINA RESULT:       4.1      1.042      1.600
REMARK  Name = 11885094
REMARK  19 active torsions:
REMARK  status: ('A' for Active; 'I' for Inactive)
REMARK    1  A    between atoms: O_2  and  C_15
REMARK    2  A    between atoms: O_3  and  C_20
REMARK    3  A    between atoms: O_5  and  C_29
REMARK    4  A    between atoms: N_8  and  CA_26
REMARK    5  A    between atoms: C_10  and  C_18
REMARK    6  A    between atoms: C_12  and  C_20
REMARK    7  A    between atoms: C_12  and  C_21
REMARK    8  A    between atoms: C_13  and  C_23
REMARK    9  A    between atoms: C_23  and  C_24
REMARK   10  A    between atoms: CA_26  and  CB_27
REMARK   11  A    between atoms: CA_26  and  C_29
REMARK   12  A    between atoms: CB_27  and  CG_30
REMARK   13  A    between atoms: C_28  and  C_31
REMARK   14  A    between atoms: CG_30  and  CD1_32
REMARK   15  A    between atoms: CG_30  and  CD2_33
REMARK   16  A    between atoms: C_31  and  C_34
REMARK   17  A    between atoms: C_34  and  C_35
REMARK   18  A    between atoms: C_35  and  C_36
REMARK   19  A    between atoms: C_36  and  C_37
REMARK                            x       y       z     vdW  Elec       q    Type
REMARK                         _______ _______ _______ _____ _____    ______ ____
ROOT
ATOM      1  S   UNL     1       0.591   2.094  25.123  0.00  0.00    -0.057 S 
ATOM      6  O   UNL     1       1.594  -0.214  21.200  0.00  0.00    -0.275 OA
ATOM      7  N   UNL     1      -0.406   1.100  22.954  0.00  0.00    -0.229 NA
ATOM      9  N   UNL     1       1.969   0.841  23.277  0.00  0.00    -0.265 N 
ATOM     10  C   UNL     1      -3.904   2.005  24.300  0.00  0.00    -0.019 C 
ATOM     11  C   UNL     1      -3.355   3.268  25.098  0.00  0.00    +0.011 C 
ATOM     12  C   UNL     1      -4.385   4.040  26.011  0.00  0.00    +0.021 C 
ATOM     13  C   UNL     1      -2.858   1.663  23.141  0.00  0.00    +0.054 C 
ATOM     14  C   UNL     1      -5.263   2.361  23.641  0.00  0.00    +0.010 C 
ATOM     15  C   UNL     1      -5.700   4.273  25.216  0.00  0.00    +0.123 C 
ATOM     16  C   UNL     1      -2.006   2.953  25.805  0.00  0.00    +0.049 C 
ATOM     17  C   UNL     1      -6.262   2.998  24.596  0.00  0.00    +0.032 C 
ATOM     18  C   UNL     1      -4.100   0.761  25.201  0.00  0.00    +0.012 C 
ATOM     19  C   UNL     1      -1.445   1.665  23.668  0.00  0.00    +0.058 A 
ATOM     21  C   UNL     1      -3.802   5.439  26.362  0.00  0.00    +0.016 C 
ATOM     22  C   UNL     1      -1.083   2.265  24.857  0.00  0.00    +0.015 A 
ATOM     25  C   UNL     1       0.712   1.260  23.627  0.00  0.00    +0.165 A 
ATOM     28  C   UNL     1       2.333   0.143  22.111  0.00  0.00    +0.219 C 
ATOM     41  H   UNL     1       2.699   1.070  23.946  0.00  0.00    +0.157 HD
ENDROOT
BRANCH  15   2
ATOM      2  O   UNL     1      -6.699   4.854  26.055  0.00  0.00    -0.391 OA
ATOM     38  H   UNL     1      -6.547   4.532  26.960  0.00  0.00    +0.210 HD
ENDBRANCH  15   2
BRANCH  12  20
ATOM     20  C   UNL     1      -4.675   3.358  27.367  0.00  0.00    +0.165 C 
BRANCH  20   3
ATOM      3  O   UNL     1      -5.834   2.570  27.215  0.00  0.00    -0.394 OA
ATOM     39  H   UNL     1      -6.367   2.971  26.508  0.00  0.00    +0.209 HD
ENDBRANCH  20   3
ENDBRANCH  12  20
BRANCH  13  23
ATOM     23  C   UNL     1      -3.166   0.376  22.364  0.00  0.00    +0.106 C 
BRANCH  23  24
ATOM      4  O   UNL     1      -4.296  -1.359  23.616  0.00  0.00    -0.276 OA
ATOM      8  N   UNL     1      -1.976  -1.240  23.661  0.00  0.00    -0.310 N 
ATOM     24  C   ACE A   0      -3.243  -0.829  23.273  0.00  0.00    +0.214 C 
ATOM     40  H   UNL     1      -1.165  -0.767  23.272  0.00  0.00    +0.149 HD
BRANCH   8  26
ATOM     26  CA  UNL     1      -1.743  -2.367  24.534  0.00  0.00    +0.098 C 
BRANCH  26  27
ATOM     27  CB  UNL     1      -2.907  -2.546  25.526  0.00  0.00    +0.027 C 
BRANCH  27  30
ATOM     30  CG  UNL     1      -2.980  -1.484  26.645  0.00  0.00    -0.015 C 
ATOM     32  CD1 UNL     1      -3.219  -2.101  28.024  0.00  0.00    +0.007 C 
ATOM     33  CD2 UNL     1      -1.685  -0.667  26.665  0.00  0.00    +0.007 C 
ENDBRANCH  27  30
ENDBRANCH  26  27
BRANCH  26  29
ATOM     29  C   UNL     1      -0.400  -2.205  25.253  0.00  0.00    +0.178 C 
BRANCH  29   5
ATOM      5  O   UNL     1       0.513  -1.462  24.454  0.00  0.00    -0.393 OA
ATOM     42  H   UNL     1       0.669  -1.979  23.645  0.00  0.00    +0.209 HD
ENDBRANCH  29   5
ENDBRANCH  26  29
ENDBRANCH   8  26
ENDBRANCH  23  24
ENDBRANCH  13  23
BRANCH  28  31
ATOM     31  C   UNL     1       3.830  -0.141  22.086  0.00  0.00    +0.096 C 
BRANCH  31  34
ATOM     34  C   UNL     1       4.637   0.883  22.880  0.00  0.00    +0.009 C 
BRANCH  34  35
ATOM     35  C   UNL     1       5.889   0.252  23.492  0.00  0.00    +0.000 C 
BRANCH  35  36
ATOM     36  C   UNL     1       5.527  -0.765  24.574  0.00  0.00    -0.003 C 
ATOM     37  C   UNL     1       4.755  -1.940  23.999  0.00  0.00    +0.004 C 
ENDBRANCH  35  36
ENDBRANCH  34  35
ENDBRANCH  31  34
ENDBRANCH  28  31
TORSDOF 14
ENDMDL
