MODEL 1
REMARK VINA RESULT:       0.4      0.000      0.000
REMARK  Name = 11865971
REMARK  8 active torsions:
REMARK  status: ('A' for Active; 'I' for Inactive)
REMARK    1  A    between atoms: S_1  and  C_25
REMARK    2  A    between atoms: S_1  and  C_31
REMARK    3  A    between atoms: O_6  and  C_26
REMARK    4  A    between atoms: O_6  and  C_32
REMARK    5  A    between atoms: N_10  and  C_15
REMARK    6  A    between atoms: C_21  and  C_22
REMARK    7  A    between atoms: C_22  and  C_24
REMARK    8  A    between atoms: C_23  and  C_25
REMARK                            x       y       z     vdW  Elec       q    Type
REMARK                         _______ _______ _______ _____ _____    ______ ____
ROOT
ATOM      2  O   UNL     1      -3.275 -10.688  11.010  0.00  0.00    -0.273 OA
ATOM      3  O   UNL     1      -5.316  -9.951  16.307  0.00  0.00    -0.274 OA
ATOM      4  O   UNL     1      -4.501  -8.256   9.717  0.00  0.00    -0.275 OA
ATOM      7  N   UNL     1      -3.278 -10.314  13.300  0.00  0.00    -0.287 N 
ATOM      8  N   UNL     1      -5.887  -9.826  10.699  0.00  0.00    -0.288 N 
ATOM      9  N   UNL     1      -6.155 -10.444  14.266  0.00  0.00    -0.309 N 
ATOM     11  C   UNL     1      -5.271  -9.787  12.024  0.00  0.00    +0.182 C 
ATOM     12  C   UNL     1      -6.084 -10.778  12.861  0.00  0.00    +0.104 C 
ATOM     13  C   UNL     1      -3.794  -9.605  14.476  0.00  0.00    +0.164 C 
ATOM     14  C   UNL     1      -2.655  -9.723  15.507  0.00  0.00    +0.055 C 
ATOM     15  C   UNL     1      -1.399  -9.923  14.664  0.00  0.00    +0.092 C 
ATOM     16  C   UNL     1      -7.446 -10.781  12.172  0.00  0.00    +0.043 C 
ATOM     17  C   UNL     1      -1.913 -10.781  13.516  0.00  0.00    +0.131 C 
ATOM     18  C   UNL     1      -3.840 -10.296  12.029  0.00  0.00    +0.239 C 
ATOM     19  C   UNL     1      -7.070 -10.683  10.700  0.00  0.00    +0.110 C 
ATOM     20  C   UNL     1      -5.117 -10.079  15.092  0.00  0.00    +0.234 C 
ATOM     21  C   UNL     1      -5.509  -8.964   9.682  0.00  0.00    +0.221 C 
ATOM     33  H   UNL     1      -7.020 -10.690  14.739  0.00  0.00    +0.149 HD
ENDROOT
BRANCH  15  10
ATOM      5  O   UNL     1      -0.334  -9.347  12.035  0.00  0.00    -0.275 OA
ATOM     10  N   UNL     1      -0.873  -8.665  14.191  0.00  0.00    -0.310 N 
ATOM     23  C   UNL     1      -0.382  -8.482  12.907  0.00  0.00    +0.223 C 
ATOM     34  H   UNL     1      -0.815  -7.899  14.856  0.00  0.00    +0.149 HD
BRANCH  23  25
ATOM     25  C   UNL     1       0.128  -7.080  12.663  0.00  0.00    +0.164 C 
BRANCH  25   1
ATOM      1  S   UNL     1       1.667  -7.171  11.720  0.00  0.00    -0.155 S 
ATOM     31  C   UNL     1       2.410  -5.615  12.263  0.00  0.00    +0.085 C 
ENDBRANCH  25   1
ENDBRANCH  23  25
ENDBRANCH  15  10
BRANCH  21  22
ATOM     22  C   UNL     1      -6.415  -8.935   8.476  0.00  0.00    +0.134 C 
BRANCH  22  24
ATOM     24  C   UNL     1      -7.318  -7.742   8.525  0.00  0.00    +0.003 A 
ATOM     26  C   UNL     1      -8.693  -7.900   8.688  0.00  0.00    +0.124 A 
ATOM     27  C   UNL     1      -6.768  -6.469   8.406  0.00  0.00    +0.008 A 
ATOM     28  C   UNL     1      -9.521  -6.778   8.731  0.00  0.00    +0.046 A 
ATOM     29  C   UNL     1      -7.595  -5.346   8.449  0.00  0.00    +0.001 A 
ATOM     30  C   UNL     1      -8.972  -5.501   8.611  0.00  0.00    +0.004 A 
BRANCH  26   6
ATOM      6  O   UNL     1      -9.247  -9.140   8.805  0.00  0.00    -0.495 OA
ATOM     32  C   UNL     1     -10.528  -9.220   9.426  0.00  0.00    +0.277 C 
ENDBRANCH  26   6
ENDBRANCH  22  24
ENDBRANCH  21  22
TORSDOF 6
ENDMDL
MODEL 2
REMARK VINA RESULT:       4.2      1.788      2.526
REMARK  Name = 11865971
REMARK  8 active torsions:
REMARK  status: ('A' for Active; 'I' for Inactive)
REMARK    1  A    between atoms: S_1  and  C_25
REMARK    2  A    between atoms: S_1  and  C_31
REMARK    3  A    between atoms: O_6  and  C_26
REMARK    4  A    between atoms: O_6  and  C_32
REMARK    5  A    between atoms: N_10  and  C_15
REMARK    6  A    between atoms: C_21  and  C_22
REMARK    7  A    between atoms: C_22  and  C_24
REMARK    8  A    between atoms: C_23  and  C_25
REMARK                            x       y       z     vdW  Elec       q    Type
REMARK                         _______ _______ _______ _____ _____    ______ ____
ROOT
ATOM      2  O   UNL     1      -5.055 -10.780  12.295  0.00  0.00    -0.273 OA
ATOM      3  O   UNL     1      -7.432  -8.744  17.088  0.00  0.00    -0.274 OA
ATOM      4  O   UNL     1      -5.479  -8.372  10.529  0.00  0.00    -0.275 OA
ATOM      7  N   UNL     1      -5.223 -10.050  14.491  0.00  0.00    -0.287 N 
ATOM      8  N   UNL     1      -7.316  -9.400  11.489  0.00  0.00    -0.288 N 
ATOM      9  N   UNL     1      -8.132  -9.353  15.026  0.00  0.00    -0.309 N 
ATOM     11  C   UNL     1      -6.863  -9.290  12.875  0.00  0.00    +0.182 C 
ATOM     12  C   UNL     1      -7.988  -9.917  13.702  0.00  0.00    +0.104 C 
ATOM     13  C   UNL     1      -5.675  -9.060  15.475  0.00  0.00    +0.164 C 
ATOM     14  C   UNL     1      -4.726  -9.269  16.671  0.00  0.00    +0.055 C 
ATOM     15  C   UNL     1      -3.473  -9.887  16.058  0.00  0.00    +0.092 C 
ATOM     16  C   UNL     1      -9.221  -9.718  12.825  0.00  0.00    +0.043 C 
ATOM     17  C   UNL     1      -4.052 -10.778  14.967  0.00  0.00    +0.131 C 
ATOM     18  C   UNL     1      -5.616 -10.108  13.158  0.00  0.00    +0.239 C 
ATOM     19  C   UNL     1      -8.667  -9.949  11.425  0.00  0.00    +0.110 C 
ATOM     20  C   UNL     1      -7.135  -9.109  15.944  0.00  0.00    +0.234 C 
ATOM     21  C   UNL     1      -6.621  -8.825  10.436  0.00  0.00    +0.221 C 
ATOM     33  H   UNL     1      -9.078  -9.313  15.393  0.00  0.00    +0.149 HD
ENDROOT
BRANCH  15  10
ATOM      5  O   UNL     1      -0.756 -10.242  15.123  0.00  0.00    -0.275 OA
ATOM     10  N   UNL     1      -2.599  -8.879  15.509  0.00  0.00    -0.310 N 
ATOM     23  C   UNL     1      -1.305  -9.143  15.085  0.00  0.00    +0.223 C 
ATOM     34  H   UNL     1      -2.939  -7.921  15.489  0.00  0.00    +0.149 HD
BRANCH  23  25
ATOM     25  C   UNL     1      -0.590  -7.916  14.568  0.00  0.00    +0.164 C 
BRANCH  25   1
ATOM      1  S   UNL     1      -0.394  -8.064  12.777  0.00  0.00    -0.155 S 
ATOM     31  C   UNL     1       0.911  -6.833  12.546  0.00  0.00    +0.085 C 
ENDBRANCH  25   1
ENDBRANCH  23  25
ENDBRANCH  15  10
BRANCH  21  22
ATOM     22  C   UNL     1      -7.349  -8.783   9.116  0.00  0.00    +0.134 C 
BRANCH  22  24
ATOM     24  C   UNL     1      -8.423  -7.740   9.139  0.00  0.00    +0.003 A 
ATOM     26  C   UNL     1      -8.152  -6.435   8.737  0.00  0.00    +0.124 A 
ATOM     27  C   UNL     1      -9.700  -8.091   9.569  0.00  0.00    +0.008 A 
ATOM     28  C   UNL     1      -9.163  -5.474   8.764  0.00  0.00    +0.046 A 
ATOM     29  C   UNL     1     -10.713  -7.131   9.597  0.00  0.00    +0.001 A 
ATOM     30  C   UNL     1     -10.444  -5.823   9.195  0.00  0.00    +0.004 A 
BRANCH  26   6
ATOM      6  O   UNL     1      -6.906  -6.076   8.315  0.00  0.00    -0.495 OA
ATOM     32  C   UNL     1      -6.476  -4.751   8.621  0.00  0.00    +0.277 C 
ENDBRANCH  26   6
ENDBRANCH  22  24
ENDBRANCH  21  22
TORSDOF 6
ENDMDL
