MODEL 1
REMARK VINA RESULT:       3.1      0.000      0.000
REMARK  Name = 11912973
REMARK  7 active torsions:
REMARK  status: ('A' for Active; 'I' for Inactive)
REMARK    1  A    between atoms: S_1  and  N_8
REMARK    2  A    between atoms: S_1  and  C_20
REMARK    3  A    between atoms: N_8  and  C_15
REMARK    4  A    between atoms: N_9  and  C_16
REMARK    5  A    between atoms: N_12  and  C_27
REMARK    6  A    between atoms: C_23  and  C_29
REMARK    7  A    between atoms: C_31  and  C_34
REMARK                            x       y       z     vdW  Elec       q    Type
REMARK                         _______ _______ _______ _____ _____    ______ ____
ROOT
ATOM      2  O   UNL     1      -1.184   2.646  26.955  0.00  0.00    -0.370 OA
ATOM      3  O   UNL     1      -0.885   4.262  24.297  0.00  0.00    -0.370 OA
ATOM     13  C   UNL     1      -1.996   3.617  24.941  0.00  0.00    +0.170 C 
ATOM     14  C   UNL     1      -1.473   2.345  25.579  0.00  0.00    +0.171 C 
ATOM     15  C   UNL     1      -2.477   4.447  26.107  0.00  0.00    +0.133 C 
ATOM     16  C   UNL     1      -0.197   2.052  24.828  0.00  0.00    +0.130 C 
ATOM     17  C   UNL     1      -1.562   4.002  27.232  0.00  0.00    +0.183 C 
ATOM     18  C   UNL     1       0.281   3.437  24.431  0.00  0.00    +0.185 C 
ENDROOT
BRANCH  16   9
ATOM      9  N   UNL     1      -0.485   1.265  23.648  0.00  0.00    -0.306 N 
ATOM     10  N   UNL     1       1.750   0.589  23.417  0.00  0.00    -0.211 NA
ATOM     11  N   UNL     1       0.065  -0.155  21.863  0.00  0.00    -0.223 NA
ATOM     19  C   UNL     1       0.471   0.545  22.956  0.00  0.00    +0.216 A 
ATOM     23  C   UNL     1       2.657  -0.125  22.718  0.00  0.00    +0.111 A 
ATOM     24  C   UNL     1       1.023  -0.845  21.212  0.00  0.00    +0.116 A 
ATOM     28  C   UNL     1       2.348  -0.868  21.597  0.00  0.00    +0.051 A 
ATOM     36  H   UNL     1      -1.443   1.182  23.327  0.00  0.00    +0.149 HD
BRANCH  23  29
ATOM      6  O   UNL     1       4.440  -1.181  23.850  0.00  0.00    -0.461 OA
ATOM     29  C   UNL     1       4.000  -0.058  23.229  0.00  0.00    +0.153 A 
ATOM     30  C   UNL     1       4.970   0.915  23.233  0.00  0.00    +0.051 A 
ATOM     32  C   UNL     1       6.083   0.353  23.903  0.00  0.00    +0.042 A 
ATOM     33  C   UNL     1       5.711  -0.923  24.258  0.00  0.00    +0.196 A 
ENDBRANCH  23  29
ENDBRANCH  16   9
BRANCH  15   8
ATOM      8  N   UNL     1      -3.877   4.085  26.433  0.00  0.00    -0.182 NA
ATOM     35  H   UNL     1      -4.040   3.680  27.363  0.00  0.00    +0.148 HD
BRANCH   8   1
ATOM      1  S   UNL     1      -4.973   3.741  25.183  0.00  0.00    +0.059 S 
ATOM      4  O   UNL     1      -4.662   4.561  24.028  0.00  0.00    -0.153 OA
ATOM      5  O   UNL     1      -6.317   3.731  25.729  0.00  0.00    -0.153 OA
BRANCH   1  20
ATOM     20  C   UNL     1      -4.565   2.066  24.789  0.00  0.00    +0.105 A 
ATOM     21  C   UNL     1      -3.972   1.785  23.570  0.00  0.00    +0.030 A 
ATOM     22  C   UNL     1      -4.844   1.069  25.706  0.00  0.00    +0.030 A 
ATOM     25  C   UNL     1      -3.649   0.463  23.260  0.00  0.00    +0.025 A 
ATOM     26  C   UNL     1      -4.521  -0.251  25.397  0.00  0.00    +0.025 A 
ATOM     27  C   UNL     1      -3.924  -0.554  24.173  0.00  0.00    +0.033 A 
BRANCH  27  12
ATOM      7  O   UNL     1      -1.423  -2.137  24.732  0.00  0.00    -0.276 OA
ATOM     12  N   UNL     1      -3.600  -1.875  23.863  0.00  0.00    -0.286 N 
ATOM     31  C   UNL     1      -2.413  -2.565  24.147  0.00  0.00    +0.214 C 
ATOM     34  C   UNL     1      -2.457  -3.985  23.642  0.00  0.00    +0.109 C 
ATOM     37  H   UNL     1      -4.321  -2.395  23.369  0.00  0.00    +0.155 HD
ENDBRANCH  27  12
ENDBRANCH   1  20
ENDBRANCH   8   1
ENDBRANCH  15   8
TORSDOF 6
ENDMDL
MODEL 2
REMARK VINA RESULT:       4.0      2.340      7.219
REMARK  Name = 11912973
REMARK  7 active torsions:
REMARK  status: ('A' for Active; 'I' for Inactive)
REMARK    1  A    between atoms: S_1  and  N_8
REMARK    2  A    between atoms: S_1  and  C_20
REMARK    3  A    between atoms: N_8  and  C_15
REMARK    4  A    between atoms: N_9  and  C_16
REMARK    5  A    between atoms: N_12  and  C_27
REMARK    6  A    between atoms: C_23  and  C_29
REMARK    7  A    between atoms: C_31  and  C_34
REMARK                            x       y       z     vdW  Elec       q    Type
REMARK                         _______ _______ _______ _____ _____    ______ ____
ROOT
ATOM      2  O   UNL     1      -1.150   2.746  23.293  0.00  0.00    -0.370 OA
ATOM      3  O   UNL     1      -0.960   4.085  26.110  0.00  0.00    -0.370 OA
ATOM     13  C   UNL     1      -1.315   2.766  25.667  0.00  0.00    +0.170 C 
ATOM     14  C   UNL     1      -2.087   2.917  24.370  0.00  0.00    +0.171 C 
ATOM     15  C   UNL     1      -0.077   1.996  25.273  0.00  0.00    +0.133 C 
ATOM     16  C   UNL     1      -2.592   4.340  24.404  0.00  0.00    +0.130 C 
ATOM     17  C   UNL     1       0.139   2.425  23.834  0.00  0.00    +0.183 C 
ATOM     18  C   UNL     1      -1.523   5.053  25.212  0.00  0.00    +0.185 C 
ENDROOT
BRANCH  16   9
ATOM      9  N   UNL     1      -3.863   4.399  25.093  0.00  0.00    -0.306 N 
ATOM     10  N   UNL     1      -4.137   2.069  25.018  0.00  0.00    -0.211 NA
ATOM     11  N   UNL     1      -5.798   3.479  26.050  0.00  0.00    -0.223 NA
ATOM     19  C   UNL     1      -4.622   3.283  25.396  0.00  0.00    +0.216 A 
ATOM     23  C   UNL     1      -4.904   1.003  25.329  0.00  0.00    +0.111 A 
ATOM     24  C   UNL     1      -6.512   2.369  26.329  0.00  0.00    +0.116 A 
ATOM     28  C   UNL     1      -6.111   1.093  25.990  0.00  0.00    +0.051 A 
ATOM     36  H   UNL     1      -4.207   5.291  25.427  0.00  0.00    +0.149 HD
BRANCH  23  29
ATOM      6  O   UNL     1      -3.758  -0.984  25.893  0.00  0.00    -0.461 OA
ATOM     29  C   UNL     1      -4.366  -0.266  24.916  0.00  0.00    +0.153 A 
ATOM     30  C   UNL     1      -4.325  -0.938  23.719  0.00  0.00    +0.051 A 
ATOM     32  C   UNL     1      -3.645  -2.153  23.976  0.00  0.00    +0.042 A 
ATOM     33  C   UNL     1      -3.322  -2.134  25.313  0.00  0.00    +0.196 A 
ENDBRANCH  23  29
ENDBRANCH  16   9
BRANCH  15   8
ATOM      8  N   UNL     1      -0.359   0.541  25.320  0.00  0.00    -0.182 NA
ATOM     35  H   UNL     1      -0.244   0.083  26.233  0.00  0.00    +0.148 HD
BRANCH   8   1
ATOM      1  S   UNL     1      -0.221  -0.392  23.909  0.00  0.00    +0.059 S 
ATOM      4  O   UNL     1      -0.924   0.267  22.824  0.00  0.00    -0.153 OA
ATOM      5  O   UNL     1      -0.513  -1.775  24.233  0.00  0.00    -0.153 OA
BRANCH   1  20
ATOM     20  C   UNL     1       1.512  -0.296  23.574  0.00  0.00    +0.105 A 
ATOM     21  C   UNL     1       2.023   0.846  22.984  0.00  0.00    +0.030 A 
ATOM     22  C   UNL     1       2.325  -1.364  23.910  0.00  0.00    +0.030 A 
ATOM     25  C   UNL     1       3.392   0.922  22.721  0.00  0.00    +0.025 A 
ATOM     26  C   UNL     1       3.692  -1.289  23.647  0.00  0.00    +0.025 A 
ATOM     27  C   UNL     1       4.225  -0.146  23.052  0.00  0.00    +0.033 A 
BRANCH  27  12
ATOM      7  O   UNL     1       6.587  -0.958  24.735  0.00  0.00    -0.276 OA
ATOM     12  N   UNL     1       5.594  -0.069  22.790  0.00  0.00    -0.286 N 
ATOM     31  C   UNL     1       6.656  -0.463  23.615  0.00  0.00    +0.214 C 
ATOM     34  C   UNL     1       7.993  -0.213  22.962  0.00  0.00    +0.109 C 
ATOM     37  H   UNL     1       5.841   0.323  21.884  0.00  0.00    +0.155 HD
ENDBRANCH  27  12
ENDBRANCH   1  20
ENDBRANCH   8   1
ENDBRANCH  15   8
TORSDOF 6
ENDMDL
MODEL 3
REMARK VINA RESULT:       4.1      2.521      7.480
REMARK  Name = 11912973
REMARK  7 active torsions:
REMARK  status: ('A' for Active; 'I' for Inactive)
REMARK    1  A    between atoms: S_1  and  N_8
REMARK    2  A    between atoms: S_1  and  C_20
REMARK    3  A    between atoms: N_8  and  C_15
REMARK    4  A    between atoms: N_9  and  C_16
REMARK    5  A    between atoms: N_12  and  C_27
REMARK    6  A    between atoms: C_23  and  C_29
REMARK    7  A    between atoms: C_31  and  C_34
REMARK                            x       y       z     vdW  Elec       q    Type
REMARK                         _______ _______ _______ _____ _____    ______ ____
ROOT
ATOM      2  O   UNL     1      -1.529  -1.483  26.624  0.00  0.00    -0.370 OA
ATOM      3  O   UNL     1      -2.731  -2.357  23.875  0.00  0.00    -0.370 OA
ATOM     13  C   UNL     1      -1.946  -1.229  24.295  0.00  0.00    +0.170 C 
ATOM     14  C   UNL     1      -2.414  -0.847  25.686  0.00  0.00    +0.171 C 
ATOM     15  C   UNL     1      -0.506  -1.637  24.488  0.00  0.00    +0.133 C 
ATOM     16  C   UNL     1      -3.798  -1.440  25.787  0.00  0.00    +0.130 C 
ATOM     17  C   UNL     1      -0.498  -2.176  25.905  0.00  0.00    +0.183 C 
ATOM     18  C   UNL     1      -3.706  -2.656  24.884  0.00  0.00    +0.185 C 
ENDROOT
BRANCH  16   9
ATOM      9  N   UNL     1      -4.777  -0.508  25.271  0.00  0.00    -0.306 N 
ATOM     10  N   UNL     1      -3.240   1.267  25.255  0.00  0.00    -0.211 NA
ATOM     11  N   UNL     1      -5.514   1.591  24.523  0.00  0.00    -0.223 NA
ATOM     19  C   UNL     1      -4.502   0.823  25.008  0.00  0.00    +0.216 A 
ATOM     23  C   UNL     1      -3.008   2.569  24.988  0.00  0.00    +0.111 A 
ATOM     24  C   UNL     1      -5.211   2.883  24.279  0.00  0.00    +0.116 A 
ATOM     28  C   UNL     1      -3.964   3.432  24.494  0.00  0.00    +0.051 A 
ATOM     36  H   UNL     1      -5.704  -0.840  25.033  0.00  0.00    +0.149 HD
BRANCH  23  29
ATOM      6  O   UNL     1      -0.884   2.112  25.913  0.00  0.00    -0.461 OA
ATOM     29  C   UNL     1      -1.666   3.008  25.260  0.00  0.00    +0.153 A 
ATOM     30  C   UNL     1      -0.971   4.165  25.002  0.00  0.00    +0.051 A 
ATOM     32  C   UNL     1       0.326   3.969  25.533  0.00  0.00    +0.042 A 
ATOM     33  C   UNL     1       0.329   2.704  26.076  0.00  0.00    +0.196 A 
ENDBRANCH  23  29
ENDBRANCH  16   9
BRANCH  15   8
ATOM      8  N   UNL     1       0.367  -0.441  24.406  0.00  0.00    -0.182 NA
ATOM     35  H   UNL     1       0.311   0.220  25.191  0.00  0.00    +0.148 HD
BRANCH   8   1
ATOM      1  S   UNL     1       0.887   0.122  22.891  0.00  0.00    +0.059 S 
ATOM      4  O   UNL     1       0.434   1.487  22.702  0.00  0.00    -0.153 OA
ATOM      5  O   UNL     1       0.596  -0.888  21.892  0.00  0.00    -0.153 OA
BRANCH   1  20
ATOM     20  C   UNL     1       2.643   0.154  23.096  0.00  0.00    +0.105 A 
ATOM     21  C   UNL     1       3.341   1.300  22.759  0.00  0.00    +0.030 A 
ATOM     22  C   UNL     1       3.286  -0.967  23.590  0.00  0.00    +0.030 A 
ATOM     25  C   UNL     1       4.727   1.325  22.922  0.00  0.00    +0.025 A 
ATOM     26  C   UNL     1       4.670  -0.942  23.753  0.00  0.00    +0.025 A 
ATOM     27  C   UNL     1       5.391   0.204  23.419  0.00  0.00    +0.033 A 
BRANCH  27  12
ATOM      7  O   UNL     1       7.559  -1.299  21.966  0.00  0.00    -0.276 OA
ATOM     12  N   UNL     1       6.776   0.230  23.582  0.00  0.00    -0.286 N 
ATOM     31  C   UNL     1       7.744  -0.496  22.875  0.00  0.00    +0.214 C 
ATOM     34  C   UNL     1       9.139  -0.183  23.356  0.00  0.00    +0.109 C 
ATOM     37  H   UNL     1       7.116   0.857  24.307  0.00  0.00    +0.155 HD
ENDBRANCH  27  12
ENDBRANCH   1  20
ENDBRANCH   8   1
ENDBRANCH  15   8
TORSDOF 6
ENDMDL
