MODEL 1
REMARK VINA RESULT:      -6.6      0.000      0.000
REMARK  Name = 38029612
REMARK  13 active torsions:
REMARK  status: ('A' for Active; 'I' for Inactive)
REMARK    1  A    between atoms: O_1  and  C_18
REMARK    2  A    between atoms: O_4  and  C_21
REMARK    3  A    between atoms: O_4  and  C_22
REMARK    4  A    between atoms: N_5  and  C_13
REMARK    5  A    between atoms: C_6  and  C_10
REMARK    6  A    between atoms: C_7  and  C_13
REMARK    7  A    between atoms: C_9  and  C_14
REMARK    8  A    between atoms: C_10  and  C_15
REMARK    9  A    between atoms: C_10  and  C_16
REMARK   10  A    between atoms: C_11  and  C_17
REMARK   11  A    between atoms: C_14  and  C_18
REMARK   12  A    between atoms: C_19  and  C_20
REMARK   13  A    between atoms: C_20  and  C_21
REMARK                            x       y       z     vdW  Elec       q    Type
REMARK                         _______ _______ _______ _____ _____    ______ ____
ROOT
ATOM      6  C   UNL     1      -1.672   1.624  24.708  0.00  0.00    +0.000 C 
ATOM      7  C   UNL     1      -0.798   0.364  24.492  0.00  0.00    +0.032 C 
ATOM      8  C   UNL     1      -2.720   1.367  25.802  0.00  0.00    +0.012 C 
ATOM      9  C   UNL     1      -3.645   0.185  25.457  0.00  0.00    +0.025 C 
ATOM     11  C   UNL     1      -2.862  -1.019  24.976  0.00  0.00    -0.073 C 
ATOM     12  C   UNL     1      -1.586  -0.923  24.560  0.00  0.00    -0.022 C 
ATOM     17  C   UNL     1      -3.564  -2.348  25.023  0.00  0.00    +0.039 C 
ENDROOT
BRANCH   6  10
ATOM     10  C   UNL     1      -0.827   2.847  25.076  0.00  0.00    -0.013 C 
ATOM     15  C   UNL     1      -1.725   4.048  25.360  0.00  0.00    +0.007 C 
ATOM     16  C   UNL     1       0.061   2.539  26.277  0.00  0.00    +0.007 C 
ENDBRANCH   6  10
BRANCH   7  13
ATOM     13  C   UNL     1      -0.048   0.434  23.157  0.00  0.00    +0.112 C 
BRANCH  13   5
ATOM      3  O   UNL     1       1.870  -0.307  21.130  0.00  0.00    -0.276 OA
ATOM      5  N   UNL     1       1.346   0.174  23.344  0.00  0.00    -0.315 N 
ATOM     19  C   UNL     1       2.207  -0.180  22.304  0.00  0.00    +0.215 C 
ATOM     23  H   UNL     1       1.734   0.303  24.273  0.00  0.00    +0.149 HD
BRANCH  19  20
ATOM     20  C   UNL     1       3.632  -0.392  22.791  0.00  0.00    +0.124 C 
BRANCH  20  21
ATOM     21  C   UNL     1       4.415   0.906  22.920  0.00  0.00    +0.168 C 
BRANCH  21   4
ATOM      4  O   UNL     1       5.358   0.785  23.978  0.00  0.00    -0.382 OA
ATOM     22  C   UNL     1       5.568  -0.574  24.336  0.00  0.00    +0.194 C 
ENDBRANCH  21   4
ENDBRANCH  20  21
ENDBRANCH  19  20
ENDBRANCH  13   5
ENDBRANCH   7  13
BRANCH   9  14
ATOM     14  C   UNL     1      -4.708   0.594  24.433  0.00  0.00    +0.128 C 
BRANCH  14  18
ATOM      2  O   UNL     1      -4.909   3.019  24.275  0.00  0.00    -0.251 OA
ATOM     18  C   UNL     1      -5.277   1.950  24.741  0.00  0.00    +0.305 C 
BRANCH  18   1
ATOM      1  O   UNL     1      -6.289   1.826  25.636  0.00  0.00    -0.481 OA
ATOM     24  H   UNL     1      -6.103   1.131  26.304  0.00  0.00    +0.295 HD
ENDBRANCH  18   1
ENDBRANCH  14  18
ENDBRANCH   9  14
TORSDOF 9
ENDMDL
MODEL 2
REMARK VINA RESULT:      -6.3      1.575      3.296
REMARK  Name = 38029612
REMARK  13 active torsions:
REMARK  status: ('A' for Active; 'I' for Inactive)
REMARK    1  A    between atoms: O_1  and  C_18
REMARK    2  A    between atoms: O_4  and  C_21
REMARK    3  A    between atoms: O_4  and  C_22
REMARK    4  A    between atoms: N_5  and  C_13
REMARK    5  A    between atoms: C_6  and  C_10
REMARK    6  A    between atoms: C_7  and  C_13
REMARK    7  A    between atoms: C_9  and  C_14
REMARK    8  A    between atoms: C_10  and  C_15
REMARK    9  A    between atoms: C_10  and  C_16
REMARK   10  A    between atoms: C_11  and  C_17
REMARK   11  A    between atoms: C_14  and  C_18
REMARK   12  A    between atoms: C_19  and  C_20
REMARK   13  A    between atoms: C_20  and  C_21
REMARK                            x       y       z     vdW  Elec       q    Type
REMARK                         _______ _______ _______ _____ _____    ______ ____
ROOT
ATOM      6  C   UNL     1      -3.000  -0.508  24.659  0.00  0.00    +0.000 C 
ATOM      7  C   UNL     1      -1.764   0.091  23.942  0.00  0.00    +0.032 C 
ATOM      8  C   UNL     1      -4.286   0.178  24.171  0.00  0.00    +0.012 C 
ATOM      9  C   UNL     1      -4.266   1.698  24.419  0.00  0.00    +0.025 C 
ATOM     11  C   UNL     1      -2.958   2.323  23.978  0.00  0.00    -0.073 C 
ATOM     12  C   UNL     1      -1.853   1.587  23.757  0.00  0.00    -0.022 C 
ATOM     17  C   UNL     1      -2.959   3.810  23.753  0.00  0.00    +0.039 C 
ENDROOT
BRANCH   6  10
ATOM     10  C   UNL     1      -3.105  -2.020  24.445  0.00  0.00    -0.013 C 
ATOM     15  C   UNL     1      -3.144  -2.746  25.787  0.00  0.00    +0.007 C 
ATOM     16  C   UNL     1      -4.338  -2.356  23.612  0.00  0.00    +0.007 C 
ENDBRANCH   6  10
BRANCH   7  13
ATOM     13  C   UNL     1      -0.471  -0.255  24.689  0.00  0.00    +0.112 C 
BRANCH  13   5
ATOM      3  O   UNL     1       1.487   1.695  23.853  0.00  0.00    -0.276 OA
ATOM      5  N   UNL     1       0.607  -0.455  23.770  0.00  0.00    -0.315 N 
ATOM     19  C   UNL     1       1.513   0.547  23.420  0.00  0.00    +0.215 C 
ATOM     23  H   UNL     1       0.745  -1.388  23.394  0.00  0.00    +0.149 HD
BRANCH  19  20
ATOM     20  C   UNL     1       2.554   0.053  22.428  0.00  0.00    +0.124 C 
BRANCH  20  21
ATOM     21  C   UNL     1       3.792   0.937  22.376  0.00  0.00    +0.168 C 
BRANCH  21   4
ATOM      4  O   UNL     1       4.501   0.829  23.604  0.00  0.00    -0.382 OA
ATOM     22  C   UNL     1       5.464  -0.215  23.559  0.00  0.00    +0.194 C 
ENDBRANCH  21   4
ENDBRANCH  20  21
ENDBRANCH  19  20
ENDBRANCH  13   5
ENDBRANCH   7  13
BRANCH   9  14
ATOM     14  C   UNL     1      -4.563   2.023  25.887  0.00  0.00    +0.128 C 
BRANCH  14  18
ATOM      2  O   UNL     1      -5.962   4.000  25.608  0.00  0.00    -0.251 OA
ATOM     18  C   UNL     1      -5.801   2.863  26.025  0.00  0.00    +0.305 C 
BRANCH  18   1
ATOM      1  O   UNL     1      -6.750   2.165  26.699  0.00  0.00    -0.481 OA
ATOM     24  H   UNL     1      -6.868   1.261  26.335  0.00  0.00    +0.295 HD
ENDBRANCH  18   1
ENDBRANCH  14  18
ENDBRANCH   9  14
TORSDOF 9
ENDMDL
MODEL 3
REMARK VINA RESULT:      -6.2      2.098      6.838
REMARK  Name = 38029612
REMARK  13 active torsions:
REMARK  status: ('A' for Active; 'I' for Inactive)
REMARK    1  A    between atoms: O_1  and  C_18
REMARK    2  A    between atoms: O_4  and  C_21
REMARK    3  A    between atoms: O_4  and  C_22
REMARK    4  A    between atoms: N_5  and  C_13
REMARK    5  A    between atoms: C_6  and  C_10
REMARK    6  A    between atoms: C_7  and  C_13
REMARK    7  A    between atoms: C_9  and  C_14
REMARK    8  A    between atoms: C_10  and  C_15
REMARK    9  A    between atoms: C_10  and  C_16
REMARK   10  A    between atoms: C_11  and  C_17
REMARK   11  A    between atoms: C_14  and  C_18
REMARK   12  A    between atoms: C_19  and  C_20
REMARK   13  A    between atoms: C_20  and  C_21
REMARK                            x       y       z     vdW  Elec       q    Type
REMARK                         _______ _______ _______ _____ _____    ______ ____
ROOT
ATOM      6  C   UNL     1      -2.311  -1.201  24.310  0.00  0.00    +0.000 C 
ATOM      7  C   UNL     1      -2.922  -0.247  25.367  0.00  0.00    +0.032 C 
ATOM      8  C   UNL     1      -0.805  -1.381  24.556  0.00  0.00    +0.012 C 
ATOM      9  C   UNL     1      -0.043  -0.043  24.505  0.00  0.00    +0.025 C 
ATOM     11  C   UNL     1      -0.737   1.032  25.317  0.00  0.00    -0.073 C 
ATOM     12  C   UNL     1      -2.021   0.917  25.704  0.00  0.00    -0.022 C 
ATOM     17  C   UNL     1       0.090   2.223  25.713  0.00  0.00    +0.039 C 
ENDROOT
BRANCH   6  10
ATOM     10  C   UNL     1      -3.003  -2.567  24.308  0.00  0.00    -0.013 C 
ATOM     15  C   UNL     1      -3.215  -3.058  25.737  0.00  0.00    +0.007 C 
ATOM     16  C   UNL     1      -4.329  -2.491  23.559  0.00  0.00    +0.007 C 
ENDBRANCH   6  10
BRANCH   7  13
ATOM     13  C   UNL     1      -4.288   0.279  24.913  0.00  0.00    +0.112 C 
BRANCH  13   5
ATOM      3  O   UNL     1      -6.192   2.029  26.197  0.00  0.00    -0.276 OA
ATOM      5  N   UNL     1      -4.297   1.709  24.888  0.00  0.00    -0.315 N 
ATOM     19  C   UNL     1      -5.259   2.482  25.539  0.00  0.00    +0.215 C 
ATOM     23  H   UNL     1      -3.535   2.182  24.411  0.00  0.00    +0.149 HD
BRANCH  19  20
ATOM     20  C   UNL     1      -5.022   3.971  25.344  0.00  0.00    +0.124 C 
BRANCH  20  21
ATOM     21  C   UNL     1      -3.713   4.276  24.632  0.00  0.00    +0.168 C 
BRANCH  21   4
ATOM      4  O   UNL     1      -2.659   4.329  25.585  0.00  0.00    -0.382 OA
ATOM     22  C   UNL     1      -1.617   5.198  25.162  0.00  0.00    +0.194 C 
ENDBRANCH  21   4
ENDBRANCH  20  21
ENDBRANCH  19  20
ENDBRANCH  13   5
ENDBRANCH   7  13
BRANCH   9  14
ATOM     14  C   UNL     1       0.175   0.415  23.060  0.00  0.00    +0.128 C 
BRANCH  14  18
ATOM      2  O   UNL     1       2.100  -0.377  21.791  0.00  0.00    -0.251 OA
ATOM     18  C   UNL     1       1.622   0.329  22.667  0.00  0.00    +0.305 C 
BRANCH  18   1
ATOM      1  O   UNL     1       2.354   1.170  23.441  0.00  0.00    -0.481 OA
ATOM     24  H   UNL     1       3.306   1.153  23.202  0.00  0.00    +0.295 HD
ENDBRANCH  18   1
ENDBRANCH  14  18
ENDBRANCH   9  14
TORSDOF 9
ENDMDL
MODEL 4
REMARK VINA RESULT:      -5.9      2.635      4.599
REMARK  Name = 38029612
REMARK  13 active torsions:
REMARK  status: ('A' for Active; 'I' for Inactive)
REMARK    1  A    between atoms: O_1  and  C_18
REMARK    2  A    between atoms: O_4  and  C_21
REMARK    3  A    between atoms: O_4  and  C_22
REMARK    4  A    between atoms: N_5  and  C_13
REMARK    5  A    between atoms: C_6  and  C_10
REMARK    6  A    between atoms: C_7  and  C_13
REMARK    7  A    between atoms: C_9  and  C_14
REMARK    8  A    between atoms: C_10  and  C_15
REMARK    9  A    between atoms: C_10  and  C_16
REMARK   10  A    between atoms: C_11  and  C_17
REMARK   11  A    between atoms: C_14  and  C_18
REMARK   12  A    between atoms: C_19  and  C_20
REMARK   13  A    between atoms: C_20  and  C_21
REMARK                            x       y       z     vdW  Elec       q    Type
REMARK                         _______ _______ _______ _____ _____    ______ ____
ROOT
ATOM      6  C   UNL     1      -2.927  -0.808  24.748  0.00  0.00    +0.000 C 
ATOM      7  C   UNL     1      -1.876  -0.339  23.712  0.00  0.00    +0.032 C 
ATOM      8  C   UNL     1      -4.341  -0.406  24.297  0.00  0.00    +0.012 C 
ATOM      9  C   UNL     1      -4.482   1.116  24.114  0.00  0.00    +0.025 C 
ATOM     11  C   UNL     1      -3.329   1.697  23.322  0.00  0.00    -0.073 C 
ATOM     12  C   UNL     1      -2.176   1.027  23.141  0.00  0.00    -0.022 C 
ATOM     17  C   UNL     1      -3.545   3.050  22.701  0.00  0.00    +0.039 C 
ENDROOT
BRANCH   6  10
ATOM     10  C   UNL     1      -2.867  -2.321  24.976  0.00  0.00    -0.013 C 
ATOM     15  C   UNL     1      -3.995  -3.019  24.221  0.00  0.00    +0.007 C 
ATOM     16  C   UNL     1      -1.510  -2.870  24.548  0.00  0.00    +0.007 C 
ENDBRANCH   6  10
BRANCH   7  13
ATOM     13  C   UNL     1      -0.467  -0.342  24.315  0.00  0.00    +0.112 C 
BRANCH  13   5
ATOM      3  O   UNL     1       0.982   2.144  24.083  0.00  0.00    -0.276 OA
ATOM      5  N   UNL     1      -0.339   0.677  25.310  0.00  0.00    -0.315 N 
ATOM     19  C   UNL     1       0.384   1.854  25.115  0.00  0.00    +0.215 C 
ATOM     23  H   UNL     1      -0.841   0.554  26.184  0.00  0.00    +0.149 HD
BRANCH  19  20
ATOM     20  C   UNL     1       0.347   2.756  26.339  0.00  0.00    +0.124 C 
BRANCH  20  21
ATOM     21  C   UNL     1      -1.035   3.327  26.615  0.00  0.00    +0.168 C 
BRANCH  21   4
ATOM      4  O   UNL     1      -1.629   3.739  25.390  0.00  0.00    -0.382 OA
ATOM     22  C   UNL     1      -1.330   5.097  25.097  0.00  0.00    +0.194 C 
ENDBRANCH  21   4
ENDBRANCH  20  21
ENDBRANCH  19  20
ENDBRANCH  13   5
ENDBRANCH   7  13
BRANCH   9  14
ATOM     14  C   UNL     1      -4.632   1.825  25.464  0.00  0.00    +0.128 C 
BRANCH  14  18
ATOM      2  O   UNL     1      -5.849   3.910  25.809  0.00  0.00    -0.251 OA
ATOM     18  C   UNL     1      -5.829   2.732  25.480  0.00  0.00    +0.305 C 
BRANCH  18   1
ATOM      1  O   UNL     1      -6.925   2.046  25.066  0.00  0.00    -0.481 OA
ATOM     24  H   UNL     1      -7.617   2.009  25.760  0.00  0.00    +0.295 HD
ENDBRANCH  18   1
ENDBRANCH  14  18
ENDBRANCH   9  14
TORSDOF 9
ENDMDL
MODEL 5
REMARK VINA RESULT:      -5.3      2.793      5.026
REMARK  Name = 38029612
REMARK  13 active torsions:
REMARK  status: ('A' for Active; 'I' for Inactive)
REMARK    1  A    between atoms: O_1  and  C_18
REMARK    2  A    between atoms: O_4  and  C_21
REMARK    3  A    between atoms: O_4  and  C_22
REMARK    4  A    between atoms: N_5  and  C_13
REMARK    5  A    between atoms: C_6  and  C_10
REMARK    6  A    between atoms: C_7  and  C_13
REMARK    7  A    between atoms: C_9  and  C_14
REMARK    8  A    between atoms: C_10  and  C_15
REMARK    9  A    between atoms: C_10  and  C_16
REMARK   10  A    between atoms: C_11  and  C_17
REMARK   11  A    between atoms: C_14  and  C_18
REMARK   12  A    between atoms: C_19  and  C_20
REMARK   13  A    between atoms: C_20  and  C_21
REMARK                            x       y       z     vdW  Elec       q    Type
REMARK                         _______ _______ _______ _____ _____    ______ ____
ROOT
ATOM      6  C   UNL     1      -4.049   2.559  25.089  0.00  0.00    +0.000 C 
ATOM      7  C   UNL     1      -3.672   1.760  23.816  0.00  0.00    +0.032 C 
ATOM      8  C   UNL     1      -3.370   3.938  25.077  0.00  0.00    +0.012 C 
ATOM      9  C   UNL     1      -1.835   3.831  25.005  0.00  0.00    +0.025 C 
ATOM     11  C   UNL     1      -1.389   2.849  23.941  0.00  0.00    -0.073 C 
ATOM     12  C   UNL     1      -2.227   1.939  23.412  0.00  0.00    -0.022 C 
ATOM     17  C   UNL     1       0.033   2.964  23.464  0.00  0.00    +0.039 C 
ENDROOT
BRANCH   6  10
ATOM     10  C   UNL     1      -5.564   2.728  25.227  0.00  0.00    -0.013 C 
ATOM     15  C   UNL     1      -6.110   1.787  26.297  0.00  0.00    +0.007 C 
ATOM     16  C   UNL     1      -5.911   4.177  25.552  0.00  0.00    +0.007 C 
ENDBRANCH   6  10
BRANCH   7  13
ATOM     13  C   UNL     1      -3.972   0.268  23.991  0.00  0.00    +0.112 C 
BRANCH  13   5
ATOM      3  O   UNL     1      -3.709  -2.586  24.342  0.00  0.00    -0.276 OA
ATOM      5  N   UNL     1      -2.783  -0.453  24.328  0.00  0.00    -0.315 N 
ATOM     19  C   UNL     1      -2.743  -1.840  24.479  0.00  0.00    +0.215 C 
ATOM     23  H   UNL     1      -1.917   0.070  24.412  0.00  0.00    +0.149 HD
BRANCH  19  20
ATOM     20  C   UNL     1      -1.350  -2.335  24.835  0.00  0.00    +0.124 C 
BRANCH  20  21
ATOM     21  C   UNL     1      -0.286  -1.254  24.712  0.00  0.00    +0.168 C 
BRANCH  21   4
ATOM      4  O   UNL     1      -0.181  -0.847  23.354  0.00  0.00    -0.382 OA
ATOM     22  C   UNL     1       1.066  -0.216  23.094  0.00  0.00    +0.194 C 
ENDBRANCH  21   4
ENDBRANCH  20  21
ENDBRANCH  19  20
ENDBRANCH  13   5
ENDBRANCH   7  13
BRANCH   9  14
ATOM     14  C   UNL     1      -1.240   3.469  26.369  0.00  0.00    +0.128 C 
BRANCH  14  18
ATOM      2  O   UNL     1      -0.966   1.059  26.129  0.00  0.00    -0.251 OA
ATOM     18  C   UNL     1      -0.490   2.169  26.316  0.00  0.00    +0.305 C 
BRANCH  18   1
ATOM      1  O   UNL     1       0.833   2.400  26.511  0.00  0.00    -0.481 OA
ATOM     24  H   UNL     1       1.001   2.877  27.352  0.00  0.00    +0.295 HD
ENDBRANCH  18   1
ENDBRANCH  14  18
ENDBRANCH   9  14
TORSDOF 9
ENDMDL
MODEL 6
REMARK VINA RESULT:      -5.2      2.020      2.550
REMARK  Name = 38029612
REMARK  13 active torsions:
REMARK  status: ('A' for Active; 'I' for Inactive)
REMARK    1  A    between atoms: O_1  and  C_18
REMARK    2  A    between atoms: O_4  and  C_21
REMARK    3  A    between atoms: O_4  and  C_22
REMARK    4  A    between atoms: N_5  and  C_13
REMARK    5  A    between atoms: C_6  and  C_10
REMARK    6  A    between atoms: C_7  and  C_13
REMARK    7  A    between atoms: C_9  and  C_14
REMARK    8  A    between atoms: C_10  and  C_15
REMARK    9  A    between atoms: C_10  and  C_16
REMARK   10  A    between atoms: C_11  and  C_17
REMARK   11  A    between atoms: C_14  and  C_18
REMARK   12  A    between atoms: C_19  and  C_20
REMARK   13  A    between atoms: C_20  and  C_21
REMARK                            x       y       z     vdW  Elec       q    Type
REMARK                         _______ _______ _______ _____ _____    ______ ____
ROOT
ATOM      6  C   UNL     1      -2.262   1.902  24.481  0.00  0.00    +0.000 C 
ATOM      7  C   UNL     1      -0.779   1.792  24.914  0.00  0.00    +0.032 C 
ATOM      8  C   UNL     1      -3.139   0.969  25.331  0.00  0.00    +0.012 C 
ATOM      9  C   UNL     1      -2.705  -0.504  25.214  0.00  0.00    +0.025 C 
ATOM     11  C   UNL     1      -1.206  -0.663  25.365  0.00  0.00    -0.073 C 
ATOM     12  C   UNL     1      -0.361   0.378  25.241  0.00  0.00    -0.022 C 
ATOM     17  C   UNL     1      -0.699  -2.037  25.707  0.00  0.00    +0.039 C 
ENDROOT
BRANCH   6  10
ATOM     10  C   UNL     1      -2.781   3.339  24.586  0.00  0.00    -0.013 C 
ATOM     15  C   UNL     1      -4.299   3.369  24.436  0.00  0.00    +0.007 C 
ATOM     16  C   UNL     1      -2.355   3.963  25.911  0.00  0.00    +0.007 C 
ENDBRANCH   6  10
BRANCH   7  13
ATOM     13  C   UNL     1       0.154   2.365  23.842  0.00  0.00    +0.112 C 
BRANCH  13   5
ATOM      3  O   UNL     1       0.673   0.018  22.244  0.00  0.00    -0.276 OA
ATOM      5  N   UNL     1       1.372   1.619  23.778  0.00  0.00    -0.315 N 
ATOM     19  C   UNL     1       1.539   0.490  22.974  0.00  0.00    +0.215 C 
ATOM     23  H   UNL     1       2.168   1.960  24.308  0.00  0.00    +0.149 HD
BRANCH  19  20
ATOM     20  C   UNL     1       2.935  -0.100  23.102  0.00  0.00    +0.124 C 
BRANCH  20  21
ATOM     21  C   UNL     1       4.033   0.888  22.739  0.00  0.00    +0.168 C 
BRANCH  21   4
ATOM      4  O   UNL     1       5.097   0.777  23.676  0.00  0.00    -0.382 OA
ATOM     22  C   UNL     1       5.294  -0.570  24.085  0.00  0.00    +0.194 C 
ENDBRANCH  21   4
ENDBRANCH  20  21
ENDBRANCH  19  20
ENDBRANCH  13   5
ENDBRANCH   7  13
BRANCH   9  14
ATOM     14  C   UNL     1      -3.192  -1.123  23.900  0.00  0.00    +0.128 C 
BRANCH  14  18
ATOM      2  O   UNL     1      -4.867  -2.828  23.415  0.00  0.00    -0.251 OA
ATOM     18  C   UNL     1      -4.000  -2.366  24.143  0.00  0.00    +0.305 C 
BRANCH  18   1
ATOM      1  O   UNL     1      -3.625  -2.929  25.320  0.00  0.00    -0.481 OA
ATOM     24  H   UNL     1      -3.398  -2.252  25.993  0.00  0.00    +0.295 HD
ENDBRANCH  18   1
ENDBRANCH  14  18
ENDBRANCH   9  14
TORSDOF 9
ENDMDL
MODEL 7
REMARK VINA RESULT:      -5.0      2.827      4.292
REMARK  Name = 38029612
REMARK  13 active torsions:
REMARK  status: ('A' for Active; 'I' for Inactive)
REMARK    1  A    between atoms: O_1  and  C_18
REMARK    2  A    between atoms: O_4  and  C_21
REMARK    3  A    between atoms: O_4  and  C_22
REMARK    4  A    between atoms: N_5  and  C_13
REMARK    5  A    between atoms: C_6  and  C_10
REMARK    6  A    between atoms: C_7  and  C_13
REMARK    7  A    between atoms: C_9  and  C_14
REMARK    8  A    between atoms: C_10  and  C_15
REMARK    9  A    between atoms: C_10  and  C_16
REMARK   10  A    between atoms: C_11  and  C_17
REMARK   11  A    between atoms: C_14  and  C_18
REMARK   12  A    between atoms: C_19  and  C_20
REMARK   13  A    between atoms: C_20  and  C_21
REMARK                            x       y       z     vdW  Elec       q    Type
REMARK                         _______ _______ _______ _____ _____    ______ ____
ROOT
ATOM      6  C   UNL     1      -2.818  -0.194  24.915  0.00  0.00    +0.000 C 
ATOM      7  C   UNL     1      -1.863   0.132  23.740  0.00  0.00    +0.032 C 
ATOM      8  C   UNL     1      -4.262   0.186  24.554  0.00  0.00    +0.012 C 
ATOM      9  C   UNL     1      -4.402   1.682  24.213  0.00  0.00    +0.025 C 
ATOM     11  C   UNL     1      -3.322   2.144  23.256  0.00  0.00    -0.073 C 
ATOM     12  C   UNL     1      -2.200   1.432  23.048  0.00  0.00    -0.022 C 
ATOM     17  C   UNL     1      -3.580   3.424  22.509  0.00  0.00    +0.039 C 
ENDROOT
BRANCH   6  10
ATOM     10  C   UNL     1      -2.754  -1.673  25.306  0.00  0.00    -0.013 C 
ATOM     15  C   UNL     1      -3.190  -1.860  26.757  0.00  0.00    +0.007 C 
ATOM     16  C   UNL     1      -3.619  -2.510  24.370  0.00  0.00    +0.007 C 
ENDBRANCH   6  10
BRANCH   7  13
ATOM     13  C   UNL     1      -0.404   0.165  24.206  0.00  0.00    +0.112 C 
BRANCH  13   5
ATOM      3  O   UNL     1       0.355   2.949  24.104  0.00  0.00    -0.276 OA
ATOM      5  N   UNL     1      -0.245   1.056  25.314  0.00  0.00    -0.315 N 
ATOM     19  C   UNL     1       0.126   2.394  25.175  0.00  0.00    +0.215 C 
ATOM     23  H   UNL     1      -0.462   0.705  26.242  0.00  0.00    +0.149 HD
BRANCH  19  20
ATOM     20  C   UNL     1       0.215   3.103  26.518  0.00  0.00    +0.124 C 
BRANCH  20  21
ATOM     21  C   UNL     1       0.680   2.189  27.642  0.00  0.00    +0.168 C 
BRANCH  21   4
ATOM      4  O   UNL     1       1.870   2.715  28.216  0.00  0.00    -0.382 OA
ATOM     22  C   UNL     1       1.938   2.448  29.610  0.00  0.00    +0.194 C 
ENDBRANCH  21   4
ENDBRANCH  20  21
ENDBRANCH  19  20
ENDBRANCH  13   5
ENDBRANCH   7  13
BRANCH   9  14
ATOM     14  C   UNL     1      -4.416   2.541  25.481  0.00  0.00    +0.128 C 
BRANCH  14  18
ATOM      2  O   UNL     1      -6.142   4.242  25.749  0.00  0.00    -0.251 OA
ATOM     18  C   UNL     1      -5.791   3.071  25.772  0.00  0.00    +0.305 C 
BRANCH  18   1
ATOM      1  O   UNL     1      -6.621   2.041  26.075  0.00  0.00    -0.481 OA
ATOM     24  H   UNL     1      -7.033   2.151  26.959  0.00  0.00    +0.295 HD
ENDBRANCH  18   1
ENDBRANCH  14  18
ENDBRANCH   9  14
TORSDOF 9
ENDMDL
MODEL 8
REMARK VINA RESULT:      -4.8      3.053      4.908
REMARK  Name = 38029612
REMARK  13 active torsions:
REMARK  status: ('A' for Active; 'I' for Inactive)
REMARK    1  A    between atoms: O_1  and  C_18
REMARK    2  A    between atoms: O_4  and  C_21
REMARK    3  A    between atoms: O_4  and  C_22
REMARK    4  A    between atoms: N_5  and  C_13
REMARK    5  A    between atoms: C_6  and  C_10
REMARK    6  A    between atoms: C_7  and  C_13
REMARK    7  A    between atoms: C_9  and  C_14
REMARK    8  A    between atoms: C_10  and  C_15
REMARK    9  A    between atoms: C_10  and  C_16
REMARK   10  A    between atoms: C_11  and  C_17
REMARK   11  A    between atoms: C_14  and  C_18
REMARK   12  A    between atoms: C_19  and  C_20
REMARK   13  A    between atoms: C_20  and  C_21
REMARK                            x       y       z     vdW  Elec       q    Type
REMARK                         _______ _______ _______ _____ _____    ______ ____
ROOT
ATOM      6  C   UNL     1      -4.169   2.399  25.203  0.00  0.00    +0.000 C 
ATOM      7  C   UNL     1      -4.521   1.117  24.408  0.00  0.00    +0.032 C 
ATOM      8  C   UNL     1      -3.811   3.544  24.242  0.00  0.00    +0.012 C 
ATOM      9  C   UNL     1      -2.619   3.190  23.333  0.00  0.00    +0.025 C 
ATOM     11  C   UNL     1      -2.768   1.814  22.718  0.00  0.00    -0.073 C 
ATOM     12  C   UNL     1      -3.633   0.904  23.204  0.00  0.00    -0.022 C 
ATOM     17  C   UNL     1      -1.933   1.519  21.503  0.00  0.00    +0.039 C 
ENDROOT
BRANCH   6  10
ATOM     10  C   UNL     1      -5.316   2.832  26.121  0.00  0.00    -0.013 C 
ATOM     15  C   UNL     1      -5.804   4.227  25.741  0.00  0.00    +0.007 C 
ATOM     16  C   UNL     1      -6.457   1.823  26.059  0.00  0.00    +0.007 C 
ENDBRANCH   6  10
BRANCH   7  13
ATOM     13  C   UNL     1      -4.467  -0.123  25.307  0.00  0.00    +0.112 C 
BRANCH  13   5
ATOM      3  O   UNL     1      -3.869  -2.679  24.105  0.00  0.00    -0.276 OA
ATOM      5  N   UNL     1      -3.188  -0.757  25.221  0.00  0.00    -0.315 N 
ATOM     19  C   UNL     1      -2.985  -2.000  24.620  0.00  0.00    +0.215 C 
ATOM     23  H   UNL     1      -2.381  -0.251  25.573  0.00  0.00    +0.149 HD
BRANCH  19  20
ATOM     20  C   UNL     1      -1.527  -2.427  24.670  0.00  0.00    +0.124 C 
BRANCH  20  21
ATOM     21  C   UNL     1      -0.623  -1.382  25.307  0.00  0.00    +0.168 C 
BRANCH  21   4
ATOM      4  O   UNL     1      -0.546  -0.245  24.457  0.00  0.00    -0.382 OA
ATOM     22  C   UNL     1       0.494  -0.380  23.499  0.00  0.00    +0.194 C 
ENDBRANCH  21   4
ENDBRANCH  20  21
ENDBRANCH  19  20
ENDBRANCH  13   5
ENDBRANCH   7  13
BRANCH   9  14
ATOM     14  C   UNL     1      -1.292   3.312  24.089  0.00  0.00    +0.128 C 
BRANCH  14  18
ATOM      2  O   UNL     1      -1.397   5.509  25.141  0.00  0.00    -0.251 OA
ATOM     18  C   UNL     1      -1.392   4.290  25.225  0.00  0.00    +0.305 C 
BRANCH  18   1
ATOM      1  O   UNL     1      -1.479   3.615  26.399  0.00  0.00    -0.481 OA
ATOM     24  H   UNL     1      -2.356   3.189  26.513  0.00  0.00    +0.295 HD
ENDBRANCH  18   1
ENDBRANCH  14  18
ENDBRANCH   9  14
TORSDOF 9
ENDMDL
MODEL 9
REMARK VINA RESULT:      -3.4      2.548      5.963
REMARK  Name = 38029612
REMARK  13 active torsions:
REMARK  status: ('A' for Active; 'I' for Inactive)
REMARK    1  A    between atoms: O_1  and  C_18
REMARK    2  A    between atoms: O_4  and  C_21
REMARK    3  A    between atoms: O_4  and  C_22
REMARK    4  A    between atoms: N_5  and  C_13
REMARK    5  A    between atoms: C_6  and  C_10
REMARK    6  A    between atoms: C_7  and  C_13
REMARK    7  A    between atoms: C_9  and  C_14
REMARK    8  A    between atoms: C_10  and  C_15
REMARK    9  A    between atoms: C_10  and  C_16
REMARK   10  A    between atoms: C_11  and  C_17
REMARK   11  A    between atoms: C_14  and  C_18
REMARK   12  A    between atoms: C_19  and  C_20
REMARK   13  A    between atoms: C_20  and  C_21
REMARK                            x       y       z     vdW  Elec       q    Type
REMARK                         _______ _______ _______ _____ _____    ______ ____
ROOT
ATOM      6  C   UNL     1       0.454   0.538  23.492  0.00  0.00    +0.000 C 
ATOM      7  C   UNL     1      -0.079  -0.172  24.761  0.00  0.00    +0.032 C 
ATOM      8  C   UNL     1       1.068   1.899  23.857  0.00  0.00    +0.012 C 
ATOM      9  C   UNL     1       0.053   2.830  24.547  0.00  0.00    +0.025 C 
ATOM     11  C   UNL     1      -0.710   2.116  25.644  0.00  0.00    -0.073 C 
ATOM     12  C   UNL     1      -0.747   0.774  25.732  0.00  0.00    -0.022 C 
ATOM     17  C   UNL     1      -1.393   2.980  26.668  0.00  0.00    +0.039 C 
ENDROOT
BRANCH   6  10
ATOM     10  C   UNL     1       1.488  -0.316  22.754  0.00  0.00    -0.013 C 
ATOM     15  C   UNL     1       1.024  -0.600  21.328  0.00  0.00    +0.007 C 
ATOM     16  C   UNL     1       2.847   0.376  22.752  0.00  0.00    +0.007 C 
ENDBRANCH   6  10
BRANCH   7  13
ATOM     13  C   UNL     1      -1.051  -1.299  24.397  0.00  0.00    +0.112 C 
BRANCH  13   5
ATOM      3  O   UNL     1      -3.454  -2.893  24.244  0.00  0.00    -0.276 OA
ATOM      5  N   UNL     1      -2.401  -0.826  24.398  0.00  0.00    -0.315 N 
ATOM     19  C   UNL     1      -3.510  -1.669  24.321  0.00  0.00    +0.215 C 
ATOM     23  H   UNL     1      -2.555   0.172  24.510  0.00  0.00    +0.149 HD
BRANCH  19  20
ATOM     20  C   UNL     1      -4.818  -0.894  24.345  0.00  0.00    +0.124 C 
BRANCH  20  21
ATOM     21  C   UNL     1      -4.771   0.323  25.257  0.00  0.00    +0.168 C 
BRANCH  21   4
ATOM      4  O   UNL     1      -5.392   1.425  24.606  0.00  0.00    -0.382 OA
ATOM     22  C   UNL     1      -5.924   2.352  25.543  0.00  0.00    +0.194 C 
ENDBRANCH  21   4
ENDBRANCH  20  21
ENDBRANCH  19  20
ENDBRANCH  13   5
ENDBRANCH   7  13
BRANCH   9  14
ATOM     14  C   UNL     1      -0.907   3.454  23.529  0.00  0.00    +0.128 C 
BRANCH  14  18
ATOM      2  O   UNL     1      -2.419   1.649  22.900  0.00  0.00    -0.251 OA
ATOM     18  C   UNL     1      -2.209   2.709  23.471  0.00  0.00    +0.305 C 
BRANCH  18   1
ATOM      1  O   UNL     1      -3.156   3.394  24.161  0.00  0.00    -0.481 OA
ATOM     24  H   UNL     1      -2.778   3.861  24.937  0.00  0.00    +0.295 HD
ENDBRANCH  18   1
ENDBRANCH  14  18
ENDBRANCH   9  14
TORSDOF 9
ENDMDL
MODEL 10
REMARK VINA RESULT:      -3.2      2.906      5.895
REMARK  Name = 38029612
REMARK  13 active torsions:
REMARK  status: ('A' for Active; 'I' for Inactive)
REMARK    1  A    between atoms: O_1  and  C_18
REMARK    2  A    between atoms: O_4  and  C_21
REMARK    3  A    between atoms: O_4  and  C_22
REMARK    4  A    between atoms: N_5  and  C_13
REMARK    5  A    between atoms: C_6  and  C_10
REMARK    6  A    between atoms: C_7  and  C_13
REMARK    7  A    between atoms: C_9  and  C_14
REMARK    8  A    between atoms: C_10  and  C_15
REMARK    9  A    between atoms: C_10  and  C_16
REMARK   10  A    between atoms: C_11  and  C_17
REMARK   11  A    between atoms: C_14  and  C_18
REMARK   12  A    between atoms: C_19  and  C_20
REMARK   13  A    between atoms: C_20  and  C_21
REMARK                            x       y       z     vdW  Elec       q    Type
REMARK                         _______ _______ _______ _____ _____    ______ ____
ROOT
ATOM      6  C   UNL     1      -3.056   1.131  23.814  0.00  0.00    +0.000 C 
ATOM      7  C   UNL     1      -4.477   0.604  24.130  0.00  0.00    +0.032 C 
ATOM      8  C   UNL     1      -2.246   0.066  23.057  0.00  0.00    +0.012 C 
ATOM      9  C   UNL     1      -2.114  -1.243  23.857  0.00  0.00    +0.025 C 
ATOM     11  C   UNL     1      -3.443  -1.688  24.431  0.00  0.00    -0.073 C 
ATOM     12  C   UNL     1      -4.493  -0.852  24.534  0.00  0.00    -0.022 C 
ATOM     17  C   UNL     1      -3.556  -3.129  24.846  0.00  0.00    +0.039 C 
ENDROOT
BRANCH   6  10
ATOM     10  C   UNL     1      -3.097   2.427  22.999  0.00  0.00    -0.013 C 
ATOM     15  C   UNL     1      -2.453   2.218  21.632  0.00  0.00    +0.007 C 
ATOM     16  C   UNL     1      -4.533   2.918  22.852  0.00  0.00    +0.007 C 
ENDBRANCH   6  10
BRANCH   7  13
ATOM     13  C   UNL     1      -5.148   1.444  25.222  0.00  0.00    +0.112 C 
BRANCH  13   5
ATOM      3  O   UNL     1      -5.661   4.224  25.807  0.00  0.00    -0.276 OA
ATOM      5  N   UNL     1      -4.228   2.394  25.768  0.00  0.00    -0.315 N 
ATOM     19  C   UNL     1      -4.560   3.725  26.022  0.00  0.00    +0.215 C 
ATOM     23  H   UNL     1      -3.303   2.065  26.028  0.00  0.00    +0.149 HD
BRANCH  19  20
ATOM     20  C   UNL     1      -3.390   4.504  26.603  0.00  0.00    +0.124 C 
BRANCH  20  21
ATOM     21  C   UNL     1      -2.040   4.005  26.108  0.00  0.00    +0.168 C 
BRANCH  21   4
ATOM      4  O   UNL     1      -1.469   4.975  25.239  0.00  0.00    -0.382 OA
ATOM     22  C   UNL     1      -0.403   4.428  24.476  0.00  0.00    +0.194 C 
ENDBRANCH  21   4
ENDBRANCH  20  21
ENDBRANCH  19  20
ENDBRANCH  13   5
ENDBRANCH   7  13
BRANCH   9  14
ATOM     14  C   UNL     1      -1.056  -1.116  24.957  0.00  0.00    +0.128 C 
BRANCH  14  18
ATOM      2  O   UNL     1       0.880  -0.456  23.629  0.00  0.00    -0.251 OA
ATOM     18  C   UNL     1       0.082  -0.233  24.528  0.00  0.00    +0.305 C 
BRANCH  18   1
ATOM      1  O   UNL     1       0.106   0.883  25.300  0.00  0.00    -0.481 OA
ATOM     24  H   UNL     1       0.795   1.517  25.005  0.00  0.00    +0.295 HD
ENDBRANCH  18   1
ENDBRANCH  14  18
ENDBRANCH   9  14
TORSDOF 9
ENDMDL
