MODEL 1
REMARK VINA RESULT:      -6.4      0.000      0.000
REMARK  Name = 75367055
REMARK  6 active torsions:
REMARK  status: ('A' for Active; 'I' for Inactive)
REMARK    1  A    between atoms: O_2  and  C_10
REMARK    2  A    between atoms: N_4  and  C_6
REMARK    3  A    between atoms: N_4  and  C_7
REMARK    4  A    between atoms: N_5  and  C_14
REMARK    5  A    between atoms: C_12  and  C_14
REMARK    6  A    between atoms: C_15  and  C_16
REMARK                            x       y       z     vdW  Elec       q    Type
REMARK                         _______ _______ _______ _____ _____    ______ ____
ROOT
ATOM      1  O   UNL     1      -3.074   3.031  23.376  0.00  0.00    -0.371 OA
ATOM      7  C   UNL     1      -4.692   1.632  24.410  0.00  0.00    +0.111 C 
ATOM     10  C   UNL     1      -4.199   2.650  25.422  0.00  0.00    +0.164 C 
ATOM     12  C   UNL     1      -3.633   3.725  24.504  0.00  0.00    +0.165 C 
ATOM     13  C   UNL     1      -3.589   1.688  23.365  0.00  0.00    +0.181 C 
ENDROOT
BRANCH  10   2
ATOM      2  O   UNL     1      -5.235   3.150  26.243  0.00  0.00    -0.388 OA
ATOM     18  H   UNL     1      -5.981   2.526  26.209  0.00  0.00    +0.210 HD
ENDBRANCH  10   2
BRANCH   7   4
ATOM      4  N   UNL     1      -4.879   0.301  24.965  0.00  0.00    -0.306 NA
ATOM     17  H   UNL     1      -5.777  -0.057  24.638  0.00  0.00    +0.123 HD
BRANCH   4   6
ATOM      6  C   UNL     1      -3.758  -0.546  24.586  0.00  0.00    +0.054 C 
ATOM      8  C   UNL     1      -4.296  -1.836  23.928  0.00  0.00    +0.019 C 
ATOM      9  C   UNL     1      -3.348  -1.419  25.792  0.00  0.00    +0.019 C 
ATOM     11  C   UNL     1      -3.273  -2.602  24.799  0.00  0.00    +0.003 C 
ENDBRANCH   4   6
ENDBRANCH   7   4
BRANCH  12  14
ATOM     14  C   UNL     1      -2.562   4.575  25.165  0.00  0.00    +0.138 C 
BRANCH  14   5
ATOM      3  O   UNL     1      -0.142   3.221  24.306  0.00  0.00    -0.276 OA
ATOM      5  N   UNL     1      -1.680   3.775  25.966  0.00  0.00    -0.313 N 
ATOM     15  C   UNL     1      -0.537   3.160  25.467  0.00  0.00    +0.210 C 
ATOM     16  C   UNL     1       0.219   2.402  26.525  0.00  0.00    +0.109 C 
ATOM     19  H   UNL     1      -1.913   3.655  26.947  0.00  0.00    +0.149 HD
ENDBRANCH  14   5
ENDBRANCH  12  14
TORSDOF 5
ENDMDL
MODEL 2
REMARK VINA RESULT:      -6.3      2.372      5.090
REMARK  Name = 75367055
REMARK  6 active torsions:
REMARK  status: ('A' for Active; 'I' for Inactive)
REMARK    1  A    between atoms: O_2  and  C_10
REMARK    2  A    between atoms: N_4  and  C_6
REMARK    3  A    between atoms: N_4  and  C_7
REMARK    4  A    between atoms: N_5  and  C_14
REMARK    5  A    between atoms: C_12  and  C_14
REMARK    6  A    between atoms: C_15  and  C_16
REMARK                            x       y       z     vdW  Elec       q    Type
REMARK                         _______ _______ _______ _____ _____    ______ ____
ROOT
ATOM      1  O   UNL     1      -0.849   0.243  23.312  0.00  0.00    -0.371 OA
ATOM      7  C   UNL     1      -0.899   2.397  24.313  0.00  0.00    +0.111 C 
ATOM     10  C   UNL     1      -0.825   1.346  25.405  0.00  0.00    +0.164 C 
ATOM     12  C   UNL     1      -0.278   0.155  24.628  0.00  0.00    +0.165 C 
ATOM     13  C   UNL     1      -1.375   1.569  23.130  0.00  0.00    +0.181 C 
ENDROOT
BRANCH  10   2
ATOM      2  O   UNL     1       0.031   1.721  26.467  0.00  0.00    -0.388 OA
ATOM     18  H   UNL     1      -0.058   2.678  26.608  0.00  0.00    +0.210 HD
ENDBRANCH  10   2
BRANCH   7   4
ATOM      4  N   UNL     1      -1.790   3.502  24.626  0.00  0.00    -0.306 NA
ATOM     17  H   UNL     1      -1.906   4.066  23.785  0.00  0.00    +0.123 HD
BRANCH   4   6
ATOM      6  C   UNL     1      -3.049   2.981  25.138  0.00  0.00    +0.054 C 
ATOM      8  C   UNL     1      -4.199   3.424  24.207  0.00  0.00    +0.019 C 
ATOM      9  C   UNL     1      -3.618   3.962  26.186  0.00  0.00    +0.019 C 
ATOM     11  C   UNL     1      -4.986   3.776  25.490  0.00  0.00    +0.003 C 
ENDBRANCH   4   6
ENDBRANCH   7   4
BRANCH  12  14
ATOM     14  C   UNL     1      -0.633  -1.183  25.254  0.00  0.00    +0.138 C 
BRANCH  14   5
ATOM      3  O   UNL     1      -3.447  -1.140  25.968  0.00  0.00    -0.276 OA
ATOM      5  N   UNL     1      -1.719  -1.812  24.558  0.00  0.00    -0.313 N 
ATOM     15  C   UNL     1      -3.043  -1.739  24.975  0.00  0.00    +0.210 C 
ATOM     16  C   UNL     1      -3.982  -2.467  24.051  0.00  0.00    +0.109 C 
ATOM     19  H   UNL     1      -1.498  -2.339  23.718  0.00  0.00    +0.149 HD
ENDBRANCH  14   5
ENDBRANCH  12  14
TORSDOF 5
ENDMDL
MODEL 3
REMARK VINA RESULT:      -6.3      1.862      3.734
REMARK  Name = 75367055
REMARK  6 active torsions:
REMARK  status: ('A' for Active; 'I' for Inactive)
REMARK    1  A    between atoms: O_2  and  C_10
REMARK    2  A    between atoms: N_4  and  C_6
REMARK    3  A    between atoms: N_4  and  C_7
REMARK    4  A    between atoms: N_5  and  C_14
REMARK    5  A    between atoms: C_12  and  C_14
REMARK    6  A    between atoms: C_15  and  C_16
REMARK                            x       y       z     vdW  Elec       q    Type
REMARK                         _______ _______ _______ _____ _____    ______ ____
ROOT
ATOM      1  O   UNL     1      -1.123   3.296  25.941  0.00  0.00    -0.371 OA
ATOM      7  C   UNL     1      -0.527   1.253  24.885  0.00  0.00    +0.111 C 
ATOM     10  C   UNL     1      -1.779   1.803  24.227  0.00  0.00    +0.164 C 
ATOM     12  C   UNL     1      -1.697   3.271  24.624  0.00  0.00    +0.165 C 
ATOM     13  C   UNL     1      -0.517   2.017  26.199  0.00  0.00    +0.181 C 
ENDROOT
BRANCH  10   2
ATOM      2  O   UNL     1      -1.777   1.635  22.823  0.00  0.00    -0.388 OA
ATOM     18  H   UNL     1      -2.677   1.796  22.494  0.00  0.00    +0.210 HD
ENDBRANCH  10   2
BRANCH   7   4
ATOM      4  N   UNL     1      -0.550  -0.189  25.069  0.00  0.00    -0.306 NA
ATOM     17  H   UNL     1      -0.372  -0.388  26.053  0.00  0.00    +0.123 HD
BRANCH   4   6
ATOM      6  C   UNL     1      -1.823  -0.719  24.604  0.00  0.00    +0.054 C 
ATOM      8  C   UNL     1      -2.739  -0.980  25.819  0.00  0.00    +0.019 C 
ATOM      9  C   UNL     1      -1.713  -2.251  24.451  0.00  0.00    +0.019 C 
ATOM     11  C   UNL     1      -3.085  -2.333  25.157  0.00  0.00    +0.003 C 
ENDBRANCH   4   6
ENDBRANCH   7   4
BRANCH  12  14
ATOM     14  C   UNL     1      -3.048   3.964  24.639  0.00  0.00    +0.138 C 
BRANCH  14   5
ATOM      3  O   UNL     1      -5.211   3.319  26.466  0.00  0.00    -0.276 OA
ATOM      5  N   UNL     1      -4.117   3.028  24.430  0.00  0.00    -0.313 N 
ATOM     15  C   UNL     1      -5.115   2.782  25.366  0.00  0.00    +0.210 C 
ATOM     16  C   UNL     1      -6.124   1.775  24.883  0.00  0.00    +0.109 C 
ATOM     19  H   UNL     1      -4.135   2.523  23.549  0.00  0.00    +0.149 HD
ENDBRANCH  14   5
ENDBRANCH  12  14
TORSDOF 5
ENDMDL
MODEL 4
REMARK VINA RESULT:      -6.1      2.374      4.701
REMARK  Name = 75367055
REMARK  6 active torsions:
REMARK  status: ('A' for Active; 'I' for Inactive)
REMARK    1  A    between atoms: O_2  and  C_10
REMARK    2  A    between atoms: N_4  and  C_6
REMARK    3  A    between atoms: N_4  and  C_7
REMARK    4  A    between atoms: N_5  and  C_14
REMARK    5  A    between atoms: C_12  and  C_14
REMARK    6  A    between atoms: C_15  and  C_16
REMARK                            x       y       z     vdW  Elec       q    Type
REMARK                         _______ _______ _______ _____ _____    ______ ____
ROOT
ATOM      1  O   UNL     1      -1.208   0.817  23.156  0.00  0.00    -0.371 OA
ATOM      7  C   UNL     1      -1.617   2.659  24.598  0.00  0.00    +0.111 C 
ATOM     10  C   UNL     1      -1.129   1.483  25.424  0.00  0.00    +0.164 C 
ATOM     12  C   UNL     1      -0.439   0.643  24.357  0.00  0.00    +0.165 C 
ATOM     13  C   UNL     1      -2.057   1.966  23.319  0.00  0.00    +0.181 C 
ENDROOT
BRANCH  10   2
ATOM      2  O   UNL     1      -0.236   1.870  26.450  0.00  0.00    -0.388 OA
ATOM     18  H   UNL     1      -0.640   2.599  26.949  0.00  0.00    +0.210 HD
ENDBRANCH  10   2
BRANCH   7   4
ATOM      4  N   UNL     1      -2.688   3.412  25.231  0.00  0.00    -0.306 NA
ATOM     17  H   UNL     1      -2.467   4.405  25.155  0.00  0.00    +0.123 HD
BRANCH   4   6
ATOM      6  C   UNL     1      -3.959   3.064  24.614  0.00  0.00    +0.054 C 
ATOM      8  C   UNL     1      -5.102   3.777  25.367  0.00  0.00    +0.019 C 
ATOM      9  C   UNL     1      -4.478   1.744  25.225  0.00  0.00    +0.019 C 
ATOM     11  C   UNL     1      -5.860   2.430  25.314  0.00  0.00    +0.003 C 
ENDBRANCH   4   6
ENDBRANCH   7   4
BRANCH  12  14
ATOM     14  C   UNL     1      -0.366  -0.832  24.711  0.00  0.00    +0.138 C 
BRANCH  14   5
ATOM      3  O   UNL     1      -2.879  -1.251  26.102  0.00  0.00    -0.276 OA
ATOM      5  N   UNL     1      -1.519  -1.542  24.234  0.00  0.00    -0.313 N 
ATOM     15  C   UNL     1      -2.686  -1.693  24.974  0.00  0.00    +0.210 C 
ATOM     16  C   UNL     1      -3.747  -2.458  24.229  0.00  0.00    +0.109 C 
ATOM     19  H   UNL     1      -1.469  -1.953  23.307  0.00  0.00    +0.149 HD
ENDBRANCH  14   5
ENDBRANCH  12  14
TORSDOF 5
ENDMDL
MODEL 5
REMARK VINA RESULT:      -5.9      2.141      3.773
REMARK  Name = 75367055
REMARK  6 active torsions:
REMARK  status: ('A' for Active; 'I' for Inactive)
REMARK    1  A    between atoms: O_2  and  C_10
REMARK    2  A    between atoms: N_4  and  C_6
REMARK    3  A    between atoms: N_4  and  C_7
REMARK    4  A    between atoms: N_5  and  C_14
REMARK    5  A    between atoms: C_12  and  C_14
REMARK    6  A    between atoms: C_15  and  C_16
REMARK                            x       y       z     vdW  Elec       q    Type
REMARK                         _______ _______ _______ _____ _____    ______ ____
ROOT
ATOM      1  O   UNL     1      -0.811   1.356  26.002  0.00  0.00    -0.371 OA
ATOM      7  C   UNL     1      -0.537  -0.711  24.865  0.00  0.00    +0.111 C 
ATOM     10  C   UNL     1      -0.420   0.424  23.864  0.00  0.00    +0.164 C 
ATOM     12  C   UNL     1      -0.088   1.592  24.783  0.00  0.00    +0.165 C 
ATOM     13  C   UNL     1      -1.234  -0.018  26.025  0.00  0.00    +0.181 C 
ENDROOT
BRANCH  10   2
ATOM      2  O   UNL     1       0.595   0.203  22.904  0.00  0.00    -0.388 OA
ATOM     18  H   UNL     1       0.661  -0.753  22.742  0.00  0.00    +0.210 HD
ENDBRANCH  10   2
BRANCH   7   4
ATOM      4  N   UNL     1      -1.277  -1.858  24.363  0.00  0.00    -0.306 NA
ATOM     17  H   UNL     1      -0.808  -2.705  24.684  0.00  0.00    +0.123 HD
BRANCH   4   6
ATOM      6  C   UNL     1      -2.662  -1.773  24.801  0.00  0.00    +0.054 C 
ATOM      8  C   UNL     1      -3.391  -3.085  24.437  0.00  0.00    +0.019 C 
ATOM      9  C   UNL     1      -3.503  -1.087  23.703  0.00  0.00    +0.019 C 
ATOM     11  C   UNL     1      -4.553  -2.197  23.936  0.00  0.00    +0.003 C 
ENDBRANCH   4   6
ENDBRANCH   7   4
BRANCH  12  14
ATOM     14  C   UNL     1      -0.480   2.940  24.205  0.00  0.00    +0.138 C 
BRANCH  14   5
ATOM      3  O   UNL     1      -3.119   2.411  23.116  0.00  0.00    -0.276 OA
ATOM      5  N   UNL     1      -1.743   3.383  24.725  0.00  0.00    -0.313 N 
ATOM     15  C   UNL     1      -2.964   3.080  24.133  0.00  0.00    +0.210 C 
ATOM     16  C   UNL     1      -4.131   3.648  24.896  0.00  0.00    +0.109 C 
ATOM     19  H   UNL     1      -1.733   3.949  25.568  0.00  0.00    +0.149 HD
ENDBRANCH  14   5
ENDBRANCH  12  14
TORSDOF 5
ENDMDL
MODEL 6
REMARK VINA RESULT:      -5.7      3.741      4.552
REMARK  Name = 75367055
REMARK  6 active torsions:
REMARK  status: ('A' for Active; 'I' for Inactive)
REMARK    1  A    between atoms: O_2  and  C_10
REMARK    2  A    between atoms: N_4  and  C_6
REMARK    3  A    between atoms: N_4  and  C_7
REMARK    4  A    between atoms: N_5  and  C_14
REMARK    5  A    between atoms: C_12  and  C_14
REMARK    6  A    between atoms: C_15  and  C_16
REMARK                            x       y       z     vdW  Elec       q    Type
REMARK                         _______ _______ _______ _____ _____    ______ ____
ROOT
ATOM      1  O   UNL     1       0.015   1.691  23.684  0.00  0.00    -0.371 OA
ATOM      7  C   UNL     1      -1.260   0.381  25.199  0.00  0.00    +0.111 C 
ATOM     10  C   UNL     1      -0.337  -0.531  24.413  0.00  0.00    +0.164 C 
ATOM     12  C   UNL     1       0.714   0.461  23.933  0.00  0.00    +0.165 C 
ATOM     13  C   UNL     1      -1.270   1.625  24.327  0.00  0.00    +0.181 C 
ENDROOT
BRANCH  10   2
ATOM      2  O   UNL     1       0.228  -1.555  25.209  0.00  0.00    -0.388 OA
ATOM     18  H   UNL     1      -0.473  -2.188  25.435  0.00  0.00    +0.210 HD
ENDBRANCH  10   2
BRANCH   7   4
ATOM      4  N   UNL     1      -2.588  -0.174  25.409  0.00  0.00    -0.306 NA
ATOM     17  H   UNL     1      -3.251   0.599  25.466  0.00  0.00    +0.123 HD
BRANCH   4   6
ATOM      6  C   UNL     1      -2.898  -1.111  24.339  0.00  0.00    +0.054 C 
ATOM      8  C   UNL     1      -4.389  -0.972  23.959  0.00  0.00    +0.019 C 
ATOM      9  C   UNL     1      -3.257  -2.483  24.951  0.00  0.00    +0.019 C 
ATOM     11  C   UNL     1      -4.442  -2.518  23.958  0.00  0.00    +0.003 C 
ENDBRANCH   4   6
ENDBRANCH   7   4
BRANCH  12  14
ATOM     14  C   UNL     1       1.430   0.012  22.670  0.00  0.00    +0.138 C 
BRANCH  14   5
ATOM      3  O   UNL     1       3.667   1.860  22.783  0.00  0.00    -0.276 OA
ATOM      5  N   UNL     1       2.806  -0.300  22.933  0.00  0.00    -0.313 N 
ATOM     15  C   UNL     1       3.816   0.656  22.968  0.00  0.00    +0.210 C 
ATOM     16  C   UNL     1       5.161   0.062  23.289  0.00  0.00    +0.109 C 
ATOM     19  H   UNL     1       3.045  -1.272  23.099  0.00  0.00    +0.149 HD
ENDBRANCH  14   5
ENDBRANCH  12  14
TORSDOF 5
ENDMDL
MODEL 7
REMARK VINA RESULT:      -5.6      1.954      3.688
REMARK  Name = 75367055
REMARK  6 active torsions:
REMARK  status: ('A' for Active; 'I' for Inactive)
REMARK    1  A    between atoms: O_2  and  C_10
REMARK    2  A    between atoms: N_4  and  C_6
REMARK    3  A    between atoms: N_4  and  C_7
REMARK    4  A    between atoms: N_5  and  C_14
REMARK    5  A    between atoms: C_12  and  C_14
REMARK    6  A    between atoms: C_15  and  C_16
REMARK                            x       y       z     vdW  Elec       q    Type
REMARK                         _______ _______ _______ _____ _____    ______ ____
ROOT
ATOM      1  O   UNL     1      -0.727  -0.356  25.149  0.00  0.00    -0.371 OA
ATOM      7  C   UNL     1      -3.000  -0.096  24.511  0.00  0.00    +0.111 C 
ATOM     10  C   UNL     1      -2.198   1.073  23.971  0.00  0.00    +0.164 C 
ATOM     12  C   UNL     1      -0.788   0.497  23.995  0.00  0.00    +0.165 C 
ATOM     13  C   UNL     1      -2.069  -0.628  25.589  0.00  0.00    +0.181 C 
ENDROOT
BRANCH  10   2
ATOM      2  O   UNL     1      -2.592   1.450  22.666  0.00  0.00    -0.388 OA
ATOM     18  H   UNL     1      -1.793   1.543  22.120  0.00  0.00    +0.210 HD
ENDBRANCH  10   2
BRANCH   7   4
ATOM      4  N   UNL     1      -4.307   0.281  25.027  0.00  0.00    -0.306 NA
ATOM     17  H   UNL     1      -4.296   0.162  26.040  0.00  0.00    +0.123 HD
BRANCH   4   6
ATOM      6  C   UNL     1      -4.615   1.644  24.619  0.00  0.00    +0.054 C 
ATOM      8  C   UNL     1      -4.232   2.614  25.757  0.00  0.00    +0.019 C 
ATOM      9  C   UNL     1      -6.091   1.953  24.952  0.00  0.00    +0.019 C 
ATOM     11  C   UNL     1      -5.591   3.307  25.507  0.00  0.00    +0.003 C 
ENDBRANCH   4   6
ENDBRANCH   7   4
BRANCH  12  14
ATOM     14  C   UNL     1       0.293   1.559  24.083  0.00  0.00    +0.138 C 
BRANCH  14   5
ATOM      3  O   UNL     1      -0.648   2.945  26.455  0.00  0.00    -0.276 OA
ATOM      5  N   UNL     1      -0.274   2.876  24.157  0.00  0.00    -0.313 N 
ATOM     15  C   UNL     1      -0.700   3.462  25.343  0.00  0.00    +0.210 C 
ATOM     16  C   UNL     1      -1.231   4.856  25.141  0.00  0.00    +0.109 C 
ATOM     19  H   UNL     1      -0.367   3.398  23.291  0.00  0.00    +0.149 HD
ENDBRANCH  14   5
ENDBRANCH  12  14
TORSDOF 5
ENDMDL
MODEL 8
REMARK VINA RESULT:      -5.5      3.606      4.853
REMARK  Name = 75367055
REMARK  6 active torsions:
REMARK  status: ('A' for Active; 'I' for Inactive)
REMARK    1  A    between atoms: O_2  and  C_10
REMARK    2  A    between atoms: N_4  and  C_6
REMARK    3  A    between atoms: N_4  and  C_7
REMARK    4  A    between atoms: N_5  and  C_14
REMARK    5  A    between atoms: C_12  and  C_14
REMARK    6  A    between atoms: C_15  and  C_16
REMARK                            x       y       z     vdW  Elec       q    Type
REMARK                         _______ _______ _______ _____ _____    ______ ____
ROOT
ATOM      1  O   UNL     1       0.811   2.114  24.198  0.00  0.00    -0.371 OA
ATOM      7  C   UNL     1      -1.518   1.922  24.626  0.00  0.00    +0.111 C 
ATOM     10  C   UNL     1      -1.067   0.732  23.799  0.00  0.00    +0.164 C 
ATOM     12  C   UNL     1       0.431   0.734  24.077  0.00  0.00    +0.165 C 
ATOM     13  C   UNL     1      -0.378   2.900  24.392  0.00  0.00    +0.181 C 
ENDROOT
BRANCH  10   2
ATOM      2  O   UNL     1      -1.677  -0.478  24.205  0.00  0.00    -0.388 OA
ATOM     18  H   UNL     1      -2.339  -0.725  23.537  0.00  0.00    +0.210 HD
ENDBRANCH  10   2
BRANCH   7   4
ATOM      4  N   UNL     1      -2.811   2.454  24.226  0.00  0.00    -0.306 NA
ATOM     17  H   UNL     1      -3.073   2.021  23.340  0.00  0.00    +0.123 HD
BRANCH   4   6
ATOM      6  C   UNL     1      -3.783   2.216  25.283  0.00  0.00    +0.054 C 
ATOM      8  C   UNL     1      -4.761   1.109  24.834  0.00  0.00    +0.019 C 
ATOM      9  C   UNL     1      -4.954   3.211  25.132  0.00  0.00    +0.019 C 
ATOM     11  C   UNL     1      -5.893   2.009  25.382  0.00  0.00    +0.003 C 
ENDBRANCH   4   6
ENDBRANCH   7   4
BRANCH  12  14
ATOM     14  C   UNL     1       1.245   0.071  22.979  0.00  0.00    +0.138 C 
BRANCH  14   5
ATOM      3  O   UNL     1       3.675  -1.390  23.605  0.00  0.00    -0.276 OA
ATOM      5  N   UNL     1       2.591   0.568  22.956  0.00  0.00    -0.313 N 
ATOM     15  C   UNL     1       3.701  -0.208  23.273  0.00  0.00    +0.210 C 
ATOM     16  C   UNL     1       4.993   0.553  23.145  0.00  0.00    +0.109 C 
ATOM     19  H   UNL     1       2.731   1.540  22.695  0.00  0.00    +0.149 HD
ENDBRANCH  14   5
ENDBRANCH  12  14
TORSDOF 5
ENDMDL
MODEL 9
REMARK VINA RESULT:      -4.8     16.613     18.395
REMARK  Name = 75367055
REMARK  6 active torsions:
REMARK  status: ('A' for Active; 'I' for Inactive)
REMARK    1  A    between atoms: O_2  and  C_10
REMARK    2  A    between atoms: N_4  and  C_6
REMARK    3  A    between atoms: N_4  and  C_7
REMARK    4  A    between atoms: N_5  and  C_14
REMARK    5  A    between atoms: C_12  and  C_14
REMARK    6  A    between atoms: C_15  and  C_16
REMARK                            x       y       z     vdW  Elec       q    Type
REMARK                         _______ _______ _______ _____ _____    ______ ____
ROOT
ATOM      1  O   UNL     1      12.254   8.428  22.099  0.00  0.00    -0.371 OA
ATOM      7  C   UNL     1      11.023   8.079  20.098  0.00  0.00    +0.111 C 
ATOM     10  C   UNL     1      12.353   7.358  19.992  0.00  0.00    +0.164 C 
ATOM     12  C   UNL     1      12.738   7.235  21.460  0.00  0.00    +0.165 C 
ATOM     13  C   UNL     1      11.300   9.059  21.227  0.00  0.00    +0.181 C 
ENDROOT
BRANCH  10   2
ATOM      2  O   UNL     1      12.242   6.094  19.368  0.00  0.00    -0.388 OA
ATOM     18  H   UNL     1      13.121   5.834  19.045  0.00  0.00    +0.210 HD
ENDBRANCH  10   2
BRANCH   7   4
ATOM      4  N   UNL     1      10.615   8.736  18.866  0.00  0.00    -0.306 NA
ATOM     17  H   UNL     1      10.752   9.740  18.980  0.00  0.00    +0.123 HD
BRANCH   4   6
ATOM      6  C   UNL     1      11.365   8.183  17.749  0.00  0.00    +0.054 C 
ATOM      8  C   UNL     1      12.576   9.093  17.450  0.00  0.00    +0.019 C 
ATOM      9  C   UNL     1      10.753   8.686  16.424  0.00  0.00    +0.019 C 
ATOM     11  C   UNL     1      12.202   8.953  15.957  0.00  0.00    +0.003 C 
ENDBRANCH   4   6
ENDBRANCH   7   4
BRANCH  12  14
ATOM     14  C   UNL     1      14.235   7.106  21.680  0.00  0.00    +0.138 C 
BRANCH  14   5
ATOM      3  O   UNL     1      17.064   7.234  21.038  0.00  0.00    -0.276 OA
ATOM      5  N   UNL     1      14.890   6.581  20.515  0.00  0.00    -0.313 N 
ATOM     15  C   UNL     1      16.257   6.690  20.290  0.00  0.00    +0.210 C 
ATOM     16  C   UNL     1      16.684   6.032  19.005  0.00  0.00    +0.109 C 
ATOM     19  H   UNL     1      14.314   6.109  19.824  0.00  0.00    +0.149 HD
ENDBRANCH  14   5
ENDBRANCH  12  14
TORSDOF 5
ENDMDL
MODEL 10
REMARK VINA RESULT:      -4.7      2.846      4.207
REMARK  Name = 75367055
REMARK  6 active torsions:
REMARK  status: ('A' for Active; 'I' for Inactive)
REMARK    1  A    between atoms: O_2  and  C_10
REMARK    2  A    between atoms: N_4  and  C_6
REMARK    3  A    between atoms: N_4  and  C_7
REMARK    4  A    between atoms: N_5  and  C_14
REMARK    5  A    between atoms: C_12  and  C_14
REMARK    6  A    between atoms: C_15  and  C_16
REMARK                            x       y       z     vdW  Elec       q    Type
REMARK                         _______ _______ _______ _____ _____    ______ ____
ROOT
ATOM      1  O   UNL     1      -0.865   0.038  25.240  0.00  0.00    -0.371 OA
ATOM      7  C   UNL     1      -2.928   0.285  24.089  0.00  0.00    +0.111 C 
ATOM     10  C   UNL     1      -2.002   1.421  23.695  0.00  0.00    +0.164 C 
ATOM     12  C   UNL     1      -0.646   0.835  24.065  0.00  0.00    +0.165 C 
ATOM     13  C   UNL     1      -2.277  -0.201  25.373  0.00  0.00    +0.181 C 
ENDROOT
BRANCH  10   2
ATOM      2  O   UNL     1      -2.082   1.739  22.319  0.00  0.00    -0.388 OA
ATOM     18  H   UNL     1      -2.482   2.620  22.231  0.00  0.00    +0.210 HD
ENDBRANCH  10   2
BRANCH   7   4
ATOM      4  N   UNL     1      -4.310   0.698  24.275  0.00  0.00    -0.306 NA
ATOM     17  H   UNL     1      -4.856  -0.125  24.530  0.00  0.00    +0.123 HD
BRANCH   4   6
ATOM      6  C   UNL     1      -4.373   1.752  25.276  0.00  0.00    +0.054 C 
ATOM      8  C   UNL     1      -5.841   1.957  25.707  0.00  0.00    +0.019 C 
ATOM      9  C   UNL     1      -4.466   3.122  24.569  0.00  0.00    +0.019 C 
ATOM     11  C   UNL     1      -5.572   3.475  25.589  0.00  0.00    +0.003 C 
ENDBRANCH   4   6
ENDBRANCH   7   4
BRANCH  12  14
ATOM     14  C   UNL     1       0.406   1.892  24.350  0.00  0.00    +0.138 C 
BRANCH  14   5
ATOM      3  O   UNL     1       0.964  -0.277  22.502  0.00  0.00    -0.276 OA
ATOM      5  N   UNL     1       1.677   1.527  23.792  0.00  0.00    -0.313 N 
ATOM     15  C   UNL     1       1.852   0.467  22.910  0.00  0.00    +0.210 C 
ATOM     16  C   UNL     1       3.280   0.319  22.460  0.00  0.00    +0.109 C 
ATOM     19  H   UNL     1       2.486   2.077  24.065  0.00  0.00    +0.149 HD
ENDBRANCH  14   5
ENDBRANCH  12  14
TORSDOF 5
ENDMDL
