MODEL 1
REMARK VINA RESULT:       5.2      0.000      0.000
REMARK  Name = 11882468
REMARK  11 active torsions:
REMARK  status: ('A' for Active; 'I' for Inactive)
REMARK    1  A    between atoms: S_1  and  N_10
REMARK    2  A    between atoms: S_1  and  C_24
REMARK    3  A    between atoms: N_10  and  C_15
REMARK    4  A    between atoms: N_11  and  C_23
REMARK    5  A    between atoms: N_12  and  C_31
REMARK    6  A    between atoms: C_17  and  C_20
REMARK    7  A    between atoms: C_21  and  C_22
REMARK    8  A    between atoms: C_23  and  C_25
REMARK    9  A    between atoms: C_23  and  C_27
REMARK   10  A    between atoms: C_25  and  C_30
REMARK   11  A    between atoms: C_28  and  C_34
REMARK                            x       y       z     vdW  Elec       q    Type
REMARK                         _______ _______ _______ _____ _____    ______ ____
ROOT
ATOM      5  O   UNL     1      -1.803  -0.743  27.014  0.00  0.00    -0.268 OA
ATOM      9  N   UNL     1      -1.063   0.290  25.071  0.00  0.00    -0.285 N 
ATOM     15  C   UNL     1       1.069   1.728  23.675  0.00  0.00    +0.080 C 
ATOM     16  C   UNL     1       1.147   1.477  25.182  0.00  0.00    +0.052 C 
ATOM     17  C   UNL     1      -0.217   1.227  25.823  0.00  0.00    +0.164 C 
ATOM     18  C   UNL     1       0.281   0.608  23.000  0.00  0.00    +0.039 C 
ATOM     19  C   UNL     1      -1.110   0.465  23.608  0.00  0.00    +0.110 C 
ATOM     21  C   UNL     1      -1.869  -0.623  25.789  0.00  0.00    +0.265 C 
ENDROOT
BRANCH  21  22
ATOM     12  N   UNL     1      -2.485  -2.580  24.352  0.00  0.00    -0.262 N 
ATOM     13  N   UNL     1      -3.532  -3.148  23.729  0.00  0.00    -0.176 NA
ATOM     22  C   UNL     1      -2.805  -1.441  25.027  0.00  0.00    +0.123 A 
ATOM     26  C   UNL     1      -4.148  -1.249  24.836  0.00  0.00    +0.057 A 
ATOM     28  C   UNL     1      -4.545  -2.331  24.029  0.00  0.00    +0.061 A 
ATOM     31  C   UNL     1      -1.183  -3.196  24.252  0.00  0.00    +0.173 C 
ATOM     34  C   UNL     1      -5.895  -2.622  23.518  0.00  0.00    +0.067 C 
ENDBRANCH  21  22
BRANCH  17  20
ATOM      4  O   UNL     1      -1.141   3.046  27.065  0.00  0.00    -0.274 OA
ATOM     11  N   UNL     1      -1.577   2.903  24.782  0.00  0.00    -0.302 N 
ATOM     20  C   UNL     1      -1.013   2.490  25.977  0.00  0.00    +0.234 C 
ATOM     39  H   UNL     1      -1.470   2.317  23.959  0.00  0.00    +0.150 HD
BRANCH  11  23
ATOM     23  C   UNL     1      -2.409   4.079  24.666  0.00  0.00    +0.163 C 
BRANCH  23  27
ATOM      8  O   UNL     1      -1.821   6.371  25.222  0.00  0.00    -0.274 OA
ATOM     14  N   UNL     1      -0.218   5.023  24.279  0.00  0.00    -0.328 N 
ATOM     27  C   UNL     1      -1.487   5.287  24.747  0.00  0.00    +0.231 C 
ATOM     40  H   UNL     1       0.046   4.122  23.894  0.00  0.00    +0.145 HD
ATOM     41  H   UNL     1       0.501   5.739  24.292  0.00  0.00    +0.145 HD
ENDBRANCH  23  27
BRANCH  23  25
ATOM     25  C   UNL     1      -3.475   4.146  25.765  0.00  0.00    +0.074 C 
BRANCH  25  30
ATOM      3  S   UNL     1      -4.642   2.300  24.077  0.00  0.00    -0.102 S 
ATOM     30  C   UNL     1      -4.592   3.153  25.544  0.00  0.00    -0.008 A 
ATOM     35  C   UNL     1      -5.601   2.841  26.399  0.00  0.00    +0.011 A 
ATOM     36  C   UNL     1      -6.463   1.856  25.834  0.00  0.00    +0.008 A 
ATOM     37  C   UNL     1      -6.056   1.474  24.575  0.00  0.00    +0.045 A 
ENDBRANCH  25  30
ENDBRANCH  23  25
ENDBRANCH  11  23
ENDBRANCH  17  20
BRANCH  15  10
ATOM     10  N   UNL     1       2.392   1.839  23.105  0.00  0.00    -0.186 NA
ATOM     38  H   UNL     1       3.043   2.448  23.615  0.00  0.00    +0.148 HD
BRANCH  10   1
ATOM      1  S   UNL     1       3.048   0.459  22.337  0.00  0.00    +0.065 S 
ATOM      6  O   UNL     1       3.509   0.819  21.011  0.00  0.00    -0.153 OA
ATOM      7  O   UNL     1       2.153  -0.662  22.547  0.00  0.00    -0.153 OA
BRANCH   1  24
ATOM      2  S   UNL     1       4.491  -1.594  23.839  0.00  0.00    -0.077 S 
ATOM     24  C   UNL     1       4.523  -0.002  23.247  0.00  0.00    +0.142 A 
ATOM     29  C   UNL     1       5.654   0.679  23.548  0.00  0.00    +0.036 A 
ATOM     32  C   UNL     1       6.551  -0.130  24.304  0.00  0.00    +0.010 A 
ATOM     33  C   UNL     1       6.043  -1.390  24.533  0.00  0.00    +0.047 A 
ENDBRANCH   1  24
ENDBRANCH  10   1
ENDBRANCH  15  10
TORSDOF 9
ENDMDL
MODEL 2
REMARK VINA RESULT:       7.3      1.727      2.456
REMARK  Name = 11882468
REMARK  11 active torsions:
REMARK  status: ('A' for Active; 'I' for Inactive)
REMARK    1  A    between atoms: S_1  and  N_10
REMARK    2  A    between atoms: S_1  and  C_24
REMARK    3  A    between atoms: N_10  and  C_15
REMARK    4  A    between atoms: N_11  and  C_23
REMARK    5  A    between atoms: N_12  and  C_31
REMARK    6  A    between atoms: C_17  and  C_20
REMARK    7  A    between atoms: C_21  and  C_22
REMARK    8  A    between atoms: C_23  and  C_25
REMARK    9  A    between atoms: C_23  and  C_27
REMARK   10  A    between atoms: C_25  and  C_30
REMARK   11  A    between atoms: C_28  and  C_34
REMARK                            x       y       z     vdW  Elec       q    Type
REMARK                         _______ _______ _______ _____ _____    ______ ____
ROOT
ATOM      5  O   UNL     1      -2.331  -0.244  27.002  0.00  0.00    -0.268 OA
ATOM      9  N   UNL     1      -1.253   0.449  25.067  0.00  0.00    -0.285 N 
ATOM     15  C   UNL     1       1.039   1.793  23.841  0.00  0.00    +0.080 C 
ATOM     16  C   UNL     1       0.805   1.860  25.352  0.00  0.00    +0.052 C 
ATOM     17  C   UNL     1      -0.648   1.601  25.748  0.00  0.00    +0.164 C 
ATOM     18  C   UNL     1       0.486   0.483  23.286  0.00  0.00    +0.039 C 
ATOM     19  C   UNL     1      -0.992   0.319  23.622  0.00  0.00    +0.110 C 
ATOM     21  C   UNL     1      -2.137  -0.382  25.793  0.00  0.00    +0.265 C 
ENDROOT
BRANCH  21  22
ATOM     12  N   UNL     1      -2.286  -2.612  24.664  0.00  0.00    -0.262 N 
ATOM     13  N   UNL     1      -3.142  -3.409  24.001  0.00  0.00    -0.176 NA
ATOM     22  C   UNL     1      -2.835  -1.431  25.058  0.00  0.00    +0.123 A 
ATOM     26  C   UNL     1      -4.135  -1.451  24.628  0.00  0.00    +0.057 A 
ATOM     28  C   UNL     1      -4.270  -2.694  23.982  0.00  0.00    +0.061 A 
ATOM     31  C   UNL     1      -0.931  -3.060  24.885  0.00  0.00    +0.173 C 
ATOM     34  C   UNL     1      -5.471  -3.242  23.329  0.00  0.00    +0.067 C 
ENDBRANCH  21  22
BRANCH  17  20
ATOM      4  O   UNL     1      -1.076   3.869  25.132  0.00  0.00    -0.274 OA
ATOM     11  N   UNL     1      -2.874   2.479  25.635  0.00  0.00    -0.302 N 
ATOM     20  C   UNL     1      -1.534   2.778  25.461  0.00  0.00    +0.234 C 
ATOM     39  H   UNL     1      -3.132   1.562  25.989  0.00  0.00    +0.150 HD
BRANCH  11  23
ATOM     23  C   UNL     1      -3.930   3.447  25.444  0.00  0.00    +0.163 C 
BRANCH  23  27
ATOM      8  O   UNL     1      -5.350   1.584  26.096  0.00  0.00    -0.274 OA
ATOM     14  N   UNL     1      -6.232   3.705  26.134  0.00  0.00    -0.328 N 
ATOM     27  C   UNL     1      -5.225   2.792  25.904  0.00  0.00    +0.231 C 
ATOM     40  H   UNL     1      -6.115   4.700  25.975  0.00  0.00    +0.145 HD
ATOM     41  H   UNL     1      -7.144   3.402  26.461  0.00  0.00    +0.145 HD
ENDBRANCH  23  27
BRANCH  23  25
ATOM     25  C   UNL     1      -4.049   3.896  23.983  0.00  0.00    +0.074 C 
BRANCH  25  30
ATOM      3  S   UNL     1      -2.584   3.315  21.718  0.00  0.00    -0.102 S 
ATOM     30  C   UNL     1      -3.568   2.840  23.016  0.00  0.00    -0.008 A 
ATOM     35  C   UNL     1      -3.830   1.507  23.052  0.00  0.00    +0.011 A 
ATOM     36  C   UNL     1      -3.200   0.833  21.966  0.00  0.00    +0.008 A 
ATOM     37  C   UNL     1      -2.489   1.698  21.163  0.00  0.00    +0.045 A 
ENDBRANCH  25  30
ENDBRANCH  23  25
ENDBRANCH  11  23
ENDBRANCH  17  20
BRANCH  15  10
ATOM     10  N   UNL     1       2.445   1.926  23.535  0.00  0.00    -0.186 NA
ATOM     38  H   UNL     1       3.043   2.213  24.319  0.00  0.00    +0.148 HD
BRANCH  10   1
ATOM      1  S   UNL     1       3.118   0.847  22.391  0.00  0.00    +0.065 S 
ATOM      6  O   UNL     1       3.966   1.584  21.475  0.00  0.00    -0.153 OA
ATOM      7  O   UNL     1       2.073  -0.035  21.909  0.00  0.00    -0.153 OA
BRANCH   1  24
ATOM      2  S   UNL     1       5.670   0.485  23.772  0.00  0.00    -0.077 S 
ATOM     24  C   UNL     1       4.219  -0.252  23.283  0.00  0.00    +0.142 A 
ATOM     29  C   UNL     1       4.111  -1.554  23.638  0.00  0.00    +0.036 A 
ATOM     32  C   UNL     1       5.268  -1.987  24.348  0.00  0.00    +0.010 A 
ATOM     33  C   UNL     1       6.195  -0.978  24.491  0.00  0.00    +0.047 A 
ENDBRANCH   1  24
ENDBRANCH  10   1
ENDBRANCH  15  10
TORSDOF 9
ENDMDL
MODEL 3
REMARK VINA RESULT:       8.4      1.553      2.891
REMARK  Name = 11882468
REMARK  11 active torsions:
REMARK  status: ('A' for Active; 'I' for Inactive)
REMARK    1  A    between atoms: S_1  and  N_10
REMARK    2  A    between atoms: S_1  and  C_24
REMARK    3  A    between atoms: N_10  and  C_15
REMARK    4  A    between atoms: N_11  and  C_23
REMARK    5  A    between atoms: N_12  and  C_31
REMARK    6  A    between atoms: C_17  and  C_20
REMARK    7  A    between atoms: C_21  and  C_22
REMARK    8  A    between atoms: C_23  and  C_25
REMARK    9  A    between atoms: C_23  and  C_27
REMARK   10  A    between atoms: C_25  and  C_30
REMARK   11  A    between atoms: C_28  and  C_34
REMARK                            x       y       z     vdW  Elec       q    Type
REMARK                         _______ _______ _______ _____ _____    ______ ____
ROOT
ATOM      5  O   UNL     1      -2.413  -1.127  26.903  0.00  0.00    -0.268 OA
ATOM      9  N   UNL     1      -1.571   0.019  25.069  0.00  0.00    -0.285 N 
ATOM     15  C   UNL     1       0.646   1.502  23.865  0.00  0.00    +0.080 C 
ATOM     16  C   UNL     1       0.655   1.147  25.354  0.00  0.00    +0.052 C 
ATOM     17  C   UNL     1      -0.740   0.884  25.918  0.00  0.00    +0.164 C 
ATOM     18  C   UNL     1      -0.132   0.448  23.083  0.00  0.00    +0.039 C 
ATOM     19  C   UNL     1      -1.550   0.295  23.621  0.00  0.00    +0.110 C 
ATOM     21  C   UNL     1      -2.423  -0.923  25.688  0.00  0.00    +0.265 C 
ENDROOT
BRANCH  21  22
ATOM     12  N   UNL     1      -4.356  -1.122  24.107  0.00  0.00    -0.262 N 
ATOM     13  N   UNL     1      -5.057  -2.024  23.399  0.00  0.00    -0.176 NA
ATOM     22  C   UNL     1      -3.341  -1.667  24.832  0.00  0.00    +0.123 A 
ATOM     26  C   UNL     1      -3.375  -3.014  24.586  0.00  0.00    +0.057 A 
ATOM     28  C   UNL     1      -4.453  -3.179  23.695  0.00  0.00    +0.061 A 
ATOM     31  C   UNL     1      -4.726   0.273  24.038  0.00  0.00    +0.173 C 
ATOM     34  C   UNL     1      -4.942  -4.433  23.099  0.00  0.00    +0.067 C 
ENDBRANCH  21  22
BRANCH  17  20
ATOM      4  O   UNL     1      -1.005   3.153  26.614  0.00  0.00    -0.274 OA
ATOM     11  N   UNL     1      -2.839   2.023  25.732  0.00  0.00    -0.302 N 
ATOM     20  C   UNL     1      -1.518   2.150  26.126  0.00  0.00    +0.234 C 
ATOM     39  H   UNL     1      -3.174   1.118  25.417  0.00  0.00    +0.150 HD
BRANCH  11  23
ATOM     23  C   UNL     1      -3.804   3.093  25.850  0.00  0.00    +0.163 C 
BRANCH  23  27
ATOM      8  O   UNL     1      -5.356   1.262  26.235  0.00  0.00    -0.274 OA
ATOM     14  N   UNL     1      -6.207   3.341  25.756  0.00  0.00    -0.328 N 
ATOM     27  C   UNL     1      -5.178   2.445  25.956  0.00  0.00    +0.231 C 
ATOM     40  H   UNL     1      -6.046   4.317  25.530  0.00  0.00    +0.145 HD
ATOM     41  H   UNL     1      -7.175   3.043  25.816  0.00  0.00    +0.145 HD
ENDBRANCH  23  27
BRANCH  23  25
ATOM     25  C   UNL     1      -3.757   4.053  24.656  0.00  0.00    +0.074 C 
BRANCH  25  30
ATOM      3  S   UNL     1      -1.418   3.893  23.199  0.00  0.00    -0.102 S 
ATOM     30  C   UNL     1      -2.370   4.600  24.413  0.00  0.00    -0.008 A 
ATOM     35  C   UNL     1      -1.761   5.624  25.066  0.00  0.00    +0.011 A 
ATOM     36  C   UNL     1      -0.450   5.848  24.555  0.00  0.00    +0.008 A 
ATOM     37  C   UNL     1      -0.137   4.976  23.535  0.00  0.00    +0.045 A 
ENDBRANCH  25  30
ENDBRANCH  23  25
ENDBRANCH  11  23
ENDBRANCH  17  20
BRANCH  15  10
ATOM     10  N   UNL     1       1.994   1.624  23.360  0.00  0.00    -0.186 NA
ATOM     38  H   UNL     1       2.626   2.207  23.922  0.00  0.00    +0.148 HD
BRANCH  10   1
ATOM      1  S   UNL     1       2.676   0.267  22.572  0.00  0.00    +0.065 S 
ATOM      6  O   UNL     1       2.945   0.599  21.187  0.00  0.00    -0.153 OA
ATOM      7  O   UNL     1       1.914  -0.913  22.931  0.00  0.00    -0.153 OA
BRANCH   1  24
ATOM      2  S   UNL     1       4.498  -1.616  23.871  0.00  0.00    -0.077 S 
ATOM     24  C   UNL     1       4.282  -0.025  23.314  0.00  0.00    +0.142 A 
ATOM     29  C   UNL     1       5.351   0.782  23.512  0.00  0.00    +0.036 A 
ATOM     32  C   UNL     1       6.411   0.077  24.153  0.00  0.00    +0.010 A 
ATOM     33  C   UNL     1       6.080  -1.236  24.405  0.00  0.00    +0.047 A 
ENDBRANCH   1  24
ENDBRANCH  10   1
ENDBRANCH  15  10
TORSDOF 9
ENDMDL
MODEL 4
REMARK VINA RESULT:       9.1      2.789      4.966
REMARK  Name = 11882468
REMARK  11 active torsions:
REMARK  status: ('A' for Active; 'I' for Inactive)
REMARK    1  A    between atoms: S_1  and  N_10
REMARK    2  A    between atoms: S_1  and  C_24
REMARK    3  A    between atoms: N_10  and  C_15
REMARK    4  A    between atoms: N_11  and  C_23
REMARK    5  A    between atoms: N_12  and  C_31
REMARK    6  A    between atoms: C_17  and  C_20
REMARK    7  A    between atoms: C_21  and  C_22
REMARK    8  A    between atoms: C_23  and  C_25
REMARK    9  A    between atoms: C_23  and  C_27
REMARK   10  A    between atoms: C_25  and  C_30
REMARK   11  A    between atoms: C_28  and  C_34
REMARK                            x       y       z     vdW  Elec       q    Type
REMARK                         _______ _______ _______ _____ _____    ______ ____
ROOT
ATOM      5  O   UNL     1       0.756   4.212  26.601  0.00  0.00    -0.268 OA
ATOM      9  N   UNL     1       0.053   2.029  26.241  0.00  0.00    -0.285 N 
ATOM     15  C   UNL     1      -0.433  -0.147  24.346  0.00  0.00    +0.080 C 
ATOM     16  C   UNL     1      -0.123   1.268  23.854  0.00  0.00    +0.052 C 
ATOM     17  C   UNL     1      -0.431   2.347  24.891  0.00  0.00    +0.164 C 
ATOM     18  C   UNL     1       0.246  -0.391  25.691  0.00  0.00    +0.039 C 
ATOM     19  C   UNL     1      -0.172   0.653  26.720  0.00  0.00    +0.110 C 
ATOM     21  C   UNL     1       0.581   3.072  27.036  0.00  0.00    +0.265 C 
ENDROOT
BRANCH  21  22
ATOM     12  N   UNL     1       2.176   2.508  28.883  0.00  0.00    -0.262 N 
ATOM     13  N   UNL     1       2.221   2.248  30.201  0.00  0.00    -0.176 NA
ATOM     22  C   UNL     1       0.921   2.760  28.419  0.00  0.00    +0.123 A 
ATOM     26  C   UNL     1       0.087   2.660  29.501  0.00  0.00    +0.057 A 
ATOM     28  C   UNL     1       0.941   2.342  30.573  0.00  0.00    +0.061 A 
ATOM     31  C   UNL     1       3.401   2.497  28.118  0.00  0.00    +0.173 C 
ATOM     34  C   UNL     1       0.572   2.119  31.982  0.00  0.00    +0.067 C 
ENDBRANCH  21  22
BRANCH  17  20
ATOM      4  O   UNL     1      -2.357   3.340  25.895  0.00  0.00    -0.274 OA
ATOM     11  N   UNL     1      -2.642   1.923  24.070  0.00  0.00    -0.302 N 
ATOM     20  C   UNL     1      -1.903   2.609  25.019  0.00  0.00    +0.234 C 
ATOM     39  H   UNL     1      -2.164   1.281  23.444  0.00  0.00    +0.150 HD
BRANCH  11  23
ATOM     23  C   UNL     1      -4.083   1.988  23.993  0.00  0.00    +0.163 C 
BRANCH  23  27
ATOM      8  O   UNL     1      -4.186   4.385  23.603  0.00  0.00    -0.274 OA
ATOM     14  N   UNL     1      -5.262   3.524  25.441  0.00  0.00    -0.328 N 
ATOM     27  C   UNL     1      -4.483   3.423  24.307  0.00  0.00    +0.231 C 
ATOM     40  H   UNL     1      -5.504   2.721  26.011  0.00  0.00    +0.145 HD
ATOM     41  H   UNL     1      -5.611   4.424  25.753  0.00  0.00    +0.145 HD
ENDBRANCH  23  27
BRANCH  23  25
ATOM     25  C   UNL     1      -4.762   1.019  24.969  0.00  0.00    +0.074 C 
BRANCH  25  30
ATOM      3  S   UNL     1      -3.440  -1.108  26.128  0.00  0.00    -0.102 S 
ATOM     30  C   UNL     1      -4.253  -0.396  24.820  0.00  0.00    -0.008 A 
ATOM     35  C   UNL     1      -4.366  -1.203  23.734  0.00  0.00    +0.011 A 
ATOM     36  C   UNL     1      -3.759  -2.470  23.974  0.00  0.00    +0.008 A 
ATOM     37  C   UNL     1      -3.217  -2.553  25.238  0.00  0.00    +0.045 A 
ENDBRANCH  25  30
ENDBRANCH  23  25
ENDBRANCH  11  23
ENDBRANCH  17  20
BRANCH  15  10
ATOM     10  N   UNL     1      -0.012  -1.130  23.374  0.00  0.00    -0.186 NA
ATOM     38  H   UNL     1      -0.716  -1.835  23.125  0.00  0.00    +0.148 HD
BRANCH  10   1
ATOM      1  S   UNL     1       1.060  -0.625  22.141  0.00  0.00    +0.065 S 
ATOM      6  O   UNL     1       0.760   0.745  21.772  0.00  0.00    -0.153 OA
ATOM      7  O   UNL     1       1.150  -1.672  21.142  0.00  0.00    -0.153 OA
BRANCH   1  24
ATOM      2  S   UNL     1       3.534   0.876  22.565  0.00  0.00    -0.077 S 
ATOM     24  C   UNL     1       2.704  -0.579  22.854  0.00  0.00    +0.142 A 
ATOM     29  C   UNL     1       3.406  -1.483  23.577  0.00  0.00    +0.036 A 
ATOM     32  C   UNL     1       4.693  -0.975  23.920  0.00  0.00    +0.010 A 
ATOM     33  C   UNL     1       4.892   0.298  23.432  0.00  0.00    +0.047 A 
ENDBRANCH   1  24
ENDBRANCH  10   1
ENDBRANCH  15  10
TORSDOF 9
ENDMDL
