MODEL 1
REMARK VINA RESULT:      -0.9      0.000      0.000
REMARK  Name = 25390146
REMARK  10 active torsions:
REMARK  status: ('A' for Active; 'I' for Inactive)
REMARK    1  A    between atoms: O_5  and  C_14
REMARK    2  A    between atoms: O_6  and  C_15
REMARK    3  A    between atoms: O_10  and  C_32
REMARK    4  A    between atoms: O_10  and  C_33
REMARK    5  A    between atoms: N_11  and  C_19
REMARK    6  A    between atoms: C_16  and  C_18
REMARK    7  A    between atoms: C_17  and  C_19
REMARK    8  A    between atoms: C_18  and  C_20
REMARK    9  A    between atoms: C_21  and  C_23
REMARK   10  A    between atoms: C_22  and  C_24
REMARK                            x       y       z     vdW  Elec       q    Type
REMARK                         _______ _______ _______ _____ _____    ______ ____
ROOT
ATOM      4  O   UNL     1      -4.401   1.677  23.937  0.00  0.00    -0.366 OA
ATOM     14  C   UNL     1      -6.199   1.769  25.491  0.00  0.00    +0.175 C 
ATOM     15  C   UNL     1      -5.383   3.041  25.591  0.00  0.00    +0.176 C 
ATOM     16  C   UNL     1      -5.244   0.835  24.757  0.00  0.00    +0.159 C 
ATOM     17  C   UNL     1      -4.676   3.055  24.246  0.00  0.00    +0.167 C 
ENDROOT
BRANCH  14   5
ATOM      5  O   UNL     1      -7.341   1.977  24.660  0.00  0.00    -0.387 OA
ATOM     34  H   UNL     1      -7.949   1.233  24.809  0.00  0.00    +0.210 HD
ENDBRANCH  14   5
BRANCH  15   6
ATOM      6  O   UNL     1      -6.169   4.196  25.788  0.00  0.00    -0.387 OA
ATOM     35  H   UNL     1      -6.653   4.365  24.962  0.00  0.00    +0.210 HD
ENDBRANCH  15   6
BRANCH  16  18
ATOM     18  C   UNL     1      -4.341   0.046  25.696  0.00  0.00    +0.133 C 
BRANCH  18  20
ATOM      7  O   UNL     1      -2.950  -1.648  24.630  0.00  0.00    -0.338 OA
ATOM     12  N   UNL     1      -1.988   0.370  24.776  0.00  0.00    -0.191 NA
ATOM     13  N   UNL     1      -1.682  -1.778  24.050  0.00  0.00    -0.056 NA
ATOM     20  C   UNL     1      -3.050  -0.354  25.031  0.00  0.00    +0.230 A 
ATOM     22  C   UNL     1      -1.177  -0.547  24.174  0.00  0.00    +0.202 A 
BRANCH  22  24
ATOM     24  C   UNL     1       0.134  -0.201  23.707  0.00  0.00    +0.023 A 
ATOM     26  C   UNL     1       0.756  -0.977  22.728  0.00  0.00    +0.015 A 
ATOM     27  C   UNL     1       0.790   0.912  24.233  0.00  0.00    +0.015 A 
ATOM     30  C   UNL     1       2.030  -0.641  22.276  0.00  0.00    +0.046 A 
ATOM     31  C   UNL     1       2.065   1.250  23.779  0.00  0.00    +0.046 A 
ATOM     32  C   UNL     1       2.686   0.473  22.801  0.00  0.00    +0.130 A 
BRANCH  32  10
ATOM     10  O   UNL     1       3.931   0.801  22.360  0.00  0.00    -0.406 OA
BRANCH  10  33
ATOM      1  F   UNL     1       4.689  -0.866  23.679  0.00  0.00    -0.133 F 
ATOM      2  F   UNL     1       6.069  -0.001  22.220  0.00  0.00    -0.133 F 
ATOM      3  F   UNL     1       5.473   1.146  24.013  0.00  0.00    -0.133 F 
ATOM     33  C   UNL     1       5.054   0.282  23.064  0.00  0.00    +0.575 C 
ENDBRANCH  10  33
ENDBRANCH  32  10
ENDBRANCH  22  24
ENDBRANCH  18  20
ENDBRANCH  16  18
BRANCH  17  19
ATOM     19  C   UNL     1      -3.378   3.844  24.256  0.00  0.00    +0.138 C 
BRANCH  19  11
ATOM      8  O   UNL     1      -0.620   4.568  24.591  0.00  0.00    -0.267 OA
ATOM     11  N   UNL     1      -2.480   3.351  25.258  0.00  0.00    -0.306 N 
ATOM     21  C   UNL     1      -1.152   3.759  25.347  0.00  0.00    +0.279 C 
ATOM     36  H   UNL     1      -2.833   2.675  25.929  0.00  0.00    +0.149 HD
BRANCH  21  23
ATOM      9  O   UNL     1       0.982   3.425  26.477  0.00  0.00    -0.458 OA
ATOM     23  C   UNL     1      -0.344   3.134  26.426  0.00  0.00    +0.189 A 
ATOM     25  C   UNL     1      -0.689   2.272  27.442  0.00  0.00    +0.054 A 
ATOM     28  C   UNL     1       0.502   2.018  28.164  0.00  0.00    +0.042 A 
ATOM     29  C   UNL     1       1.489   2.743  27.538  0.00  0.00    +0.196 A 
ENDBRANCH  21  23
ENDBRANCH  19  11
ENDBRANCH  17  19
TORSDOF 10
ENDMDL
MODEL 2
REMARK VINA RESULT:      -0.7      2.072      3.613
REMARK  Name = 25390146
REMARK  10 active torsions:
REMARK  status: ('A' for Active; 'I' for Inactive)
REMARK    1  A    between atoms: O_5  and  C_14
REMARK    2  A    between atoms: O_6  and  C_15
REMARK    3  A    between atoms: O_10  and  C_32
REMARK    4  A    between atoms: O_10  and  C_33
REMARK    5  A    between atoms: N_11  and  C_19
REMARK    6  A    between atoms: C_16  and  C_18
REMARK    7  A    between atoms: C_17  and  C_19
REMARK    8  A    between atoms: C_18  and  C_20
REMARK    9  A    between atoms: C_21  and  C_23
REMARK   10  A    between atoms: C_22  and  C_24
REMARK                            x       y       z     vdW  Elec       q    Type
REMARK                         _______ _______ _______ _____ _____    ______ ____
ROOT
ATOM      4  O   UNL     1      -4.055   1.838  25.787  0.00  0.00    -0.366 OA
ATOM     14  C   UNL     1      -5.838   3.398  25.581  0.00  0.00    +0.175 C 
ATOM     15  C   UNL     1      -6.094   2.219  24.666  0.00  0.00    +0.176 C 
ATOM     16  C   UNL     1      -4.351   3.251  25.882  0.00  0.00    +0.159 C 
ATOM     17  C   UNL     1      -5.219   1.149  25.297  0.00  0.00    +0.167 C 
ENDROOT
BRANCH  14   5
ATOM      5  O   UNL     1      -6.555   3.241  26.805  0.00  0.00    -0.387 OA
ATOM     34  H   UNL     1      -7.249   2.577  26.653  0.00  0.00    +0.210 HD
ENDBRANCH  14   5
BRANCH  15   6
ATOM      6  O   UNL     1      -7.451   1.833  24.618  0.00  0.00    -0.387 OA
ATOM     35  H   UNL     1      -7.571   1.286  23.823  0.00  0.00    +0.210 HD
ENDBRANCH  15   6
BRANCH  16  18
ATOM     18  C   UNL     1      -3.464   3.980  24.881  0.00  0.00    +0.133 C 
BRANCH  18  20
ATOM      7  O   UNL     1      -3.090   2.409  23.054  0.00  0.00    -0.338 OA
ATOM     12  N   UNL     1      -1.311   2.714  24.381  0.00  0.00    -0.191 NA
ATOM     13  N   UNL     1      -2.075   1.594  22.538  0.00  0.00    -0.056 NA
ATOM     20  C   UNL     1      -2.558   3.033  24.137  0.00  0.00    +0.230 A 
ATOM     22  C   UNL     1      -1.059   1.828  23.374  0.00  0.00    +0.202 A 
BRANCH  22  24
ATOM     24  C   UNL     1       0.219   1.195  23.230  0.00  0.00    +0.023 A 
ATOM     26  C   UNL     1       1.368   1.821  23.715  0.00  0.00    +0.015 A 
ATOM     27  C   UNL     1       0.315  -0.048  22.604  0.00  0.00    +0.015 A 
ATOM     30  C   UNL     1       2.611   1.206  23.574  0.00  0.00    +0.046 A 
ATOM     31  C   UNL     1       1.559  -0.664  22.463  0.00  0.00    +0.046 A 
ATOM     32  C   UNL     1       2.707  -0.037  22.948  0.00  0.00    +0.130 A 
BRANCH  32  10
ATOM     10  O   UNL     1       3.920  -0.639  22.809  0.00  0.00    -0.406 OA
BRANCH  10  33
ATOM      1  F   UNL     1       6.162  -0.380  22.765  0.00  0.00    -0.133 F 
ATOM      2  F   UNL     1       4.945   1.304  23.447  0.00  0.00    -0.133 F 
ATOM      3  F   UNL     1       5.178  -0.492  24.714  0.00  0.00    -0.133 F 
ATOM     33  C   UNL     1       5.044  -0.042  23.448  0.00  0.00    +0.575 C 
ENDBRANCH  10  33
ENDBRANCH  32  10
ENDBRANCH  22  24
ENDBRANCH  18  20
ENDBRANCH  16  18
BRANCH  17  19
ATOM     19  C   UNL     1      -4.797   0.064  24.321  0.00  0.00    +0.138 C 
BRANCH  19  11
ATOM      8  O   UNL     1      -3.892  -2.660  24.373  0.00  0.00    -0.267 OA
ATOM     11  N   UNL     1      -3.466  -0.390  24.595  0.00  0.00    -0.306 N 
ATOM     21  C   UNL     1      -3.114  -1.737  24.599  0.00  0.00    +0.279 C 
ATOM     36  H   UNL     1      -2.753   0.306  24.794  0.00  0.00    +0.149 HD
BRANCH  21  23
ATOM      9  O   UNL     1      -1.018  -1.159  25.702  0.00  0.00    -0.458 OA
ATOM     23  C   UNL     1      -1.697  -2.045  24.928  0.00  0.00    +0.189 A 
ATOM     25  C   UNL     1      -0.892  -3.106  24.586  0.00  0.00    +0.054 A 
ATOM     28  C   UNL     1       0.364  -2.858  25.191  0.00  0.00    +0.042 A 
ATOM     29  C   UNL     1       0.235  -1.662  25.858  0.00  0.00    +0.196 A 
ENDBRANCH  21  23
ENDBRANCH  19  11
ENDBRANCH  17  19
TORSDOF 10
ENDMDL
MODEL 3
REMARK VINA RESULT:      -0.3      1.992      3.608
REMARK  Name = 25390146
REMARK  10 active torsions:
REMARK  status: ('A' for Active; 'I' for Inactive)
REMARK    1  A    between atoms: O_5  and  C_14
REMARK    2  A    between atoms: O_6  and  C_15
REMARK    3  A    between atoms: O_10  and  C_32
REMARK    4  A    between atoms: O_10  and  C_33
REMARK    5  A    between atoms: N_11  and  C_19
REMARK    6  A    between atoms: C_16  and  C_18
REMARK    7  A    between atoms: C_17  and  C_19
REMARK    8  A    between atoms: C_18  and  C_20
REMARK    9  A    between atoms: C_21  and  C_23
REMARK   10  A    between atoms: C_22  and  C_24
REMARK                            x       y       z     vdW  Elec       q    Type
REMARK                         _______ _______ _______ _____ _____    ______ ____
ROOT
ATOM      4  O   UNL     1      -3.342  -0.585  26.027  0.00  0.00    -0.366 OA
ATOM     14  C   UNL     1      -3.229  -2.387  24.480  0.00  0.00    +0.175 C 
ATOM     15  C   UNL     1      -1.827  -1.975  24.875  0.00  0.00    +0.176 C 
ATOM     16  C   UNL     1      -4.050  -1.179  24.914  0.00  0.00    +0.159 C 
ATOM     17  C   UNL     1      -2.079  -1.254  26.188  0.00  0.00    +0.167 C 
ENDROOT
BRANCH  14   5
ATOM      5  O   UNL     1      -3.651  -3.510  25.253  0.00  0.00    -0.387 OA
ATOM     34  H   UNL     1      -4.465  -3.253  25.720  0.00  0.00    +0.210 HD
ENDBRANCH  14   5
BRANCH  15   6
ATOM      6  O   UNL     1      -0.946  -3.066  25.030  0.00  0.00    -0.387 OA
ATOM     35  H   UNL     1      -1.227  -3.559  25.820  0.00  0.00    +0.210 HD
ENDBRANCH  15   6
BRANCH  16  18
ATOM     18  C   UNL     1      -4.178  -0.121  23.826  0.00  0.00    +0.133 C 
BRANCH  18  20
ATOM      7  O   UNL     1      -2.844   1.787  23.102  0.00  0.00    -0.338 OA
ATOM     12  N   UNL     1      -1.659  -0.083  23.446  0.00  0.00    -0.191 NA
ATOM     13  N   UNL     1      -1.511   2.112  22.816  0.00  0.00    -0.056 NA
ATOM     20  C   UNL     1      -2.843   0.478  23.465  0.00  0.00    +0.230 A 
ATOM     22  C   UNL     1      -0.875   0.959  23.042  0.00  0.00    +0.202 A 
BRANCH  22  24
ATOM     24  C   UNL     1       0.541   0.814  22.874  0.00  0.00    +0.023 A 
ATOM     26  C   UNL     1       1.051  -0.228  22.098  0.00  0.00    +0.015 A 
ATOM     27  C   UNL     1       1.412   1.715  23.487  0.00  0.00    +0.015 A 
ATOM     30  C   UNL     1       2.428  -0.369  21.936  0.00  0.00    +0.046 A 
ATOM     31  C   UNL     1       2.790   1.575  23.325  0.00  0.00    +0.046 A 
ATOM     32  C   UNL     1       3.298   0.533  22.550  0.00  0.00    +0.130 A 
BRANCH  32  10
ATOM     10  O   UNL     1       4.643   0.396  22.392  0.00  0.00    -0.406 OA
BRANCH  10  33
ATOM      1  F   UNL     1       6.658  -0.376  23.056  0.00  0.00    -0.133 F 
ATOM      2  F   UNL     1       5.478   0.782  24.487  0.00  0.00    -0.133 F 
ATOM      3  F   UNL     1       4.871  -1.272  23.941  0.00  0.00    -0.133 F 
ATOM     33  C   UNL     1       5.400  -0.118  23.483  0.00  0.00    +0.575 C 
ENDBRANCH  10  33
ENDBRANCH  32  10
ENDBRANCH  22  24
ENDBRANCH  18  20
ENDBRANCH  16  18
BRANCH  17  19
ATOM     19  C   UNL     1      -1.004  -0.240  26.535  0.00  0.00    +0.138 C 
BRANCH  19  11
ATOM      8  O   UNL     1       0.514   2.172  26.887  0.00  0.00    -0.267 OA
ATOM     11  N   UNL     1      -1.364   1.072  26.084  0.00  0.00    -0.306 N 
ATOM     21  C   UNL     1      -0.564   2.190  26.299  0.00  0.00    +0.279 C 
ATOM     36  H   UNL     1      -2.243   1.184  25.586  0.00  0.00    +0.149 HD
BRANCH  21  23
ATOM      9  O   UNL     1      -2.386   3.792  26.063  0.00  0.00    -0.458 OA
ATOM     23  C   UNL     1      -1.092   3.483  25.791  0.00  0.00    +0.189 A 
ATOM     25  C   UNL     1      -0.498   4.486  25.060  0.00  0.00    +0.054 A 
ATOM     28  C   UNL     1      -1.493   5.477  24.872  0.00  0.00    +0.042 A 
ATOM     29  C   UNL     1      -2.622   5.007  25.501  0.00  0.00    +0.196 A 
ENDBRANCH  21  23
ENDBRANCH  19  11
ENDBRANCH  17  19
TORSDOF 10
ENDMDL
MODEL 4
REMARK VINA RESULT:       1.2      1.978      3.801
REMARK  Name = 25390146
REMARK  10 active torsions:
REMARK  status: ('A' for Active; 'I' for Inactive)
REMARK    1  A    between atoms: O_5  and  C_14
REMARK    2  A    between atoms: O_6  and  C_15
REMARK    3  A    between atoms: O_10  and  C_32
REMARK    4  A    between atoms: O_10  and  C_33
REMARK    5  A    between atoms: N_11  and  C_19
REMARK    6  A    between atoms: C_16  and  C_18
REMARK    7  A    between atoms: C_17  and  C_19
REMARK    8  A    between atoms: C_18  and  C_20
REMARK    9  A    between atoms: C_21  and  C_23
REMARK   10  A    between atoms: C_22  and  C_24
REMARK                            x       y       z     vdW  Elec       q    Type
REMARK                         _______ _______ _______ _____ _____    ______ ____
ROOT
ATOM      4  O   UNL     1      -3.285   4.204  25.263  0.00  0.00    -0.366 OA
ATOM     14  C   UNL     1      -5.633   3.909  25.020  0.00  0.00    +0.175 C 
ATOM     15  C   UNL     1      -5.033   2.669  25.649  0.00  0.00    +0.176 C 
ATOM     16  C   UNL     1      -4.404   4.594  24.433  0.00  0.00    +0.159 C 
ATOM     17  C   UNL     1      -3.727   3.211  26.206  0.00  0.00    +0.167 C 
ENDROOT
BRANCH  14   5
ATOM      5  O   UNL     1      -6.176   4.762  26.027  0.00  0.00    -0.387 OA
ATOM     34  H   UNL     1      -5.502   5.431  26.238  0.00  0.00    +0.210 HD
ENDBRANCH  14   5
BRANCH  15   6
ATOM      6  O   UNL     1      -5.844   2.104  26.657  0.00  0.00    -0.387 OA
ATOM     35  H   UNL     1      -5.697   2.615  27.471  0.00  0.00    +0.210 HD
ENDBRANCH  15   6
BRANCH  16  18
ATOM     18  C   UNL     1      -4.100   4.156  23.007  0.00  0.00    +0.133 C 
BRANCH  18  20
ATOM      7  O   UNL     1      -3.728   1.756  22.789  0.00  0.00    -0.338 OA
ATOM     12  N   UNL     1      -1.857   2.953  23.083  0.00  0.00    -0.191 NA
ATOM     13  N   UNL     1      -2.672   0.835  22.787  0.00  0.00    -0.056 NA
ATOM     20  C   UNL     1      -3.161   2.978  22.968  0.00  0.00    +0.230 A 
ATOM     22  C   UNL     1      -1.603   1.617  22.966  0.00  0.00    +0.202 A 
BRANCH  22  24
ATOM     24  C   UNL     1      -0.269   1.095  23.031  0.00  0.00    +0.023 A 
ATOM     26  C   UNL     1       0.694   1.732  23.815  0.00  0.00    +0.015 A 
ATOM     27  C   UNL     1       0.067  -0.051  22.310  0.00  0.00    +0.015 A 
ATOM     30  C   UNL     1       1.990   1.224  23.876  0.00  0.00    +0.046 A 
ATOM     31  C   UNL     1       1.364  -0.560  22.372  0.00  0.00    +0.046 A 
ATOM     32  C   UNL     1       2.326   0.079  23.155  0.00  0.00    +0.130 A 
BRANCH  32  10
ATOM     10  O   UNL     1       3.592  -0.417  23.215  0.00  0.00    -0.406 OA
BRANCH  10  33
ATOM      1  F   UNL     1       5.701  -0.046  22.499  0.00  0.00    -0.133 F 
ATOM      2  F   UNL     1       4.328   1.653  22.578  0.00  0.00    -0.133 F 
ATOM      3  F   UNL     1       5.117   0.766  24.443  0.00  0.00    -0.133 F 
ATOM     33  C   UNL     1       4.678   0.504  23.193  0.00  0.00    +0.575 C 
ENDBRANCH  10  33
ENDBRANCH  32  10
ENDBRANCH  22  24
ENDBRANCH  18  20
ENDBRANCH  16  18
BRANCH  17  19
ATOM     19  C   UNL     1      -2.654   2.148  26.369  0.00  0.00    +0.138 C 
BRANCH  19  11
ATOM      8  O   UNL     1      -1.121  -0.276  26.251  0.00  0.00    -0.267 OA
ATOM     11  N   UNL     1      -3.037   0.925  25.729  0.00  0.00    -0.306 N 
ATOM     21  C   UNL     1      -2.227  -0.208  25.721  0.00  0.00    +0.279 C 
ATOM     36  H   UNL     1      -3.938   0.888  25.263  0.00  0.00    +0.149 HD
BRANCH  21  23
ATOM      9  O   UNL     1      -4.065  -1.376  24.626  0.00  0.00    -0.458 OA
ATOM     23  C   UNL     1      -2.757  -1.390  24.992  0.00  0.00    +0.189 A 
ATOM     25  C   UNL     1      -2.154  -2.559  24.591  0.00  0.00    +0.054 A 
ATOM     28  C   UNL     1      -3.157  -3.313  23.934  0.00  0.00    +0.042 A 
ATOM     29  C   UNL     1      -4.300  -2.550  23.982  0.00  0.00    +0.196 A 
ENDBRANCH  21  23
ENDBRANCH  19  11
ENDBRANCH  17  19
TORSDOF 10
ENDMDL
MODEL 5
REMARK VINA RESULT:       2.1      2.146      3.828
REMARK  Name = 25390146
REMARK  10 active torsions:
REMARK  status: ('A' for Active; 'I' for Inactive)
REMARK    1  A    between atoms: O_5  and  C_14
REMARK    2  A    between atoms: O_6  and  C_15
REMARK    3  A    between atoms: O_10  and  C_32
REMARK    4  A    between atoms: O_10  and  C_33
REMARK    5  A    between atoms: N_11  and  C_19
REMARK    6  A    between atoms: C_16  and  C_18
REMARK    7  A    between atoms: C_17  and  C_19
REMARK    8  A    between atoms: C_18  and  C_20
REMARK    9  A    between atoms: C_21  and  C_23
REMARK   10  A    between atoms: C_22  and  C_24
REMARK                            x       y       z     vdW  Elec       q    Type
REMARK                         _______ _______ _______ _____ _____    ______ ____
ROOT
ATOM      4  O   UNL     1      -3.253   2.593  25.792  0.00  0.00    -0.366 OA
ATOM     14  C   UNL     1      -4.067   4.802  26.125  0.00  0.00    +0.175 C 
ATOM     15  C   UNL     1      -5.122   3.979  25.415  0.00  0.00    +0.176 C 
ATOM     16  C   UNL     1      -2.812   3.966  25.908  0.00  0.00    +0.159 C 
ATOM     17  C   UNL     1      -4.691   2.565  25.764  0.00  0.00    +0.167 C 
ENDROOT
BRANCH  14   5
ATOM      5  O   UNL     1      -4.333   4.846  27.526  0.00  0.00    -0.387 OA
ATOM     34  H   UNL     1      -4.483   5.777  27.765  0.00  0.00    +0.210 HD
ENDBRANCH  14   5
BRANCH  15   6
ATOM      6  O   UNL     1      -6.435   4.256  25.852  0.00  0.00    -0.387 OA
ATOM     35  H   UNL     1      -6.423   5.131  26.276  0.00  0.00    +0.210 HD
ENDBRANCH  15   6
BRANCH  16  18
ATOM     18  C   UNL     1      -2.068   4.325  24.629  0.00  0.00    +0.133 C 
BRANCH  18  20
ATOM      7  O   UNL     1      -1.976   2.198  23.440  0.00  0.00    -0.338 OA
ATOM     12  N   UNL     1       0.013   2.932  24.163  0.00  0.00    -0.191 NA
ATOM     13  N   UNL     1      -1.038   1.237  23.042  0.00  0.00    -0.056 NA
ATOM     20  C   UNL     1      -1.274   3.161  24.093  0.00  0.00    +0.230 A 
ATOM     22  C   UNL     1       0.110   1.741  23.505  0.00  0.00    +0.202 A 
BRANCH  22  24
ATOM     24  C   UNL     1       1.370   1.080  23.325  0.00  0.00    +0.023 A 
ATOM     26  C   UNL     1       1.441  -0.313  23.365  0.00  0.00    +0.015 A 
ATOM     27  C   UNL     1       2.526   1.830  23.112  0.00  0.00    +0.015 A 
ATOM     30  C   UNL     1       2.666  -0.955  23.192  0.00  0.00    +0.046 A 
ATOM     31  C   UNL     1       3.753   1.188  22.938  0.00  0.00    +0.046 A 
ATOM     32  C   UNL     1       3.822  -0.204  22.979  0.00  0.00    +0.130 A 
BRANCH  32  10
ATOM     10  O   UNL     1       5.019  -0.831  22.810  0.00  0.00    -0.406 OA
BRANCH  10  33
ATOM      1  F   UNL     1       5.930   0.886  23.958  0.00  0.00    -0.133 F 
ATOM      2  F   UNL     1       6.208  -1.137  24.741  0.00  0.00    -0.133 F 
ATOM      3  F   UNL     1       7.278  -0.486  22.919  0.00  0.00    -0.133 F 
ATOM     33  C   UNL     1       6.119  -0.407  23.608  0.00  0.00    +0.575 C 
ENDBRANCH  10  33
ENDBRANCH  32  10
ENDBRANCH  22  24
ENDBRANCH  18  20
ENDBRANCH  16  18
BRANCH  17  19
ATOM     19  C   UNL     1      -5.162   1.527  24.762  0.00  0.00    +0.138 C 
BRANCH  19  11
ATOM      8  O   UNL     1      -4.458  -0.713  26.414  0.00  0.00    -0.267 OA
ATOM     11  N   UNL     1      -4.140   0.558  24.499  0.00  0.00    -0.306 N 
ATOM     21  C   UNL     1      -3.864  -0.501  25.360  0.00  0.00    +0.279 C 
ATOM     36  H   UNL     1      -3.594   0.654  23.647  0.00  0.00    +0.149 HD
BRANCH  21  23
ATOM      9  O   UNL     1      -3.055  -2.465  24.163  0.00  0.00    -0.458 OA
ATOM     23  C   UNL     1      -2.755  -1.404  24.957  0.00  0.00    +0.189 A 
ATOM     25  C   UNL     1      -1.409  -1.379  25.242  0.00  0.00    +0.054 A 
ATOM     28  C   UNL     1      -0.846  -2.496  24.580  0.00  0.00    +0.042 A 
ATOM     29  C   UNL     1      -1.888  -3.124  23.937  0.00  0.00    +0.196 A 
ENDBRANCH  21  23
ENDBRANCH  19  11
ENDBRANCH  17  19
TORSDOF 10
ENDMDL
