MODEL 1
REMARK VINA RESULT:      -3.6      0.000      0.000
REMARK  Name = 75536839
REMARK  6 active torsions:
REMARK  status: ('A' for Active; 'I' for Inactive)
REMARK    1  A    between atoms: O_2  and  C_10
REMARK    2  A    between atoms: N_5  and  C_9
REMARK    3  A    between atoms: N_5  and  C_14
REMARK    4  A    between atoms: N_6  and  C_13
REMARK    5  A    between atoms: C_11  and  C_13
REMARK    6  A    between atoms: C_14  and  C_18
REMARK                            x       y       z     vdW  Elec       q    Type
REMARK                         _______ _______ _______ _____ _____    ______ ____
ROOT
ATOM      1  O   UNL     1       0.034   3.567  23.656  0.00  0.00    -0.371 OA
ATOM      9  C   UNL     1      -0.912   3.944  25.802  0.00  0.00    +0.111 C 
ATOM     10  C   UNL     1      -0.438   2.504  25.716  0.00  0.00    +0.164 C 
ATOM     11  C   UNL     1       0.563   2.593  24.572  0.00  0.00    +0.165 C 
ATOM     12  C   UNL     1      -0.983   4.325  24.332  0.00  0.00    +0.181 C 
ENDROOT
BRANCH  10   2
ATOM      2  O   UNL     1       0.168   2.056  26.913  0.00  0.00    -0.388 OA
ATOM     27  H   UNL     1      -0.149   2.614  27.643  0.00  0.00    +0.210 HD
ENDBRANCH  10   2
BRANCH   9   5
ATOM      5  N   UNL     1      -2.182   4.100  26.490  0.00  0.00    -0.305 NA
ATOM     25  H   UNL     1      -2.072   4.780  27.243  0.00  0.00    +0.123 HD
BRANCH   5  14
ATOM     14  C   UNL     1      -3.219   4.569  25.580  0.00  0.00    +0.116 C 
BRANCH  14  18
ATOM      8  N   UNL     1      -6.282   1.609  24.981  0.00  0.00    -0.263 NA
ATOM     18  C   UNL     1      -4.292   3.533  25.371  0.00  0.00    -0.031 A 
ATOM     21  C   UNL     1      -5.236   3.295  26.364  0.00  0.00    +0.024 A 
ATOM     22  C   UNL     1      -4.341   2.810  24.183  0.00  0.00    +0.024 A 
ATOM     23  C   UNL     1      -6.202   2.331  26.122  0.00  0.00    +0.111 A 
ATOM     24  C   UNL     1      -5.347   1.868  24.040  0.00  0.00    +0.111 A 
ENDBRANCH  14  18
ENDBRANCH   5  14
ENDBRANCH   9   5
BRANCH  11  13
ATOM     13  C   UNL     1       0.771   1.271  23.853  0.00  0.00    +0.140 C 
BRANCH  13   6
ATOM      3  O   UNL     1      -3.871  -3.061  24.784  0.00  0.00    -0.377 OA
ATOM      4  O   UNL     1      -1.927   1.151  23.063  0.00  0.00    -0.253 OA
ATOM      6  N   UNL     1      -0.189   0.279  24.281  0.00  0.00    -0.297 N 
ATOM      7  N   UNL     1      -2.322  -0.736  24.352  0.00  0.00    -0.281 N 
ATOM     15  C   UNL     1      -1.508   0.289  23.843  0.00  0.00    +0.302 C 
ATOM     16  C   UNL     1      -3.729  -0.798  23.950  0.00  0.00    +0.137 C 
ATOM     17  C   UNL     1      -1.947  -1.705  25.394  0.00  0.00    +0.137 C 
ATOM     19  C   UNL     1      -4.150  -2.230  23.657  0.00  0.00    +0.179 C 
ATOM     20  C   UNL     1      -2.469  -3.097  25.053  0.00  0.00    +0.179 C 
ATOM     26  H   UNL     1       0.150  -0.414  24.932  0.00  0.00    +0.150 HD
ENDBRANCH  13   6
ENDBRANCH  11  13
TORSDOF 6
ENDMDL
MODEL 2
REMARK VINA RESULT:      -3.4      1.931      4.337
REMARK  Name = 75536839
REMARK  6 active torsions:
REMARK  status: ('A' for Active; 'I' for Inactive)
REMARK    1  A    between atoms: O_2  and  C_10
REMARK    2  A    between atoms: N_5  and  C_9
REMARK    3  A    between atoms: N_5  and  C_14
REMARK    4  A    between atoms: N_6  and  C_13
REMARK    5  A    between atoms: C_11  and  C_13
REMARK    6  A    between atoms: C_14  and  C_18
REMARK                            x       y       z     vdW  Elec       q    Type
REMARK                         _______ _______ _______ _____ _____    ______ ____
ROOT
ATOM      1  O   UNL     1      -4.730   3.431  26.495  0.00  0.00    -0.371 OA
ATOM      9  C   UNL     1      -3.296   4.504  24.935  0.00  0.00    +0.111 C 
ATOM     10  C   UNL     1      -3.883   3.260  24.293  0.00  0.00    +0.164 C 
ATOM     11  C   UNL     1      -5.108   3.029  25.167  0.00  0.00    +0.165 C 
ATOM     12  C   UNL     1      -3.532   4.222  26.409  0.00  0.00    +0.181 C 
ENDROOT
BRANCH  10   2
ATOM      2  O   UNL     1      -4.232   3.458  22.936  0.00  0.00    -0.388 OA
ATOM     27  H   UNL     1      -4.724   2.677  22.631  0.00  0.00    +0.210 HD
ENDBRANCH  10   2
BRANCH   9   5
ATOM      5  N   UNL     1      -1.895   4.720  24.616  0.00  0.00    -0.305 NA
ATOM     25  H   UNL     1      -1.651   5.689  24.825  0.00  0.00    +0.123 HD
BRANCH   5  14
ATOM     14  C   UNL     1      -1.037   3.839  25.398  0.00  0.00    +0.116 C 
BRANCH  14  18
ATOM      8  N   UNL     1       0.269   0.434  23.118  0.00  0.00    -0.263 NA
ATOM     18  C   UNL     1      -0.580   2.647  24.599  0.00  0.00    -0.031 A 
ATOM     21  C   UNL     1      -1.498   1.906  23.864  0.00  0.00    +0.024 A 
ATOM     22  C   UNL     1       0.762   2.283  24.595  0.00  0.00    +0.024 A 
ATOM     23  C   UNL     1      -1.027   0.818  23.146  0.00  0.00    +0.111 A 
ATOM     24  C   UNL     1       1.132   1.179  23.844  0.00  0.00    +0.111 A 
ENDBRANCH  14  18
ENDBRANCH   5  14
ENDBRANCH   9   5
BRANCH  11  13
ATOM     13  C   UNL     1      -5.572   1.583  25.181  0.00  0.00    +0.140 C 
BRANCH  13   6
ATOM      3  O   UNL     1      -0.713  -2.610  25.290  0.00  0.00    -0.377 OA
ATOM      4  O   UNL     1      -5.115  -0.860  23.860  0.00  0.00    -0.253 OA
ATOM      6  N   UNL     1      -4.474   0.678  25.437  0.00  0.00    -0.297 N 
ATOM      7  N   UNL     1      -3.205  -1.289  25.105  0.00  0.00    -0.281 N 
ATOM     15  C   UNL     1      -4.318  -0.514  24.738  0.00  0.00    +0.302 C 
ATOM     16  C   UNL     1      -2.968  -2.564  24.425  0.00  0.00    +0.137 C 
ATOM     17  C   UNL     1      -2.300  -1.027  26.234  0.00  0.00    +0.137 C 
ATOM     19  C   UNL     1      -1.493  -2.744  24.102  0.00  0.00    +0.179 C 
ATOM     20  C   UNL     1      -0.851  -1.299  25.841  0.00  0.00    +0.179 C 
ATOM     26  H   UNL     1      -3.833   0.954  26.167  0.00  0.00    +0.150 HD
ENDBRANCH  13   6
ENDBRANCH  11  13
TORSDOF 6
ENDMDL
MODEL 3
REMARK VINA RESULT:      -3.3      1.664      4.985
REMARK  Name = 75536839
REMARK  6 active torsions:
REMARK  status: ('A' for Active; 'I' for Inactive)
REMARK    1  A    between atoms: O_2  and  C_10
REMARK    2  A    between atoms: N_5  and  C_9
REMARK    3  A    between atoms: N_5  and  C_14
REMARK    4  A    between atoms: N_6  and  C_13
REMARK    5  A    between atoms: C_11  and  C_13
REMARK    6  A    between atoms: C_14  and  C_18
REMARK                            x       y       z     vdW  Elec       q    Type
REMARK                         _______ _______ _______ _____ _____    ______ ____
ROOT
ATOM      1  O   UNL     1      -2.157  -2.847  25.313  0.00  0.00    -0.371 OA
ATOM      9  C   UNL     1      -3.768  -1.659  24.034  0.00  0.00    +0.111 C 
ATOM     10  C   UNL     1      -2.478  -0.860  24.070  0.00  0.00    +0.164 C 
ATOM     11  C   UNL     1      -1.472  -1.945  24.428  0.00  0.00    +0.165 C 
ATOM     12  C   UNL     1      -3.571  -2.603  25.209  0.00  0.00    +0.181 C 
ENDROOT
BRANCH  10   2
ATOM      2  O   UNL     1      -2.178  -0.251  22.829  0.00  0.00    -0.388 OA
ATOM     27  H   UNL     1      -2.957  -0.331  22.254  0.00  0.00    +0.210 HD
ENDBRANCH  10   2
BRANCH   9   5
ATOM      5  N   UNL     1      -4.965  -0.842  24.158  0.00  0.00    -0.305 NA
ATOM     25  H   UNL     1      -5.783  -1.452  24.181  0.00  0.00    +0.123 HD
BRANCH   5  14
ATOM     14  C   UNL     1      -4.934  -0.048  25.379  0.00  0.00    +0.116 C 
BRANCH  14  18
ATOM      8  N   UNL     1      -4.716   4.166  24.545  0.00  0.00    -0.263 NA
ATOM     18  C   UNL     1      -4.858   1.427  25.086  0.00  0.00    -0.031 A 
ATOM     21  C   UNL     1      -4.065   1.892  24.043  0.00  0.00    +0.024 A 
ATOM     22  C   UNL     1      -5.580   2.330  25.860  0.00  0.00    +0.024 A 
ATOM     23  C   UNL     1      -4.029   3.259  23.815  0.00  0.00    +0.111 A 
ATOM     24  C   UNL     1      -5.475   3.677  25.550  0.00  0.00    +0.111 A 
ENDBRANCH  14  18
ENDBRANCH   5  14
ENDBRANCH   9   5
BRANCH  11  13
ATOM     13  C   UNL     1      -0.225  -1.406  25.109  0.00  0.00    +0.140 C 
BRANCH  13   6
ATOM      3  O   UNL     1      -0.972   4.965  25.341  0.00  0.00    -0.377 OA
ATOM      4  O   UNL     1       0.561   0.682  23.393  0.00  0.00    -0.253 OA
ATOM      6  N   UNL     1      -0.345   0.007  25.390  0.00  0.00    -0.297 N 
ATOM      7  N   UNL     1      -0.108   2.308  24.906  0.00  0.00    -0.281 N 
ATOM     15  C   UNL     1       0.068   0.979  24.487  0.00  0.00    +0.302 C 
ATOM     16  C   UNL     1       0.306   3.398  24.019  0.00  0.00    +0.137 C 
ATOM     17  C   UNL     1      -0.543   2.746  26.241  0.00  0.00    +0.137 C 
ATOM     19  C   UNL     1      -0.726   4.515  24.009  0.00  0.00    +0.179 C 
ATOM     20  C   UNL     1      -1.521   3.913  26.137  0.00  0.00    +0.179 C 
ATOM     26  H   UNL     1      -0.732   0.248  26.291  0.00  0.00    +0.150 HD
ENDBRANCH  13   6
ENDBRANCH  11  13
TORSDOF 6
ENDMDL
MODEL 4
REMARK VINA RESULT:      -3.3      1.936      5.626
REMARK  Name = 75536839
REMARK  6 active torsions:
REMARK  status: ('A' for Active; 'I' for Inactive)
REMARK    1  A    between atoms: O_2  and  C_10
REMARK    2  A    between atoms: N_5  and  C_9
REMARK    3  A    between atoms: N_5  and  C_14
REMARK    4  A    between atoms: N_6  and  C_13
REMARK    5  A    between atoms: C_11  and  C_13
REMARK    6  A    between atoms: C_14  and  C_18
REMARK                            x       y       z     vdW  Elec       q    Type
REMARK                         _______ _______ _______ _____ _____    ______ ____
ROOT
ATOM      1  O   UNL     1      -2.654  -2.984  23.607  0.00  0.00    -0.371 OA
ATOM      9  C   UNL     1      -1.160  -2.154  25.256  0.00  0.00    +0.111 C 
ATOM     10  C   UNL     1      -2.485  -1.423  25.376  0.00  0.00    +0.164 C 
ATOM     11  C   UNL     1      -3.420  -2.395  24.671  0.00  0.00    +0.165 C 
ATOM     12  C   UNL     1      -1.260  -2.731  23.854  0.00  0.00    +0.181 C 
ENDROOT
BRANCH  10   2
ATOM      2  O   UNL     1      -2.867  -1.202  26.720  0.00  0.00    -0.388 OA
ATOM     27  H   UNL     1      -2.084  -0.915  27.217  0.00  0.00    +0.210 HD
ENDBRANCH  10   2
BRANCH   9   5
ATOM      5  N   UNL     1      -0.001  -1.294  25.434  0.00  0.00    -0.305 NA
ATOM     25  H   UNL     1       0.834  -1.875  25.523  0.00  0.00    +0.123 HD
BRANCH   5  14
ATOM     14  C   UNL     1       0.168  -0.398  24.297  0.00  0.00    +0.116 C 
BRANCH  14  18
ATOM      8  N   UNL     1      -0.521   3.707  25.381  0.00  0.00    -0.263 NA
ATOM     18  C   UNL     1      -0.074   1.039  24.676  0.00  0.00    -0.031 A 
ATOM     21  C   UNL     1       0.158   2.053  23.753  0.00  0.00    +0.024 A 
ATOM     22  C   UNL     1      -0.528   1.357  25.951  0.00  0.00    +0.024 A 
ATOM     23  C   UNL     1      -0.079   3.359  24.151  0.00  0.00    +0.111 A 
ATOM     24  C   UNL     1      -0.734   2.694  26.250  0.00  0.00    +0.111 A 
ENDBRANCH  14  18
ENDBRANCH   5  14
ENDBRANCH   9   5
BRANCH  11  13
ATOM     13  C   UNL     1      -4.662  -1.729  24.103  0.00  0.00    +0.140 C 
BRANCH  13   6
ATOM      3  O   UNL     1      -5.141   4.567  25.253  0.00  0.00    -0.377 OA
ATOM      4  O   UNL     1      -3.246   0.509  23.149  0.00  0.00    -0.253 OA
ATOM      6  N   UNL     1      -4.802  -0.374  24.586  0.00  0.00    -0.297 N 
ATOM      7  N   UNL     1      -4.308   1.937  24.637  0.00  0.00    -0.281 N 
ATOM     15  C   UNL     1      -4.064   0.680  24.060  0.00  0.00    +0.302 C 
ATOM     16  C   UNL     1      -3.568   3.103  24.149  0.00  0.00    +0.137 C 
ATOM     17  C   UNL     1      -5.145   2.201  25.817  0.00  0.00    +0.137 C 
ATOM     19  C   UNL     1      -4.482   4.311  24.012  0.00  0.00    +0.179 C 
ATOM     20  C   UNL     1      -5.975   3.467  25.620  0.00  0.00    +0.179 C 
ATOM     26  H   UNL     1      -5.458  -0.239  25.342  0.00  0.00    +0.150 HD
ENDBRANCH  13   6
ENDBRANCH  11  13
TORSDOF 6
ENDMDL
MODEL 5
REMARK VINA RESULT:      -3.1      1.951      4.154
REMARK  Name = 75536839
REMARK  6 active torsions:
REMARK  status: ('A' for Active; 'I' for Inactive)
REMARK    1  A    between atoms: O_2  and  C_10
REMARK    2  A    between atoms: N_5  and  C_9
REMARK    3  A    between atoms: N_5  and  C_14
REMARK    4  A    between atoms: N_6  and  C_13
REMARK    5  A    between atoms: C_11  and  C_13
REMARK    6  A    between atoms: C_14  and  C_18
REMARK                            x       y       z     vdW  Elec       q    Type
REMARK                         _______ _______ _______ _____ _____    ______ ____
ROOT
ATOM      1  O   UNL     1      -3.032   4.286  23.650  0.00  0.00    -0.371 OA
ATOM      9  C   UNL     1      -4.608   3.300  25.128  0.00  0.00    +0.111 C 
ATOM     10  C   UNL     1      -3.348   3.640  25.904  0.00  0.00    +0.164 C 
ATOM     11  C   UNL     1      -2.719   4.687  24.995  0.00  0.00    +0.165 C 
ATOM     12  C   UNL     1      -4.096   3.319  23.698  0.00  0.00    +0.181 C 
ENDROOT
BRANCH  10   2
ATOM      2  O   UNL     1      -3.622   4.156  27.192  0.00  0.00    -0.388 OA
ATOM     27  H   UNL     1      -3.292   3.524  27.851  0.00  0.00    +0.210 HD
ENDBRANCH  10   2
BRANCH   9   5
ATOM      5  N   UNL     1      -5.197   2.025  25.502  0.00  0.00    -0.305 NA
ATOM     25  H   UNL     1      -6.160   2.178  25.805  0.00  0.00    +0.123 HD
BRANCH   5  14
ATOM     14  C   UNL     1      -5.199   1.097  24.378  0.00  0.00    +0.116 C 
BRANCH  14  18
ATOM      8  N   UNL     1      -3.199  -2.587  25.341  0.00  0.00    -0.263 NA
ATOM     18  C   UNL     1      -4.498  -0.192  24.715  0.00  0.00    -0.031 A 
ATOM     21  C   UNL     1      -4.462  -1.229  23.789  0.00  0.00    +0.024 A 
ATOM     22  C   UNL     1      -3.886  -0.351  25.953  0.00  0.00    +0.024 A 
ATOM     23  C   UNL     1      -3.806  -2.396  24.148  0.00  0.00    +0.111 A 
ATOM     24  C   UNL     1      -3.255  -1.556  26.215  0.00  0.00    +0.111 A 
ENDBRANCH  14  18
ENDBRANCH   5  14
ENDBRANCH   9   5
BRANCH  11  13
ATOM     13  C   UNL     1      -1.213   4.798  25.160  0.00  0.00    +0.140 C 
BRANCH  13   6
ATOM      3  O   UNL     1       0.871  -0.977  23.288  0.00  0.00    -0.377 OA
ATOM      4  O   UNL     1      -1.559   2.205  26.197  0.00  0.00    -0.253 OA
ATOM      6  N   UNL     1      -0.541   3.606  24.693  0.00  0.00    -0.297 N 
ATOM      7  N   UNL     1      -0.035   1.298  24.701  0.00  0.00    -0.281 N 
ATOM     15  C   UNL     1      -0.768   2.358  25.260  0.00  0.00    +0.302 C 
ATOM     16  C   UNL     1      -0.207  -0.053  25.243  0.00  0.00    +0.137 C 
ATOM     17  C   UNL     1       1.031   1.415  23.695  0.00  0.00    +0.137 C 
ATOM     19  C   UNL     1      -0.281  -1.083  24.127  0.00  0.00    +0.179 C 
ATOM     20  C   UNL     1       0.921   0.303  22.657  0.00  0.00    +0.179 C 
ATOM     26  H   UNL     1       0.119   3.736  23.939  0.00  0.00    +0.150 HD
ENDBRANCH  13   6
ENDBRANCH  11  13
TORSDOF 6
ENDMDL
MODEL 6
REMARK VINA RESULT:      -3.0      1.727      4.592
REMARK  Name = 75536839
REMARK  6 active torsions:
REMARK  status: ('A' for Active; 'I' for Inactive)
REMARK    1  A    between atoms: O_2  and  C_10
REMARK    2  A    between atoms: N_5  and  C_9
REMARK    3  A    between atoms: N_5  and  C_14
REMARK    4  A    between atoms: N_6  and  C_13
REMARK    5  A    between atoms: C_11  and  C_13
REMARK    6  A    between atoms: C_14  and  C_18
REMARK                            x       y       z     vdW  Elec       q    Type
REMARK                         _______ _______ _______ _____ _____    ______ ____
ROOT
ATOM      1  O   UNL     1      -0.661   2.932  26.532  0.00  0.00    -0.371 OA
ATOM      9  C   UNL     1       0.255   1.568  24.817  0.00  0.00    +0.111 C 
ATOM     10  C   UNL     1      -0.390   2.788  24.186  0.00  0.00    +0.164 C 
ATOM     11  C   UNL     1      -0.426   3.745  25.370  0.00  0.00    +0.165 C 
ATOM     12  C   UNL     1      -0.393   1.561  26.192  0.00  0.00    +0.181 C 
ENDROOT
BRANCH  10   2
ATOM      2  O   UNL     1       0.364   3.310  23.109  0.00  0.00    -0.388 OA
ATOM     27  H   UNL     1       0.057   2.888  22.290  0.00  0.00    +0.210 HD
ENDBRANCH  10   2
BRANCH   9   5
ATOM      5  N   UNL     1       0.027   0.338  24.076  0.00  0.00    -0.305 NA
ATOM     25  H   UNL     1       0.897   0.055  23.624  0.00  0.00    +0.123 HD
BRANCH   5  14
ATOM     14  C   UNL     1      -0.415  -0.733  24.960  0.00  0.00    +0.116 C 
BRANCH  14  18
ATOM      8  N   UNL     1      -4.346  -2.139  23.928  0.00  0.00    -0.263 NA
ATOM     18  C   UNL     1      -1.791  -1.226  24.599  0.00  0.00    -0.031 A 
ATOM     21  C   UNL     1      -2.070  -2.588  24.608  0.00  0.00    +0.024 A 
ATOM     22  C   UNL     1      -2.788  -0.320  24.255  0.00  0.00    +0.024 A 
ATOM     23  C   UNL     1      -3.352  -2.990  24.268  0.00  0.00    +0.111 A 
ATOM     24  C   UNL     1      -4.038  -0.823  23.930  0.00  0.00    +0.111 A 
ENDBRANCH  14  18
ENDBRANCH   5  14
ENDBRANCH   9   5
BRANCH  11  13
ATOM     13  C   UNL     1      -1.510   4.803  25.255  0.00  0.00    +0.140 C 
BRANCH  13   6
ATOM      3  O   UNL     1      -7.026   1.612  26.025  0.00  0.00    -0.377 OA
ATOM      4  O   UNL     1      -3.183   3.405  23.475  0.00  0.00    -0.253 OA
ATOM      6  N   UNL     1      -2.813   4.260  25.571  0.00  0.00    -0.297 N 
ATOM      7  N   UNL     1      -4.824   3.118  25.089  0.00  0.00    -0.281 N 
ATOM     15  C   UNL     1      -3.579   3.580  24.632  0.00  0.00    +0.302 C 
ATOM     16  C   UNL     1      -5.702   2.397  24.163  0.00  0.00    +0.137 C 
ATOM     17  C   UNL     1      -5.433   3.413  26.395  0.00  0.00    +0.137 C 
ATOM     19  C   UNL     1      -6.342   1.196  24.843  0.00  0.00    +0.179 C 
ATOM     20  C   UNL     1      -6.111   2.173  26.969  0.00  0.00    +0.179 C 
ATOM     26  H   UNL     1      -3.142   4.420  26.512  0.00  0.00    +0.150 HD
ENDBRANCH  13   6
ENDBRANCH  11  13
TORSDOF 6
ENDMDL
MODEL 7
REMARK VINA RESULT:      -2.7      2.416      5.075
REMARK  Name = 75536839
REMARK  6 active torsions:
REMARK  status: ('A' for Active; 'I' for Inactive)
REMARK    1  A    between atoms: O_2  and  C_10
REMARK    2  A    between atoms: N_5  and  C_9
REMARK    3  A    between atoms: N_5  and  C_14
REMARK    4  A    between atoms: N_6  and  C_13
REMARK    5  A    between atoms: C_11  and  C_13
REMARK    6  A    between atoms: C_14  and  C_18
REMARK                            x       y       z     vdW  Elec       q    Type
REMARK                         _______ _______ _______ _____ _____    ______ ____
ROOT
ATOM      1  O   UNL     1      -2.585  -2.090  23.977  0.00  0.00    -0.371 OA
ATOM      9  C   UNL     1      -3.698  -0.074  24.559  0.00  0.00    +0.111 C 
ATOM     10  C   UNL     1      -2.395  -0.161  25.333  0.00  0.00    +0.164 C 
ATOM     11  C   UNL     1      -1.616  -1.157  24.484  0.00  0.00    +0.165 C 
ATOM     12  C   UNL     1      -3.896  -1.521  24.140  0.00  0.00    +0.181 C 
ENDROOT
BRANCH  10   2
ATOM      2  O   UNL     1      -1.731   1.085  25.427  0.00  0.00    -0.388 OA
ATOM     27  H   UNL     1      -1.734   1.499  24.548  0.00  0.00    +0.210 HD
ENDBRANCH  10   2
BRANCH   9   5
ATOM      5  N   UNL     1      -4.807   0.446  25.342  0.00  0.00    -0.305 NA
ATOM     25  H   UNL     1      -4.496   0.596  26.302  0.00  0.00    +0.123 HD
BRANCH   5  14
ATOM     14  C   UNL     1      -5.285   1.711  24.798  0.00  0.00    +0.116 C 
BRANCH  14  18
ATOM      8  N   UNL     1      -2.361   4.838  25.214  0.00  0.00    -0.263 NA
ATOM     18  C   UNL     1      -4.262   2.806  24.943  0.00  0.00    -0.031 A 
ATOM     21  C   UNL     1      -3.558   3.256  23.832  0.00  0.00    +0.024 A 
ATOM     22  C   UNL     1      -4.016   3.370  26.191  0.00  0.00    +0.024 A 
ATOM     23  C   UNL     1      -2.626   4.265  24.018  0.00  0.00    +0.111 A 
ATOM     24  C   UNL     1      -3.064   4.374  26.271  0.00  0.00    +0.111 A 
ENDBRANCH  14  18
ENDBRANCH   5  14
ENDBRANCH   9   5
BRANCH  11  13
ATOM     13  C   UNL     1      -0.545  -1.901  25.263  0.00  0.00    +0.140 C 
BRANCH  13   6
ATOM      3  O   UNL     1       5.024   0.174  22.837  0.00  0.00    -0.377 OA
ATOM      4  O   UNL     1       0.104   0.064  23.355  0.00  0.00    -0.253 OA
ATOM      6  N   UNL     1       0.771  -1.660  24.713  0.00  0.00    -0.297 N 
ATOM      7  N   UNL     1       2.338  -0.559  23.329  0.00  0.00    -0.281 N 
ATOM     15  C   UNL     1       1.009  -0.666  23.772  0.00  0.00    +0.302 C 
ATOM     16  C   UNL     1       2.678   0.457  22.330  0.00  0.00    +0.137 C 
ATOM     17  C   UNL     1       3.438  -1.479  23.656  0.00  0.00    +0.137 C 
ATOM     19  C   UNL     1       3.989   1.145  22.678  0.00  0.00    +0.179 C 
ATOM     20  C   UNL     1       4.728  -0.708  23.921  0.00  0.00    +0.179 C 
ATOM     26  H   UNL     1       1.506  -2.270  25.042  0.00  0.00    +0.150 HD
ENDBRANCH  13   6
ENDBRANCH  11  13
TORSDOF 6
ENDMDL
MODEL 8
REMARK VINA RESULT:      -2.5      2.035      4.642
REMARK  Name = 75536839
REMARK  6 active torsions:
REMARK  status: ('A' for Active; 'I' for Inactive)
REMARK    1  A    between atoms: O_2  and  C_10
REMARK    2  A    between atoms: N_5  and  C_9
REMARK    3  A    between atoms: N_5  and  C_14
REMARK    4  A    between atoms: N_6  and  C_13
REMARK    5  A    between atoms: C_11  and  C_13
REMARK    6  A    between atoms: C_14  and  C_18
REMARK                            x       y       z     vdW  Elec       q    Type
REMARK                         _______ _______ _______ _____ _____    ______ ____
ROOT
ATOM      1  O   UNL     1      -6.185   1.836  25.947  0.00  0.00    -0.371 OA
ATOM      9  C   UNL     1      -5.047   3.804  25.260  0.00  0.00    +0.111 C 
ATOM     10  C   UNL     1      -4.541   2.629  24.443  0.00  0.00    +0.164 C 
ATOM     11  C   UNL     1      -5.686   1.640  24.614  0.00  0.00    +0.165 C 
ATOM     12  C   UNL     1      -5.694   3.095  26.439  0.00  0.00    +0.181 C 
ENDROOT
BRANCH  10   2
ATOM      2  O   UNL     1      -4.329   2.960  23.084  0.00  0.00    -0.388 OA
ATOM     27  H   UNL     1      -3.491   2.558  22.800  0.00  0.00    +0.210 HD
ENDBRANCH  10   2
BRANCH   9   5
ATOM      5  N   UNL     1      -4.000   4.730  25.661  0.00  0.00    -0.305 NA
ATOM     25  H   UNL     1      -4.427   5.541  26.111  0.00  0.00    +0.123 HD
BRANCH   5  14
ATOM     14  C   UNL     1      -3.076   4.104  26.597  0.00  0.00    +0.116 C 
BRANCH  14  18
ATOM      8  N   UNL     1       0.587   2.918  24.680  0.00  0.00    -0.263 NA
ATOM     18  C   UNL     1      -1.793   3.690  25.926  0.00  0.00    -0.031 A 
ATOM     21  C   UNL     1      -1.396   4.300  24.742  0.00  0.00    +0.024 A 
ATOM     22  C   UNL     1      -1.002   2.693  26.488  0.00  0.00    +0.024 A 
ATOM     23  C   UNL     1      -0.207   3.882  24.163  0.00  0.00    +0.111 A 
ATOM     24  C   UNL     1       0.168   2.348  25.832  0.00  0.00    +0.111 A 
ENDBRANCH  14  18
ENDBRANCH   5  14
ENDBRANCH   9   5
BRANCH  11  13
ATOM     13  C   UNL     1      -5.260   0.193  24.433  0.00  0.00    +0.140 C 
BRANCH  13   6
ATOM      3  O   UNL     1       0.982  -1.286  24.220  0.00  0.00    -0.377 OA
ATOM      4  O   UNL     1      -3.554  -1.187  26.196  0.00  0.00    -0.253 OA
ATOM      6  N   UNL     1      -3.825   0.076  24.300  0.00  0.00    -0.297 N 
ATOM      7  N   UNL     1      -1.672  -0.643  24.954  0.00  0.00    -0.281 N 
ATOM     15  C   UNL     1      -3.051  -0.625  25.216  0.00  0.00    +0.302 C 
ATOM     16  C   UNL     1      -0.779  -1.354  25.873  0.00  0.00    +0.137 C 
ATOM     17  C   UNL     1      -0.978   0.119  23.905  0.00  0.00    +0.137 C 
ATOM     19  C   UNL     1       0.270  -2.147  25.110  0.00  0.00    +0.179 C 
ATOM     20  C   UNL     1       0.102  -0.730  23.241  0.00  0.00    +0.179 C 
ATOM     26  H   UNL     1      -3.414   0.551  23.509  0.00  0.00    +0.150 HD
ENDBRANCH  13   6
ENDBRANCH  11  13
TORSDOF 6
ENDMDL
MODEL 9
REMARK VINA RESULT:      -2.5      2.032      4.972
REMARK  Name = 75536839
REMARK  6 active torsions:
REMARK  status: ('A' for Active; 'I' for Inactive)
REMARK    1  A    between atoms: O_2  and  C_10
REMARK    2  A    between atoms: N_5  and  C_9
REMARK    3  A    between atoms: N_5  and  C_14
REMARK    4  A    between atoms: N_6  and  C_13
REMARK    5  A    between atoms: C_11  and  C_13
REMARK    6  A    between atoms: C_14  and  C_18
REMARK                            x       y       z     vdW  Elec       q    Type
REMARK                         _______ _______ _______ _____ _____    ______ ____
ROOT
ATOM      1  O   UNL     1      -3.606  -1.192  26.280  0.00  0.00    -0.371 OA
ATOM      9  C   UNL     1      -4.590   0.256  24.674  0.00  0.00    +0.111 C 
ATOM     10  C   UNL     1      -3.580  -0.640  23.980  0.00  0.00    +0.164 C 
ATOM     11  C   UNL     1      -3.469  -1.784  24.977  0.00  0.00    +0.165 C 
ATOM     12  C   UNL     1      -4.159   0.127  26.126  0.00  0.00    +0.181 C 
ENDROOT
BRANCH  10   2
ATOM      2  O   UNL     1      -4.025  -1.085  22.713  0.00  0.00    -0.388 OA
ATOM     27  H   UNL     1      -3.563  -0.571  22.030  0.00  0.00    +0.210 HD
ENDBRANCH  10   2
BRANCH   9   5
ATOM      5  N   UNL     1      -4.577   1.629  24.199  0.00  0.00    -0.305 NA
ATOM     25  H   UNL     1      -5.491   1.854  23.804  0.00  0.00    +0.123 HD
BRANCH   5  14
ATOM     14  C   UNL     1      -4.291   2.558  25.285  0.00  0.00    +0.116 C 
BRANCH  14  18
ATOM      8  N   UNL     1      -0.563   4.619  24.686  0.00  0.00    -0.263 NA
ATOM     18  C   UNL     1      -2.986   3.280  25.076  0.00  0.00    -0.031 A 
ATOM     21  C   UNL     1      -2.825   4.581  25.540  0.00  0.00    +0.024 A 
ATOM     22  C   UNL     1      -1.937   2.648  24.417  0.00  0.00    +0.024 A 
ATOM     23  C   UNL     1      -1.605   5.201  25.321  0.00  0.00    +0.111 A 
ATOM     24  C   UNL     1      -0.757   3.355  24.249  0.00  0.00    +0.111 A 
ENDBRANCH  14  18
ENDBRANCH   5  14
ENDBRANCH   9   5
BRANCH  11  13
ATOM     13  C   UNL     1      -2.149  -2.532  24.889  0.00  0.00    +0.140 C 
BRANCH  13   6
ATOM      3  O   UNL     1       2.607   0.560  21.886  0.00  0.00    -0.377 OA
ATOM      4  O   UNL     1      -0.495  -0.378  25.626  0.00  0.00    -0.253 OA
ATOM      6  N   UNL     1      -1.214  -1.852  24.022  0.00  0.00    -0.297 N 
ATOM      7  N   UNL     1       0.426  -0.231  23.502  0.00  0.00    -0.281 N 
ATOM     15  C   UNL     1      -0.430  -0.793  24.464  0.00  0.00    +0.302 C 
ATOM     16  C   UNL     1       1.284   0.895  23.880  0.00  0.00    +0.137 C 
ATOM     17  C   UNL     1       0.456  -0.561  22.069  0.00  0.00    +0.137 C 
ATOM     19  C   UNL     1       2.681   0.734  23.301  0.00  0.00    +0.179 C 
ATOM     20  C   UNL     1       1.892  -0.634  21.560  0.00  0.00    +0.179 C 
ATOM     26  H   UNL     1      -1.175  -2.180  23.068  0.00  0.00    +0.150 HD
ENDBRANCH  13   6
ENDBRANCH  11  13
TORSDOF 6
ENDMDL
MODEL 10
REMARK VINA RESULT:      -2.5      3.037      5.456
REMARK  Name = 75536839
REMARK  6 active torsions:
REMARK  status: ('A' for Active; 'I' for Inactive)
REMARK    1  A    between atoms: O_2  and  C_10
REMARK    2  A    between atoms: N_5  and  C_9
REMARK    3  A    between atoms: N_5  and  C_14
REMARK    4  A    between atoms: N_6  and  C_13
REMARK    5  A    between atoms: C_11  and  C_13
REMARK    6  A    between atoms: C_14  and  C_18
REMARK                            x       y       z     vdW  Elec       q    Type
REMARK                         _______ _______ _______ _____ _____    ______ ____
ROOT
ATOM      1  O   UNL     1      -0.601   0.193  25.416  0.00  0.00    -0.371 OA
ATOM      9  C   UNL     1      -2.618  -1.010  25.768  0.00  0.00    +0.111 C 
ATOM     10  C   UNL     1      -2.099  -1.312  24.374  0.00  0.00    +0.164 C 
ATOM     11  C   UNL     1      -0.632  -0.929  24.519  0.00  0.00    +0.165 C 
ATOM     12  C   UNL     1      -1.863   0.267  26.101  0.00  0.00    +0.181 C 
ENDROOT
BRANCH  10   2
ATOM      2  O   UNL     1      -2.256  -2.671  24.015  0.00  0.00    -0.388 OA
ATOM     27  H   UNL     1      -1.521  -3.176  24.400  0.00  0.00    +0.210 HD
ENDBRANCH  10   2
BRANCH   9   5
ATOM      5  N   UNL     1      -4.061  -0.847  25.830  0.00  0.00    -0.305 NA
ATOM     25  H   UNL     1      -4.296  -0.257  26.629  0.00  0.00    +0.123 HD
BRANCH   5  14
ATOM     14  C   UNL     1      -4.573  -0.223  24.617  0.00  0.00    +0.116 C 
BRANCH  14  18
ATOM      8  N   UNL     1      -4.726   4.062  24.965  0.00  0.00    -0.263 NA
ATOM     18  C   UNL     1      -4.626   1.277  24.738  0.00  0.00    -0.031 A 
ATOM     21  C   UNL     1      -3.770   2.070  23.982  0.00  0.00    +0.024 A 
ATOM     22  C   UNL     1      -5.532   1.875  25.609  0.00  0.00    +0.024 A 
ATOM     23  C   UNL     1      -3.859   3.445  24.130  0.00  0.00    +0.111 A 
ATOM     24  C   UNL     1      -5.541   3.258  25.684  0.00  0.00    +0.111 A 
ENDBRANCH  14  18
ENDBRANCH   5  14
ENDBRANCH   9   5
BRANCH  11  13
ATOM     13  C   UNL     1       0.024  -0.553  23.202  0.00  0.00    +0.140 C 
BRANCH  13   6
ATOM      3  O   UNL     1       6.403  -0.470  23.906  0.00  0.00    -0.377 OA
ATOM      4  O   UNL     1       1.957   1.475  22.934  0.00  0.00    -0.253 OA
ATOM      6  N   UNL     1       1.456  -0.742  23.251  0.00  0.00    -0.297 N 
ATOM      7  N   UNL     1       3.708  -0.028  23.174  0.00  0.00    -0.281 N 
ATOM     15  C   UNL     1       2.347   0.315  23.110  0.00  0.00    +0.302 C 
ATOM     16  C   UNL     1       4.718   1.023  23.028  0.00  0.00    +0.137 C 
ATOM     17  C   UNL     1       4.256  -1.392  23.228  0.00  0.00    +0.137 C 
ATOM     19  C   UNL     1       5.845   0.839  24.031  0.00  0.00    +0.179 C 
ATOM     20  C   UNL     1       5.425  -1.467  24.206  0.00  0.00    +0.179 C 
ATOM     26  H   UNL     1       1.773  -1.692  23.377  0.00  0.00    +0.150 HD
ENDBRANCH  13   6
ENDBRANCH  11  13
TORSDOF 6
ENDMDL
