MODEL 1
REMARK VINA RESULT:      -5.9      0.000      0.000
REMARK  Name = 75536585
REMARK  9 active torsions:
REMARK  status: ('A' for Active; 'I' for Inactive)
REMARK    1  A    between atoms: O_2  and  C_10
REMARK    2  A    between atoms: O_4  and  C_17
REMARK    3  A    between atoms: O_4  and  C_20
REMARK    4  A    between atoms: N_5  and  C_9
REMARK    5  A    between atoms: N_5  and  C_14
REMARK    6  A    between atoms: N_6  and  C_13
REMARK    7  A    between atoms: C_11  and  C_13
REMARK    8  A    between atoms: C_14  and  C_15
REMARK    9  A    between atoms: C_16  and  C_17
REMARK                            x       y       z     vdW  Elec       q    Type
REMARK                         _______ _______ _______ _____ _____    ______ ____
ROOT
ATOM      1  O   UNL     1      -4.088   3.713  26.043  0.00  0.00    -0.371 OA
ATOM      9  C   UNL     1      -2.169   3.785  24.646  0.00  0.00    +0.111 C 
ATOM     10  C   UNL     1      -2.941   2.510  24.361  0.00  0.00    +0.164 C 
ATOM     11  C   UNL     1      -4.318   2.875  24.898  0.00  0.00    +0.165 C 
ATOM     12  C   UNL     1      -2.728   4.178  26.004  0.00  0.00    +0.181 C 
ENDROOT
BRANCH  10   2
ATOM      2  O   UNL     1      -2.979   2.192  22.983  0.00  0.00    -0.388 OA
ATOM     22  H   UNL     1      -3.868   2.397  22.646  0.00  0.00    +0.210 HD
ENDBRANCH  10   2
BRANCH   9   5
ATOM      5  N   UNL     1      -0.726   3.603  24.659  0.00  0.00    -0.302 NA
ATOM     21  H   UNL     1      -0.296   4.384  25.155  0.00  0.00    +0.123 HD
BRANCH   5  14
ATOM     14  C   UNL     1      -0.359   2.361  25.328  0.00  0.00    +0.156 C 
BRANCH  14  15
ATOM      7  N   UNL     1       1.482   1.511  23.855  0.00  0.00    -0.347 N 
ATOM      8  N   UNL     1      -0.358   0.268  23.919  0.00  0.00    -0.240 NA
ATOM     15  C   UNL     1       0.223   1.358  24.368  0.00  0.00    +0.121 A 
ATOM     18  C   UNL     1       1.718   0.450  23.025  0.00  0.00    +0.104 A 
ATOM     19  C   UNL     1       0.568  -0.303  23.081  0.00  0.00    +0.130 A 
ATOM     24  H   UNL     1       2.122   2.268  24.054  0.00  0.00    +0.167 HD
ENDBRANCH  14  15
ENDBRANCH   5  14
ENDBRANCH   9   5
BRANCH  11  13
ATOM     13  C   UNL     1      -5.143   1.667  25.304  0.00  0.00    +0.138 C 
BRANCH  13   6
ATOM      3  O   UNL     1      -3.740  -0.732  26.109  0.00  0.00    -0.273 OA
ATOM      6  N   UNL     1      -4.837   0.528  24.488  0.00  0.00    -0.311 N 
ATOM     16  C   UNL     1      -4.155  -0.590  24.961  0.00  0.00    +0.239 C 
ATOM     23  H   UNL     1      -5.129   0.550  23.515  0.00  0.00    +0.149 HD
BRANCH  16  17
ATOM     17  C   UNL     1      -3.971  -1.640  23.887  0.00  0.00    +0.255 C 
BRANCH  17   4
ATOM      4  O   UNL     1      -3.400  -2.812  24.429  0.00  0.00    -0.374 OA
ATOM     20  C   UNL     1      -1.978  -2.795  24.352  0.00  0.00    +0.194 C 
ENDBRANCH  17   4
ENDBRANCH  16  17
ENDBRANCH  13   6
ENDBRANCH  11  13
TORSDOF 8
ENDMDL
MODEL 2
REMARK VINA RESULT:      -5.4      2.205      5.113
REMARK  Name = 75536585
REMARK  9 active torsions:
REMARK  status: ('A' for Active; 'I' for Inactive)
REMARK    1  A    between atoms: O_2  and  C_10
REMARK    2  A    between atoms: O_4  and  C_17
REMARK    3  A    between atoms: O_4  and  C_20
REMARK    4  A    between atoms: N_5  and  C_9
REMARK    5  A    between atoms: N_5  and  C_14
REMARK    6  A    between atoms: N_6  and  C_13
REMARK    7  A    between atoms: C_11  and  C_13
REMARK    8  A    between atoms: C_14  and  C_15
REMARK    9  A    between atoms: C_16  and  C_17
REMARK                            x       y       z     vdW  Elec       q    Type
REMARK                         _______ _______ _______ _____ _____    ______ ____
ROOT
ATOM      1  O   UNL     1      -1.238   2.027  22.981  0.00  0.00    -0.371 OA
ATOM      9  C   UNL     1      -3.342   2.651  23.890  0.00  0.00    +0.111 C 
ATOM     10  C   UNL     1      -2.339   2.508  25.019  0.00  0.00    +0.164 C 
ATOM     11  C   UNL     1      -1.024   2.643  24.263  0.00  0.00    +0.165 C 
ATOM     12  C   UNL     1      -2.654   1.880  22.776  0.00  0.00    +0.181 C 
ENDROOT
BRANCH  10   2
ATOM      2  O   UNL     1      -2.483   3.508  26.009  0.00  0.00    -0.388 OA
ATOM     22  H   UNL     1      -3.336   3.375  26.455  0.00  0.00    +0.210 HD
ENDBRANCH  10   2
BRANCH   9   5
ATOM      5  N   UNL     1      -4.661   2.129  24.210  0.00  0.00    -0.302 NA
ATOM     21  H   UNL     1      -5.011   1.597  23.412  0.00  0.00    +0.123 HD
BRANCH   5  14
ATOM     14  C   UNL     1      -4.610   1.252  25.374  0.00  0.00    +0.156 C 
BRANCH  14  15
ATOM      7  N   UNL     1      -3.533  -0.963  25.835  0.00  0.00    -0.347 N 
ATOM      8  N   UNL     1      -4.576  -0.783  23.883  0.00  0.00    -0.240 NA
ATOM     15  C   UNL     1      -4.258  -0.162  24.997  0.00  0.00    +0.121 A 
ATOM     18  C   UNL     1      -3.379  -2.171  25.216  0.00  0.00    +0.104 A 
ATOM     19  C   UNL     1      -4.031  -2.036  24.013  0.00  0.00    +0.130 A 
ATOM     24  H   UNL     1      -3.176  -0.709  26.748  0.00  0.00    +0.167 HD
ENDBRANCH  14  15
ENDBRANCH   5  14
ENDBRANCH   9   5
BRANCH  11  13
ATOM     13  C   UNL     1       0.144   1.974  24.965  0.00  0.00    +0.138 C 
BRANCH  13   6
ATOM      3  O   UNL     1       0.393  -0.615  23.695  0.00  0.00    -0.273 OA
ATOM      6  N   UNL     1       1.149   1.562  24.028  0.00  0.00    -0.311 N 
ATOM     16  C   UNL     1       1.191   0.290  23.464  0.00  0.00    +0.239 C 
ATOM     23  H   UNL     1       1.866   2.236  23.776  0.00  0.00    +0.149 HD
BRANCH  16  17
ATOM     17  C   UNL     1       2.355   0.130  22.509  0.00  0.00    +0.255 C 
BRANCH  17   4
ATOM      4  O   UNL     1       3.382   1.050  22.817  0.00  0.00    -0.374 OA
ATOM     20  C   UNL     1       4.617   0.396  23.092  0.00  0.00    +0.194 C 
ENDBRANCH  17   4
ENDBRANCH  16  17
ENDBRANCH  13   6
ENDBRANCH  11  13
TORSDOF 8
ENDMDL
MODEL 3
REMARK VINA RESULT:      -5.4      2.198      4.392
REMARK  Name = 75536585
REMARK  9 active torsions:
REMARK  status: ('A' for Active; 'I' for Inactive)
REMARK    1  A    between atoms: O_2  and  C_10
REMARK    2  A    between atoms: O_4  and  C_17
REMARK    3  A    between atoms: O_4  and  C_20
REMARK    4  A    between atoms: N_5  and  C_9
REMARK    5  A    between atoms: N_5  and  C_14
REMARK    6  A    between atoms: N_6  and  C_13
REMARK    7  A    between atoms: C_11  and  C_13
REMARK    8  A    between atoms: C_14  and  C_15
REMARK    9  A    between atoms: C_16  and  C_17
REMARK                            x       y       z     vdW  Elec       q    Type
REMARK                         _______ _______ _______ _____ _____    ______ ____
ROOT
ATOM      1  O   UNL     1      -0.017   3.643  25.753  0.00  0.00    -0.371 OA
ATOM      9  C   UNL     1      -0.356   1.341  25.273  0.00  0.00    +0.111 C 
ATOM     10  C   UNL     1      -1.436   2.155  24.585  0.00  0.00    +0.164 C 
ATOM     11  C   UNL     1      -0.787   3.531  24.544  0.00  0.00    +0.165 C 
ATOM     12  C   UNL     1       0.148   2.328  26.313  0.00  0.00    +0.181 C 
ENDROOT
BRANCH  10   2
ATOM      2  O   UNL     1      -1.739   1.675  23.289  0.00  0.00    -0.388 OA
ATOM     22  H   UNL     1      -1.846   0.711  23.337  0.00  0.00    +0.210 HD
ENDBRANCH  10   2
BRANCH   9   5
ATOM      5  N   UNL     1      -0.840   0.101  25.857  0.00  0.00    -0.302 NA
ATOM     21  H   UNL     1      -1.812   0.224  26.141  0.00  0.00    +0.123 HD
BRANCH   5  14
ATOM     14  C   UNL     1      -0.765  -0.995  24.898  0.00  0.00    +0.156 C 
BRANCH  14  15
ATOM      7  N   UNL     1      -3.173  -0.740  24.254  0.00  0.00    -0.347 N 
ATOM      8  N   UNL     1      -2.473  -2.823  24.572  0.00  0.00    -0.240 NA
ATOM     15  C   UNL     1      -2.125  -1.556  24.580  0.00  0.00    +0.121 A 
ATOM     18  C   UNL     1      -4.258  -1.539  24.023  0.00  0.00    +0.104 A 
ATOM     19  C   UNL     1      -3.802  -2.820  24.226  0.00  0.00    +0.130 A 
ATOM     24  H   UNL     1      -3.150   0.269  24.192  0.00  0.00    +0.167 HD
ENDBRANCH  14  15
ENDBRANCH   5  14
ENDBRANCH   9   5
BRANCH  11  13
ATOM     13  C   UNL     1      -1.791   4.667  24.470  0.00  0.00    +0.138 C 
BRANCH  13   6
ATOM      3  O   UNL     1      -3.290   4.175  26.895  0.00  0.00    -0.273 OA
ATOM      6  N   UNL     1      -3.137   4.181  24.573  0.00  0.00    -0.311 N 
ATOM     16  C   UNL     1      -3.783   3.973  25.788  0.00  0.00    +0.239 C 
ATOM     23  H   UNL     1      -3.632   3.972  23.710  0.00  0.00    +0.149 HD
BRANCH  16  17
ATOM     17  C   UNL     1      -5.194   3.459  25.601  0.00  0.00    +0.255 C 
BRANCH  17   4
ATOM      4  O   UNL     1      -5.213   2.375  24.697  0.00  0.00    -0.374 OA
ATOM     20  C   UNL     1      -6.324   1.513  24.924  0.00  0.00    +0.194 C 
ENDBRANCH  17   4
ENDBRANCH  16  17
ENDBRANCH  13   6
ENDBRANCH  11  13
TORSDOF 8
ENDMDL
MODEL 4
REMARK VINA RESULT:      -5.4      1.687      4.238
REMARK  Name = 75536585
REMARK  9 active torsions:
REMARK  status: ('A' for Active; 'I' for Inactive)
REMARK    1  A    between atoms: O_2  and  C_10
REMARK    2  A    between atoms: O_4  and  C_17
REMARK    3  A    between atoms: O_4  and  C_20
REMARK    4  A    between atoms: N_5  and  C_9
REMARK    5  A    between atoms: N_5  and  C_14
REMARK    6  A    between atoms: N_6  and  C_13
REMARK    7  A    between atoms: C_11  and  C_13
REMARK    8  A    between atoms: C_14  and  C_15
REMARK    9  A    between atoms: C_16  and  C_17
REMARK                            x       y       z     vdW  Elec       q    Type
REMARK                         _______ _______ _______ _____ _____    ______ ____
ROOT
ATOM      1  O   UNL     1      -3.234  -2.122  24.545  0.00  0.00    -0.371 OA
ATOM      9  C   UNL     1      -1.060  -1.306  25.046  0.00  0.00    +0.111 C 
ATOM     10  C   UNL     1      -2.000  -0.129  24.863  0.00  0.00    +0.164 C 
ATOM     11  C   UNL     1      -3.351  -0.794  25.086  0.00  0.00    +0.165 C 
ATOM     12  C   UNL     1      -1.838  -2.421  24.368  0.00  0.00    +0.181 C 
ENDROOT
BRANCH  10   2
ATOM      2  O   UNL     1      -1.763   0.909  25.794  0.00  0.00    -0.388 OA
ATOM     22  H   UNL     1      -0.949   0.701  26.283  0.00  0.00    +0.210 HD
ENDBRANCH  10   2
BRANCH   9   5
ATOM      5  N   UNL     1       0.256  -1.099  24.463  0.00  0.00    -0.302 NA
ATOM     21  H   UNL     1       0.558  -1.960  24.006  0.00  0.00    +0.123 HD
BRANCH   5  14
ATOM     14  C   UNL     1       0.231  -0.026  23.476  0.00  0.00    +0.156 C 
BRANCH  14  15
ATOM      7  N   UNL     1       2.445   1.147  23.451  0.00  0.00    -0.347 N 
ATOM      8  N   UNL     1       2.123  -0.344  21.838  0.00  0.00    -0.240 NA
ATOM     15  C   UNL     1       1.594   0.233  22.893  0.00  0.00    +0.121 A 
ATOM     18  C   UNL     1       3.589   1.152  22.702  0.00  0.00    +0.104 A 
ATOM     19  C   UNL     1       3.366   0.224  21.713  0.00  0.00    +0.130 A 
ATOM     24  H   UNL     1       2.263   1.715  24.268  0.00  0.00    +0.167 HD
ENDBRANCH  14  15
ENDBRANCH   5  14
ENDBRANCH   9   5
BRANCH  11  13
ATOM     13  C   UNL     1      -4.498  -0.065  24.411  0.00  0.00    +0.138 C 
BRANCH  13   6
ATOM      3  O   UNL     1      -5.814   2.004  25.946  0.00  0.00    -0.273 OA
ATOM      6  N   UNL     1      -4.255   1.346  24.348  0.00  0.00    -0.311 N 
ATOM     16  C   UNL     1      -4.938   2.275  25.129  0.00  0.00    +0.239 C 
ATOM     23  H   UNL     1      -3.553   1.678  23.692  0.00  0.00    +0.149 HD
BRANCH  16  17
ATOM     17  C   UNL     1      -4.479   3.692  24.859  0.00  0.00    +0.255 C 
BRANCH  17   4
ATOM      4  O   UNL     1      -3.082   3.733  24.658  0.00  0.00    -0.374 OA
ATOM     20  C   UNL     1      -2.396   4.236  25.800  0.00  0.00    +0.194 C 
ENDBRANCH  17   4
ENDBRANCH  16  17
ENDBRANCH  13   6
ENDBRANCH  11  13
TORSDOF 8
ENDMDL
MODEL 5
REMARK VINA RESULT:      -5.1      2.936      6.067
REMARK  Name = 75536585
REMARK  9 active torsions:
REMARK  status: ('A' for Active; 'I' for Inactive)
REMARK    1  A    between atoms: O_2  and  C_10
REMARK    2  A    between atoms: O_4  and  C_17
REMARK    3  A    between atoms: O_4  and  C_20
REMARK    4  A    between atoms: N_5  and  C_9
REMARK    5  A    between atoms: N_5  and  C_14
REMARK    6  A    between atoms: N_6  and  C_13
REMARK    7  A    between atoms: C_11  and  C_13
REMARK    8  A    between atoms: C_14  and  C_15
REMARK    9  A    between atoms: C_16  and  C_17
REMARK                            x       y       z     vdW  Elec       q    Type
REMARK                         _______ _______ _______ _____ _____    ______ ____
ROOT
ATOM      1  O   UNL     1       0.572   2.027  25.109  0.00  0.00    -0.371 OA
ATOM      9  C   UNL     1      -1.687   2.761  25.110  0.00  0.00    +0.111 C 
ATOM     10  C   UNL     1      -1.497   1.745  23.999  0.00  0.00    +0.164 C 
ATOM     11  C   UNL     1      -0.239   1.028  24.469  0.00  0.00    +0.165 C 
ATOM     12  C   UNL     1      -0.251   3.173  25.389  0.00  0.00    +0.181 C 
ENDROOT
BRANCH  10   2
ATOM      2  O   UNL     1      -2.594   0.860  23.875  0.00  0.00    -0.388 OA
ATOM     22  H   UNL     1      -3.257   1.100  24.543  0.00  0.00    +0.210 HD
ENDBRANCH  10   2
BRANCH   9   5
ATOM      5  N   UNL     1      -2.535   3.882  24.737  0.00  0.00    -0.302 NA
ATOM     21  H   UNL     1      -2.960   3.691  23.829  0.00  0.00    +0.123 HD
BRANCH   5  14
ATOM     14  C   UNL     1      -3.593   4.088  25.719  0.00  0.00    +0.156 C 
BRANCH  14  15
ATOM      7  N   UNL     1      -5.631   2.873  26.527  0.00  0.00    -0.347 N 
ATOM      8  N   UNL     1      -5.005   2.431  24.442  0.00  0.00    -0.240 NA
ATOM     15  C   UNL     1      -4.732   3.123  25.526  0.00  0.00    +0.121 A 
ATOM     18  C   UNL     1      -6.533   1.963  26.050  0.00  0.00    +0.104 A 
ATOM     19  C   UNL     1      -6.126   1.706  24.762  0.00  0.00    +0.130 A 
ATOM     24  H   UNL     1      -5.629   3.286  27.450  0.00  0.00    +0.167 HD
ENDBRANCH  14  15
ENDBRANCH   5  14
ENDBRANCH   9   5
BRANCH  11  13
ATOM     13  C   UNL     1       0.541   0.381  23.338  0.00  0.00    +0.138 C 
BRANCH  13   6
ATOM      3  O   UNL     1       2.557  -0.211  21.349  0.00  0.00    -0.273 OA
ATOM      6  N   UNL     1       1.911   0.805  23.341  0.00  0.00    -0.311 N 
ATOM     16  C   UNL     1       2.816   0.472  22.337  0.00  0.00    +0.239 C 
ATOM     23  H   UNL     1       2.231   1.368  24.124  0.00  0.00    +0.149 HD
BRANCH  16  17
ATOM     17  C   UNL     1       4.190   1.053  22.594  0.00  0.00    +0.255 C 
BRANCH  17   4
ATOM      4  O   UNL     1       4.683   0.632  23.848  0.00  0.00    -0.374 OA
ATOM     20  C   UNL     1       5.167  -0.707  23.806  0.00  0.00    +0.194 C 
ENDBRANCH  17   4
ENDBRANCH  16  17
ENDBRANCH  13   6
ENDBRANCH  11  13
TORSDOF 8
ENDMDL
MODEL 6
REMARK VINA RESULT:      -4.9      2.867      5.690
REMARK  Name = 75536585
REMARK  9 active torsions:
REMARK  status: ('A' for Active; 'I' for Inactive)
REMARK    1  A    between atoms: O_2  and  C_10
REMARK    2  A    between atoms: O_4  and  C_17
REMARK    3  A    between atoms: O_4  and  C_20
REMARK    4  A    between atoms: N_5  and  C_9
REMARK    5  A    between atoms: N_5  and  C_14
REMARK    6  A    between atoms: N_6  and  C_13
REMARK    7  A    between atoms: C_11  and  C_13
REMARK    8  A    between atoms: C_14  and  C_15
REMARK    9  A    between atoms: C_16  and  C_17
REMARK                            x       y       z     vdW  Elec       q    Type
REMARK                         _______ _______ _______ _____ _____    ______ ____
ROOT
ATOM      1  O   UNL     1      -1.461   1.778  22.735  0.00  0.00    -0.371 OA
ATOM      9  C   UNL     1      -2.537   2.131  24.823  0.00  0.00    +0.111 C 
ATOM     10  C   UNL     1      -1.465   1.070  24.992  0.00  0.00    +0.164 C 
ATOM     11  C   UNL     1      -0.578   1.355  23.788  0.00  0.00    +0.165 C 
ATOM     12  C   UNL     1      -2.730   2.127  23.315  0.00  0.00    +0.181 C 
ENDROOT
BRANCH  10   2
ATOM      2  O   UNL     1      -0.759   1.198  26.210  0.00  0.00    -0.388 OA
ATOM     22  H   UNL     1       0.117   0.790  26.100  0.00  0.00    +0.210 HD
ENDBRANCH  10   2
BRANCH   9   5
ATOM      5  N   UNL     1      -3.763   1.844  25.551  0.00  0.00    -0.302 NA
ATOM     21  H   UNL     1      -4.263   2.718  25.718  0.00  0.00    +0.123 HD
BRANCH   5  14
ATOM     14  C   UNL     1      -4.625   0.944  24.795  0.00  0.00    +0.156 C 
BRANCH  14  15
ATOM      7  N   UNL     1      -4.178  -1.303  23.781  0.00  0.00    -0.347 N 
ATOM      8  N   UNL     1      -3.686  -1.100  25.937  0.00  0.00    -0.240 NA
ATOM     15  C   UNL     1      -4.154  -0.483  24.875  0.00  0.00    +0.121 A 
ATOM     18  C   UNL     1      -3.694  -2.520  24.171  0.00  0.00    +0.104 A 
ATOM     19  C   UNL     1      -3.397  -2.371  25.505  0.00  0.00    +0.130 A 
ATOM     24  H   UNL     1      -4.494  -1.055  22.852  0.00  0.00    +0.167 HD
ENDBRANCH  14  15
ENDBRANCH   5  14
ENDBRANCH   9   5
BRANCH  11  13
ATOM     13  C   UNL     1       0.221   0.147  23.332  0.00  0.00    +0.138 C 
BRANCH  13   6
ATOM      3  O   UNL     1       2.130  -0.243  21.193  0.00  0.00    -0.273 OA
ATOM      6  N   UNL     1       1.631   0.411  23.370  0.00  0.00    -0.311 N 
ATOM     16  C   UNL     1       2.478   0.193  22.287  0.00  0.00    +0.239 C 
ATOM     23  H   UNL     1       2.023   0.765  24.238  0.00  0.00    +0.149 HD
BRANCH  16  17
ATOM     17  C   UNL     1       3.912   0.557  22.605  0.00  0.00    +0.255 C 
BRANCH  17   4
ATOM      4  O   UNL     1       4.498  -0.414  23.447  0.00  0.00    -0.374 OA
ATOM     20  C   UNL     1       5.767   0.006  23.939  0.00  0.00    +0.194 C 
ENDBRANCH  17   4
ENDBRANCH  16  17
ENDBRANCH  13   6
ENDBRANCH  11  13
TORSDOF 8
ENDMDL
MODEL 7
REMARK VINA RESULT:      -4.7      1.963      4.353
REMARK  Name = 75536585
REMARK  9 active torsions:
REMARK  status: ('A' for Active; 'I' for Inactive)
REMARK    1  A    between atoms: O_2  and  C_10
REMARK    2  A    between atoms: O_4  and  C_17
REMARK    3  A    between atoms: O_4  and  C_20
REMARK    4  A    between atoms: N_5  and  C_9
REMARK    5  A    between atoms: N_5  and  C_14
REMARK    6  A    between atoms: N_6  and  C_13
REMARK    7  A    between atoms: C_11  and  C_13
REMARK    8  A    between atoms: C_14  and  C_15
REMARK    9  A    between atoms: C_16  and  C_17
REMARK                            x       y       z     vdW  Elec       q    Type
REMARK                         _______ _______ _______ _____ _____    ______ ____
ROOT
ATOM      1  O   UNL     1      -0.541   2.133  23.259  0.00  0.00    -0.371 OA
ATOM      9  C   UNL     1      -0.972   3.528  25.133  0.00  0.00    +0.111 C 
ATOM     10  C   UNL     1      -0.747   2.108  25.615  0.00  0.00    +0.164 C 
ATOM     11  C   UNL     1       0.007   1.512  24.435  0.00  0.00    +0.165 C 
ATOM     12  C   UNL     1      -1.278   3.302  23.661  0.00  0.00    +0.181 C 
ENDROOT
BRANCH  10   2
ATOM      2  O   UNL     1       0.010   2.050  26.809  0.00  0.00    -0.388 OA
ATOM     22  H   UNL     1       0.885   1.682  26.598  0.00  0.00    +0.210 HD
ENDBRANCH  10   2
BRANCH   9   5
ATOM      5  N   UNL     1      -2.043   4.221  25.833  0.00  0.00    -0.302 NA
ATOM     21  H   UNL     1      -1.695   5.120  26.167  0.00  0.00    +0.123 HD
BRANCH   5  14
ATOM     14  C   UNL     1      -3.181   4.454  24.953  0.00  0.00    +0.156 C 
BRANCH  14  15
ATOM      7  N   UNL     1      -5.106   3.436  26.194  0.00  0.00    -0.347 N 
ATOM      8  N   UNL     1      -4.491   2.387  24.335  0.00  0.00    -0.240 NA
ATOM     15  C   UNL     1      -4.249   3.407  25.128  0.00  0.00    +0.121 A 
ATOM     18  C   UNL     1      -5.947   2.366  26.072  0.00  0.00    +0.104 A 
ATOM     19  C   UNL     1      -5.549   1.734  24.918  0.00  0.00    +0.130 A 
ATOM     24  H   UNL     1      -5.117   4.124  26.936  0.00  0.00    +0.167 HD
ENDBRANCH  14  15
ENDBRANCH   5  14
ENDBRANCH   9   5
BRANCH  11  13
ATOM     13  C   UNL     1      -0.134   0.004  24.331  0.00  0.00    +0.138 C 
BRANCH  13   6
ATOM      3  O   UNL     1      -1.391  -1.047  26.715  0.00  0.00    -0.273 OA
ATOM      6  N   UNL     1      -1.501  -0.403  24.481  0.00  0.00    -0.311 N 
ATOM     16  C   UNL     1      -2.023  -0.900  25.672  0.00  0.00    +0.239 C 
ATOM     23  H   UNL     1      -2.108  -0.331  23.670  0.00  0.00    +0.149 HD
BRANCH  16  17
ATOM     17  C   UNL     1      -3.490  -1.250  25.547  0.00  0.00    +0.255 C 
BRANCH  17   4
ATOM      4  O   UNL     1      -3.893  -1.234  24.194  0.00  0.00    -0.374 OA
ATOM     20  C   UNL     1      -4.249  -2.532  23.730  0.00  0.00    +0.194 C 
ENDBRANCH  17   4
ENDBRANCH  16  17
ENDBRANCH  13   6
ENDBRANCH  11  13
TORSDOF 8
ENDMDL
MODEL 8
REMARK VINA RESULT:      -4.4      2.000      4.302
REMARK  Name = 75536585
REMARK  9 active torsions:
REMARK  status: ('A' for Active; 'I' for Inactive)
REMARK    1  A    between atoms: O_2  and  C_10
REMARK    2  A    between atoms: O_4  and  C_17
REMARK    3  A    between atoms: O_4  and  C_20
REMARK    4  A    between atoms: N_5  and  C_9
REMARK    5  A    between atoms: N_5  and  C_14
REMARK    6  A    between atoms: N_6  and  C_13
REMARK    7  A    between atoms: C_11  and  C_13
REMARK    8  A    between atoms: C_14  and  C_15
REMARK    9  A    between atoms: C_16  and  C_17
REMARK                            x       y       z     vdW  Elec       q    Type
REMARK                         _______ _______ _______ _____ _____    ______ ____
ROOT
ATOM      1  O   UNL     1      -3.039   3.962  23.625  0.00  0.00    -0.371 OA
ATOM      9  C   UNL     1      -4.570   2.902  25.099  0.00  0.00    +0.111 C 
ATOM     10  C   UNL     1      -3.384   3.409  25.898  0.00  0.00    +0.164 C 
ATOM     11  C   UNL     1      -2.823   4.464  24.955  0.00  0.00    +0.165 C 
ATOM     12  C   UNL     1      -4.003   2.896  23.689  0.00  0.00    +0.181 C 
ENDROOT
BRANCH  10   2
ATOM      2  O   UNL     1      -3.761   3.962  27.144  0.00  0.00    -0.388 OA
ATOM     22  H   UNL     1      -4.499   4.577  26.995  0.00  0.00    +0.210 HD
ENDBRANCH  10   2
BRANCH   9   5
ATOM      5  N   UNL     1      -5.045   1.595  25.524  0.00  0.00    -0.302 NA
ATOM     21  H   UNL     1      -6.030   1.666  25.782  0.00  0.00    +0.123 HD
BRANCH   5  14
ATOM     14  C   UNL     1      -4.908   0.613  24.454  0.00  0.00    +0.156 C 
BRANCH  14  15
ATOM      7  N   UNL     1      -2.634  -0.034  25.285  0.00  0.00    -0.347 N 
ATOM      8  N   UNL     1      -3.917  -1.704  24.578  0.00  0.00    -0.240 NA
ATOM     15  C   UNL     1      -3.842  -0.404  24.761  0.00  0.00    +0.121 A 
ATOM     18  C   UNL     1      -1.893  -1.171  25.448  0.00  0.00    +0.104 A 
ATOM     19  C   UNL     1      -2.705  -2.188  25.005  0.00  0.00    +0.130 A 
ATOM     24  H   UNL     1      -2.343   0.907  25.513  0.00  0.00    +0.167 HD
ENDBRANCH  14  15
ENDBRANCH   5  14
ENDBRANCH   9   5
BRANCH  11  13
ATOM     13  C   UNL     1      -1.345   4.734  25.167  0.00  0.00    +0.138 C 
BRANCH  13   6
ATOM      3  O   UNL     1      -0.376   2.222  26.226  0.00  0.00    -0.273 OA
ATOM      6  N   UNL     1      -0.535   3.764  24.490  0.00  0.00    -0.311 N 
ATOM     16  C   UNL     1      -0.113   2.575  25.080  0.00  0.00    +0.239 C 
ATOM     23  H   UNL     1      -0.252   3.967  23.535  0.00  0.00    +0.149 HD
BRANCH  16  17
ATOM     17  C   UNL     1       0.727   1.740  24.137  0.00  0.00    +0.255 C 
BRANCH  17   4
ATOM      4  O   UNL     1      -0.038   0.690  23.585  0.00  0.00    -0.374 OA
ATOM     20  C   UNL     1       0.781  -0.290  22.954  0.00  0.00    +0.194 C 
ENDBRANCH  17   4
ENDBRANCH  16  17
ENDBRANCH  13   6
ENDBRANCH  11  13
TORSDOF 8
ENDMDL
MODEL 9
REMARK VINA RESULT:      -4.3     14.179     16.433
REMARK  Name = 75536585
REMARK  9 active torsions:
REMARK  status: ('A' for Active; 'I' for Inactive)
REMARK    1  A    between atoms: O_2  and  C_10
REMARK    2  A    between atoms: O_4  and  C_17
REMARK    3  A    between atoms: O_4  and  C_20
REMARK    4  A    between atoms: N_5  and  C_9
REMARK    5  A    between atoms: N_5  and  C_14
REMARK    6  A    between atoms: N_6  and  C_13
REMARK    7  A    between atoms: C_11  and  C_13
REMARK    8  A    between atoms: C_14  and  C_15
REMARK    9  A    between atoms: C_16  and  C_17
REMARK                            x       y       z     vdW  Elec       q    Type
REMARK                         _______ _______ _______ _____ _____    ______ ____
ROOT
ATOM      1  O   UNL     1      -3.289 -10.608  15.745  0.00  0.00    -0.371 OA
ATOM      9  C   UNL     1      -5.590 -10.082  16.016  0.00  0.00    +0.111 C 
ATOM     10  C   UNL     1      -5.217  -9.932  14.553  0.00  0.00    +0.164 C 
ATOM     11  C   UNL     1      -3.956 -10.781  14.482  0.00  0.00    +0.165 C 
ATOM     12  C   UNL     1      -4.223 -10.041  16.680  0.00  0.00    +0.181 C 
ENDROOT
BRANCH  10   2
ATOM      2  O   UNL     1      -6.224 -10.410  13.682  0.00  0.00    -0.388 OA
ATOM     22  H   UNL     1      -7.003  -9.836  13.770  0.00  0.00    +0.210 HD
ENDBRANCH  10   2
BRANCH   9   5
ATOM      5  N   UNL     1      -6.486  -9.045  16.500  0.00  0.00    -0.302 NA
ATOM     21  H   UNL     1      -6.648  -8.369  15.753  0.00  0.00    +0.123 HD
BRANCH   5  14
ATOM     14  C   UNL     1      -7.766  -9.607  16.914  0.00  0.00    +0.156 C 
BRANCH  14  15
ATOM      7  N   UNL     1      -9.275  -8.405  15.314  0.00  0.00    -0.347 N 
ATOM      8  N   UNL     1      -9.672  -8.051  17.470  0.00  0.00    -0.240 NA
ATOM     15  C   UNL     1      -8.912  -8.681  16.603  0.00  0.00    +0.121 A 
ATOM     18  C   UNL     1     -10.334  -7.544  15.362  0.00  0.00    +0.104 A 
ATOM     19  C   UNL     1     -10.562  -7.340  16.703  0.00  0.00    +0.130 A 
ATOM     24  H   UNL     1      -8.840  -8.772  14.477  0.00  0.00    +0.167 HD
ENDBRANCH  14  15
ENDBRANCH   5  14
ENDBRANCH   9   5
BRANCH  11  13
ATOM     13  C   UNL     1      -3.025 -10.380  13.352  0.00  0.00    +0.138 C 
BRANCH  13   6
ATOM      3  O   UNL     1      -2.083  -9.400  10.798  0.00  0.00    -0.273 OA
ATOM      6  N   UNL     1      -3.652 -10.552  12.074  0.00  0.00    -0.311 N 
ATOM     16  C   UNL     1      -3.125 -10.044  10.890  0.00  0.00    +0.239 C 
ATOM     23  H   UNL     1      -4.530 -11.064  12.042  0.00  0.00    +0.149 HD
BRANCH  16  17
ATOM     17  C   UNL     1      -3.992 -10.374   9.694  0.00  0.00    +0.255 C 
BRANCH  17   4
ATOM      4  O   UNL     1      -5.291  -9.845   9.858  0.00  0.00    -0.374 OA
ATOM     20  C   UNL     1      -5.315  -8.432   9.681  0.00  0.00    +0.194 C 
ENDBRANCH  17   4
ENDBRANCH  16  17
ENDBRANCH  13   6
ENDBRANCH  11  13
TORSDOF 8
ENDMDL
MODEL 10
REMARK VINA RESULT:      -4.1      2.206      3.740
REMARK  Name = 75536585
REMARK  9 active torsions:
REMARK  status: ('A' for Active; 'I' for Inactive)
REMARK    1  A    between atoms: O_2  and  C_10
REMARK    2  A    between atoms: O_4  and  C_17
REMARK    3  A    between atoms: O_4  and  C_20
REMARK    4  A    between atoms: N_5  and  C_9
REMARK    5  A    between atoms: N_5  and  C_14
REMARK    6  A    between atoms: N_6  and  C_13
REMARK    7  A    between atoms: C_11  and  C_13
REMARK    8  A    between atoms: C_14  and  C_15
REMARK    9  A    between atoms: C_16  and  C_17
REMARK                            x       y       z     vdW  Elec       q    Type
REMARK                         _______ _______ _______ _____ _____    ______ ____
ROOT
ATOM      1  O   UNL     1      -1.251   3.159  26.548  0.00  0.00    -0.371 OA
ATOM      9  C   UNL     1       0.443   2.527  25.008  0.00  0.00    +0.111 C 
ATOM     10  C   UNL     1      -0.622   3.320  24.274  0.00  0.00    +0.164 C 
ATOM     11  C   UNL     1      -1.285   4.060  25.428  0.00  0.00    +0.165 C 
ATOM     12  C   UNL     1      -0.302   2.115  26.267  0.00  0.00    +0.181 C 
ENDROOT
BRANCH  10   2
ATOM      2  O   UNL     1      -0.078   4.211  23.319  0.00  0.00    -0.388 OA
ATOM     22  H   UNL     1       0.057   3.724  22.489  0.00  0.00    +0.210 HD
ENDBRANCH  10   2
BRANCH   9   5
ATOM      5  N   UNL     1       0.950   1.392  24.253  0.00  0.00    -0.302 NA
ATOM     21  H   UNL     1       1.309   0.692  24.904  0.00  0.00    +0.123 HD
BRANCH   5  14
ATOM     14  C   UNL     1      -0.102   0.787  23.444  0.00  0.00    +0.156 C 
BRANCH  14  15
ATOM      7  N   UNL     1      -2.157  -0.363  24.302  0.00  0.00    -0.347 N 
ATOM      8  N   UNL     1      -0.228  -1.370  24.747  0.00  0.00    -0.240 NA
ATOM     15  C   UNL     1      -0.795  -0.333  24.172  0.00  0.00    +0.121 A 
ATOM     18  C   UNL     1      -2.477  -1.490  25.004  0.00  0.00    +0.104 A 
ATOM     19  C   UNL     1      -1.271  -2.095  25.268  0.00  0.00    +0.130 A 
ATOM     24  H   UNL     1      -2.808   0.323  23.942  0.00  0.00    +0.167 HD
ENDBRANCH  14  15
ENDBRANCH   5  14
ENDBRANCH   9   5
BRANCH  11  13
ATOM     13  C   UNL     1      -2.719   4.463  25.138  0.00  0.00    +0.138 C 
BRANCH  13   6
ATOM      3  O   UNL     1      -3.890   2.835  23.051  0.00  0.00    -0.273 OA
ATOM      6  N   UNL     1      -3.616   3.355  25.303  0.00  0.00    -0.311 N 
ATOM     16  C   UNL     1      -4.132   2.625  24.236  0.00  0.00    +0.239 C 
ATOM     23  H   UNL     1      -3.889   3.105  26.249  0.00  0.00    +0.149 HD
BRANCH  16  17
ATOM     17  C   UNL     1      -5.049   1.514  24.700  0.00  0.00    +0.255 C 
BRANCH  17   4
ATOM      4  O   UNL     1      -6.296   2.035  25.111  0.00  0.00    -0.374 OA
ATOM     20  C   UNL     1      -6.497   1.886  26.513  0.00  0.00    +0.194 C 
ENDBRANCH  17   4
ENDBRANCH  16  17
ENDBRANCH  13   6
ENDBRANCH  11  13
TORSDOF 8
ENDMDL
