MODEL 1
REMARK VINA RESULT:       8.7      0.000      0.000
REMARK  Name = 11885930
REMARK  5 active torsions:
REMARK  status: ('A' for Active; 'I' for Inactive)
REMARK    1  A    between atoms: O_5  and  C_31
REMARK    2  A    between atoms: O_5  and  C_36
REMARK    3  A    between atoms: N_8  and  C_23
REMARK    4  A    between atoms: N_9  and  C_21
REMARK    5  A    between atoms: N_10  and  C_30
REMARK                            x       y       z     vdW  Elec       q    Type
REMARK                         _______ _______ _______ _____ _____    ______ ____
ROOT
ATOM      2  O   UNL     1      17.399  -5.476  30.064  0.00  0.00    -0.266 OA
ATOM      3  O   UNL     1      16.236 -10.569  30.084  0.00  0.00    -0.252 OA
ATOM      6  N   UNL     1      14.392  -9.404  30.857  0.00  0.00    -0.284 N 
ATOM      7  N   UNL     1      15.308  -6.357  30.621  0.00  0.00    -0.310 N 
ATOM      8  N   UNL     1      14.473 -10.179  28.629  0.00  0.00    -0.269 N 
ATOM     11  C   UNL     1      14.922  -7.800  32.699  0.00  0.00    +0.027 C 
ATOM     12  C   UNL     1      13.051  -7.330  31.177  0.00  0.00    +0.054 C 
ATOM     13  C   UNL     1      13.497  -7.268  32.636  0.00  0.00    +0.018 C 
ATOM     14  C   UNL     1      14.974  -9.252  32.193  0.00  0.00    +0.114 C 
ATOM     15  C   UNL     1      15.837  -6.874  31.891  0.00  0.00    +0.130 C 
ATOM     16  C   UNL     1      13.060  -8.795  30.689  0.00  0.00    +0.119 C 
ATOM     17  C   UNL     1      13.956  -6.492  30.292  0.00  0.00    +0.027 A 
ATOM     18  C   UNL     1      13.469  -5.912  29.182  0.00  0.00    +0.024 A 
ATOM     19  C   UNL     1      16.205  -5.635  29.808  0.00  0.00    +0.273 A 
ATOM     20  C   UNL     1      15.123 -10.086  29.860  0.00  0.00    +0.306 C 
ATOM     21  C   UNL     1      15.629  -5.026  28.567  0.00  0.00    +0.100 A 
ATOM     22  C   UNL     1      14.325  -5.166  28.303  0.00  0.00    +0.030 A 
ATOM     37  H   UNL     1      13.459 -10.174  28.619  0.00  0.00    +0.156 HD
ENDROOT
BRANCH   8  23
ATOM      1  F   UNL     1      16.813 -10.778  23.644  0.00  0.00    -0.205 F 
ATOM     23  C   UNL     1      15.072 -10.334  27.355  0.00  0.00    +0.035 A 
ATOM     25  C   UNL     1      16.450 -10.188  27.215  0.00  0.00    +0.026 A 
ATOM     26  C   UNL     1      14.279 -10.629  26.249  0.00  0.00    +0.026 A 
ATOM     27  C   UNL     1      17.038 -10.338  25.960  0.00  0.00    +0.040 A 
ATOM     28  C   UNL     1      14.868 -10.780  24.994  0.00  0.00    +0.040 A 
ATOM     29  C   UNL     1      16.248 -10.634  24.849  0.00  0.00    +0.124 A 
ENDBRANCH   8  23
BRANCH  21   9
ATOM      4  O   UNL     1      15.000  -4.043  25.974  0.00  0.00    -0.252 OA
ATOM      9  N   UNL     1      16.468  -4.333  27.746  0.00  0.00    -0.265 N 
ATOM     10  N   UNL     1      17.188  -3.197  25.885  0.00  0.00    -0.266 N 
ATOM     24  C   UNL     1      16.109  -3.869  26.473  0.00  0.00    +0.308 C 
ATOM     38  H   UNL     1      17.459  -4.370  27.963  0.00  0.00    +0.157 HD
ATOM     39  H   UNL     1      18.043  -3.142  26.432  0.00  0.00    +0.156 HD
BRANCH  10  30
ATOM     30  C   UNL     1      17.238  -2.582  24.612  0.00  0.00    +0.077 A 
ATOM     31  C   UNL     1      17.266  -3.363  23.466  0.00  0.00    +0.141 A 
ATOM     32  C   UNL     1      17.258  -1.198  24.541  0.00  0.00    +0.027 A 
ATOM     33  C   UNL     1      17.314  -2.742  22.218  0.00  0.00    +0.047 A 
ATOM     34  C   UNL     1      17.307  -0.578  23.293  0.00  0.00    +0.002 A 
ATOM     35  C   UNL     1      17.336  -1.350  22.131  0.00  0.00    +0.004 A 
BRANCH  31   5
ATOM      5  O   UNL     1      17.246  -4.724  23.530  0.00  0.00    -0.493 OA
ATOM     36  C   UNL     1      17.214  -5.429  22.291  0.00  0.00    +0.277 C 
ENDBRANCH  31   5
ENDBRANCH  10  30
ENDBRANCH  21   9
TORSDOF 4
ENDMDL
MODEL 2
REMARK VINA RESULT:       8.8     17.933     19.495
REMARK  Name = 11885930
REMARK  5 active torsions:
REMARK  status: ('A' for Active; 'I' for Inactive)
REMARK    1  A    between atoms: O_5  and  C_31
REMARK    2  A    between atoms: O_5  and  C_36
REMARK    3  A    between atoms: N_8  and  C_23
REMARK    4  A    between atoms: N_9  and  C_21
REMARK    5  A    between atoms: N_10  and  C_30
REMARK                            x       y       z     vdW  Elec       q    Type
REMARK                         _______ _______ _______ _____ _____    ______ ____
ROOT
ATOM      2  O   UNL     1      -0.659   3.299  25.936  0.00  0.00    -0.266 OA
ATOM      3  O   UNL     1      -4.440  -0.195  26.826  0.00  0.00    -0.252 OA
ATOM      6  N   UNL     1      -5.350   1.565  25.631  0.00  0.00    -0.284 N 
ATOM      7  N   UNL     1      -2.840   3.465  25.112  0.00  0.00    -0.310 N 
ATOM      8  N   UNL     1      -4.757  -0.443  24.542  0.00  0.00    -0.269 N 
ATOM     11  C   UNL     1      -4.872   3.806  26.630  0.00  0.00    +0.027 C 
ATOM     12  C   UNL     1      -5.185   3.598  24.201  0.00  0.00    +0.054 C 
ATOM     13  C   UNL     1      -5.497   4.474  25.412  0.00  0.00    +0.018 C 
ATOM     14  C   UNL     1      -5.462   2.400  26.830  0.00  0.00    +0.114 C 
ATOM     15  C   UNL     1      -3.349   3.774  26.455  0.00  0.00    +0.130 C 
ATOM     16  C   UNL     1      -5.821   2.203  24.387  0.00  0.00    +0.119 C 
ATOM     17  C   UNL     1      -3.688   3.454  24.001  0.00  0.00    +0.027 A 
ATOM     18  C   UNL     1      -3.183   3.284  22.767  0.00  0.00    +0.024 A 
ATOM     19  C   UNL     1      -1.447   3.282  24.989  0.00  0.00    +0.273 A 
ATOM     20  C   UNL     1      -4.811   0.265  25.743  0.00  0.00    +0.306 C 
ATOM     21  C   UNL     1      -0.928   3.070  23.601  0.00  0.00    +0.100 A 
ATOM     22  C   UNL     1      -1.775   3.087  22.566  0.00  0.00    +0.030 A 
ATOM     37  H   UNL     1      -5.437  -0.222  23.823  0.00  0.00    +0.156 HD
ENDROOT
BRANCH   8  23
ATOM      1  F   UNL     1      -1.307  -4.578  23.241  0.00  0.00    -0.205 F 
ATOM     23  C   UNL     1      -3.875  -1.501  24.211  0.00  0.00    +0.035 A 
ATOM     25  C   UNL     1      -2.507  -1.354  24.424  0.00  0.00    +0.026 A 
ATOM     26  C   UNL     1      -4.381  -2.681  23.672  0.00  0.00    +0.026 A 
ATOM     27  C   UNL     1      -1.638  -2.394  24.096  0.00  0.00    +0.040 A 
ATOM     28  C   UNL     1      -3.512  -3.722  23.345  0.00  0.00    +0.040 A 
ATOM     29  C   UNL     1      -2.141  -3.578  23.556  0.00  0.00    +0.124 A 
ENDBRANCH   8  23
BRANCH  21   9
ATOM      4  O   UNL     1       0.469   0.628  24.017  0.00  0.00    -0.252 OA
ATOM      9  N   UNL     1       0.412   2.874  23.442  0.00  0.00    -0.265 N 
ATOM     10  N   UNL     1       2.427   1.774  23.412  0.00  0.00    -0.266 N 
ATOM     24  C   UNL     1       1.055   1.648  23.660  0.00  0.00    +0.308 C 
ATOM     38  H   UNL     1       0.997   3.704  23.404  0.00  0.00    +0.157 HD
ATOM     39  H   UNL     1       2.755   2.692  23.124  0.00  0.00    +0.156 HD
BRANCH  10  30
ATOM     30  C   UNL     1       3.423   0.775  23.515  0.00  0.00    +0.077 A 
ATOM     31  C   UNL     1       3.129  -0.536  23.171  0.00  0.00    +0.141 A 
ATOM     32  C   UNL     1       4.685   1.136  23.960  0.00  0.00    +0.027 A 
ATOM     33  C   UNL     1       4.122  -1.509  23.276  0.00  0.00    +0.047 A 
ATOM     34  C   UNL     1       5.678   0.162  24.066  0.00  0.00    +0.002 A 
ATOM     35  C   UNL     1       5.396  -1.161  23.724  0.00  0.00    +0.004 A 
BRANCH  31   5
ATOM      5  O   UNL     1       1.890  -0.896  22.732  0.00  0.00    -0.493 OA
ATOM     36  C   UNL     1       1.599  -0.661  21.355  0.00  0.00    +0.277 C 
ENDBRANCH  31   5
ENDBRANCH  10  30
ENDBRANCH  21   9
TORSDOF 4
ENDMDL
MODEL 3
REMARK VINA RESULT:      11.5     17.663     19.282
REMARK  Name = 11885930
REMARK  5 active torsions:
REMARK  status: ('A' for Active; 'I' for Inactive)
REMARK    1  A    between atoms: O_5  and  C_31
REMARK    2  A    between atoms: O_5  and  C_36
REMARK    3  A    between atoms: N_8  and  C_23
REMARK    4  A    between atoms: N_9  and  C_21
REMARK    5  A    between atoms: N_10  and  C_30
REMARK                            x       y       z     vdW  Elec       q    Type
REMARK                         _______ _______ _______ _____ _____    ______ ____
ROOT
ATOM      2  O   UNL     1      -0.439   3.082  25.984  0.00  0.00    -0.266 OA
ATOM      3  O   UNL     1      -4.476  -0.147  26.742  0.00  0.00    -0.252 OA
ATOM      6  N   UNL     1      -5.221   1.664  25.509  0.00  0.00    -0.284 N 
ATOM      7  N   UNL     1      -2.572   3.388  25.079  0.00  0.00    -0.310 N 
ATOM      8  N   UNL     1      -4.725  -0.385  24.449  0.00  0.00    -0.269 N 
ATOM     11  C   UNL     1      -4.631   3.873  26.519  0.00  0.00    +0.027 C 
ATOM     12  C   UNL     1      -4.868   3.673  24.081  0.00  0.00    +0.054 C 
ATOM     13  C   UNL     1      -5.165   4.575  25.278  0.00  0.00    +0.018 C 
ATOM     14  C   UNL     1      -5.321   2.510  26.702  0.00  0.00    +0.114 C 
ATOM     15  C   UNL     1      -3.109   3.738  26.401  0.00  0.00    +0.130 C 
ATOM     16  C   UNL     1      -5.602   2.325  24.248  0.00  0.00    +0.119 C 
ATOM     17  C   UNL     1      -3.378   3.429  23.937  0.00  0.00    +0.027 A 
ATOM     18  C   UNL     1      -2.840   3.219  22.724  0.00  0.00    +0.024 A 
ATOM     19  C   UNL     1      -1.191   3.113  25.009  0.00  0.00    +0.273 A 
ATOM     20  C   UNL     1      -4.775   0.331  25.645  0.00  0.00    +0.306 C 
ATOM     21  C   UNL     1      -0.636   2.859  23.642  0.00  0.00    +0.100 A 
ATOM     22  C   UNL     1      -1.442   2.927  22.576  0.00  0.00    +0.030 A 
ATOM     37  H   UNL     1      -5.361  -0.123  23.704  0.00  0.00    +0.156 HD
ENDROOT
BRANCH   8  23
ATOM      1  F   UNL     1      -1.514  -4.748  23.288  0.00  0.00    -0.205 F 
ATOM     23  C   UNL     1      -3.904  -1.502  24.154  0.00  0.00    +0.035 A 
ATOM     25  C   UNL     1      -2.541  -1.451  24.432  0.00  0.00    +0.026 A 
ATOM     26  C   UNL     1      -4.465  -2.642  23.585  0.00  0.00    +0.026 A 
ATOM     27  C   UNL     1      -1.733  -2.549  24.139  0.00  0.00    +0.040 A 
ATOM     28  C   UNL     1      -3.657  -3.740  23.293  0.00  0.00    +0.040 A 
ATOM     29  C   UNL     1      -2.290  -3.694  23.569  0.00  0.00    +0.124 A 
ENDBRANCH   8  23
BRANCH  21   9
ATOM      4  O   UNL     1       0.549   0.286  23.892  0.00  0.00    -0.252 OA
ATOM      9  N   UNL     1       0.692   2.573  23.533  0.00  0.00    -0.265 N 
ATOM     10  N   UNL     1       2.618   1.324  23.500  0.00  0.00    -0.266 N 
ATOM     24  C   UNL     1       1.228   1.285  23.665  0.00  0.00    +0.308 C 
ATOM     38  H   UNL     1       1.338   3.353  23.604  0.00  0.00    +0.157 HD
ATOM     39  H   UNL     1       3.030   2.235  23.319  0.00  0.00    +0.156 HD
BRANCH  10  30
ATOM     30  C   UNL     1       3.530   0.244  23.558  0.00  0.00    +0.077 A 
ATOM     31  C   UNL     1       4.889   0.491  23.685  0.00  0.00    +0.141 A 
ATOM     32  C   UNL     1       3.037  -1.050  23.486  0.00  0.00    +0.027 A 
ATOM     33  C   UNL     1       5.775  -0.584  23.742  0.00  0.00    +0.047 A 
ATOM     34  C   UNL     1       3.924  -2.124  23.542  0.00  0.00    +0.002 A 
ATOM     35  C   UNL     1       5.294  -1.891  23.670  0.00  0.00    +0.004 A 
BRANCH  31   5
ATOM      5  O   UNL     1       5.379   1.760  23.757  0.00  0.00    -0.493 OA
ATOM     36  C   UNL     1       6.648   1.928  24.386  0.00  0.00    +0.277 C 
ENDBRANCH  31   5
ENDBRANCH  10  30
ENDBRANCH  21   9
TORSDOF 4
ENDMDL
