MODEL 1
REMARK VINA RESULT:       9.9      0.000      0.000
REMARK  Name = 7134270
REMARK  10 active torsions:
REMARK  status: ('A' for Active; 'I' for Inactive)
REMARK    1  A    between atoms: N_9  and  C_15
REMARK    2  A    between atoms: N_10  and  C_22
REMARK    3  A    between atoms: C_16  and  C_20
REMARK    4  A    between atoms: C_21  and  C_24
REMARK    5  A    between atoms: C_22  and  C_25
REMARK    6  A    between atoms: C_22  and  C_27
REMARK    7  A    between atoms: C_23  and  C_26
REMARK    8  A    between atoms: C_25  and  C_29
REMARK    9  A    between atoms: C_30  and  C_33
REMARK   10  A    between atoms: C_31  and  C_34
REMARK                            x       y       z     vdW  Elec       q    Type
REMARK                         _______ _______ _______ _____ _____    ______ ____
ROOT
ATOM      5  O   UNL     1      -3.715   0.111  26.487  0.00  0.00    -0.268 OA
ATOM      8  N   UNL     1      -2.009   0.516  24.966  0.00  0.00    -0.285 N 
ATOM     15  C   UNL     1       0.653   1.435  24.169  0.00  0.00    +0.077 C 
ATOM     16  C   UNL     1      -1.189   1.263  25.929  0.00  0.00    +0.164 C 
ATOM     17  C   UNL     1       0.310   1.201  25.643  0.00  0.00    +0.054 C 
ATOM     18  C   UNL     1      -0.170   0.498  23.289  0.00  0.00    +0.041 C 
ATOM     19  C   UNL     1      -1.663   0.668  23.541  0.00  0.00    +0.111 C 
ATOM     21  C   UNL     1      -3.140  -0.189  25.438  0.00  0.00    +0.266 C 
ENDROOT
BRANCH  21  24
ATOM      1  S   UNL     1      -5.060  -2.832  23.214  0.00  0.00    -0.080 S 
ATOM     11  N   UNL     1      -2.804  -2.393  24.399  0.00  0.00    -0.240 NA
ATOM     24  C   UNL     1      -3.622  -1.308  24.636  0.00  0.00    +0.133 A 
ATOM     28  C   UNL     1      -4.880  -1.361  24.078  0.00  0.00    +0.080 A 
ATOM     31  C   UNL     1      -3.458  -3.261  23.658  0.00  0.00    +0.076 A 
ATOM     34  C   UNL     1      -2.906  -4.553  23.199  0.00  0.00    +0.073 C 
ENDBRANCH  21  24
BRANCH  16  20
ATOM      4  O   UNL     1      -1.745   3.347  26.956  0.00  0.00    -0.274 OA
ATOM     10  N   UNL     1      -2.148   3.068  24.680  0.00  0.00    -0.302 N 
ATOM     20  C   UNL     1      -1.711   2.670  25.931  0.00  0.00    +0.234 C 
ATOM     38  H   UNL     1      -2.063   2.433  23.892  0.00  0.00    +0.150 HD
BRANCH  10  22
ATOM     22  C   UNL     1      -2.716   4.371  24.419  0.00  0.00    +0.163 C 
BRANCH  22  27
ATOM      7  O   UNL     1      -1.830   6.546  25.045  0.00  0.00    -0.274 OA
ATOM     12  N   UNL     1      -0.354   4.878  24.486  0.00  0.00    -0.328 N 
ATOM     27  C   UNL     1      -1.619   5.395  24.672  0.00  0.00    +0.231 C 
ATOM     39  H   UNL     1      -0.192   3.921  24.187  0.00  0.00    +0.145 HD
ATOM     40  H   UNL     1       0.469   5.452  24.635  0.00  0.00    +0.145 HD
ENDBRANCH  22  27
BRANCH  22  25
ATOM     25  C   UNL     1      -3.934   4.662  25.305  0.00  0.00    +0.074 C 
BRANCH  25  29
ATOM      3  S   UNL     1      -5.092   2.548  23.963  0.00  0.00    -0.102 S 
ATOM     29  C   UNL     1      -4.898   3.501  25.354  0.00  0.00    -0.008 A 
ATOM     32  C   UNL     1      -5.661   3.104  26.405  0.00  0.00    +0.011 A 
ATOM     35  C   UNL     1      -6.447   1.965  26.066  0.00  0.00    +0.008 A 
ATOM     36  C   UNL     1      -6.235   1.558  24.767  0.00  0.00    +0.045 A 
ENDBRANCH  25  29
ENDBRANCH  22  25
ENDBRANCH  10  22
ENDBRANCH  16  20
BRANCH  15   9
ATOM      6  O   UNL     1       1.904  -0.839  22.943  0.00  0.00    -0.270 OA
ATOM      9  N   UNL     1       2.066   1.249  23.937  0.00  0.00    -0.308 N 
ATOM     23  C   UNL     1       2.578   0.110  23.334  0.00  0.00    +0.254 C 
ATOM     37  H   UNL     1       2.699   2.002  24.192  0.00  0.00    +0.149 HD
BRANCH  23  26
ATOM      2  S   UNL     1       4.869   1.387  22.552  0.00  0.00    +0.041 S 
ATOM     13  N   UNL     1       6.237  -0.601  23.225  0.00  0.00    -0.146 NA
ATOM     14  N   UNL     1       6.346   0.613  22.709  0.00  0.00    -0.110 NA
ATOM     26  C   UNL     1       4.056   0.059  23.192  0.00  0.00    +0.117 A 
ATOM     30  C   UNL     1       4.917  -0.918  23.503  0.00  0.00    +0.081 A 
ATOM     33  C   UNL     1       4.626  -2.244  24.086  0.00  0.00    +0.069 C 
ENDBRANCH  23  26
ENDBRANCH  15   9
TORSDOF 8
ENDMDL
MODEL 2
REMARK VINA RESULT:      11.2      1.347      2.725
REMARK  Name = 7134270
REMARK  10 active torsions:
REMARK  status: ('A' for Active; 'I' for Inactive)
REMARK    1  A    between atoms: N_9  and  C_15
REMARK    2  A    between atoms: N_10  and  C_22
REMARK    3  A    between atoms: C_16  and  C_20
REMARK    4  A    between atoms: C_21  and  C_24
REMARK    5  A    between atoms: C_22  and  C_25
REMARK    6  A    between atoms: C_22  and  C_27
REMARK    7  A    between atoms: C_23  and  C_26
REMARK    8  A    between atoms: C_25  and  C_29
REMARK    9  A    between atoms: C_30  and  C_33
REMARK   10  A    between atoms: C_31  and  C_34
REMARK                            x       y       z     vdW  Elec       q    Type
REMARK                         _______ _______ _______ _____ _____    ______ ____
ROOT
ATOM      5  O   UNL     1      -4.100  -0.489  26.465  0.00  0.00    -0.268 OA
ATOM      8  N   UNL     1      -2.387   0.099  25.012  0.00  0.00    -0.285 N 
ATOM     15  C   UNL     1       0.243   1.190  24.339  0.00  0.00    +0.077 C 
ATOM     16  C   UNL     1      -1.619   0.810  26.043  0.00  0.00    +0.164 C 
ATOM     17  C   UNL     1      -0.114   0.836  25.784  0.00  0.00    +0.054 C 
ATOM     18  C   UNL     1      -0.520   0.282  23.377  0.00  0.00    +0.041 C 
ATOM     19  C   UNL     1      -2.023   0.368  23.610  0.00  0.00    +0.111 C 
ATOM     21  C   UNL     1      -3.493  -0.687  25.410  0.00  0.00    +0.266 C 
ENDROOT
BRANCH  21  24
ATOM      1  S   UNL     1      -5.232  -3.221  22.925  0.00  0.00    -0.080 S 
ATOM     11  N   UNL     1      -3.070  -2.835  24.289  0.00  0.00    -0.240 NA
ATOM     24  C   UNL     1      -3.909  -1.766  24.521  0.00  0.00    +0.133 A 
ATOM     28  C   UNL     1      -5.123  -1.795  23.872  0.00  0.00    +0.080 A 
ATOM     31  C   UNL     1      -3.664  -3.667  23.462  0.00  0.00    +0.076 A 
ATOM     34  C   UNL     1      -3.072  -4.934  22.980  0.00  0.00    +0.073 C 
ENDBRANCH  21  24
BRANCH  16  20
ATOM      4  O   UNL     1      -1.596   3.117  26.661  0.00  0.00    -0.274 OA
ATOM     10  N   UNL     1      -3.474   2.257  25.586  0.00  0.00    -0.302 N 
ATOM     20  C   UNL     1      -2.204   2.189  26.133  0.00  0.00    +0.234 C 
ATOM     38  H   UNL     1      -3.882   1.430  25.161  0.00  0.00    +0.150 HD
BRANCH  10  22
ATOM     22  C   UNL     1      -4.263   3.468  25.568  0.00  0.00    +0.163 C 
BRANCH  22  27
ATOM      7  O   UNL     1      -6.099   1.906  25.261  0.00  0.00    -0.274 OA
ATOM     12  N   UNL     1      -6.586   4.072  25.848  0.00  0.00    -0.328 N 
ATOM     27  C   UNL     1      -5.724   3.047  25.520  0.00  0.00    +0.231 C 
ATOM     39  H   UNL     1      -6.263   5.009  26.070  0.00  0.00    +0.145 HD
ATOM     40  H   UNL     1      -7.589   3.922  25.868  0.00  0.00    +0.145 HD
ENDBRANCH  22  27
BRANCH  22  25
ATOM     25  C   UNL     1      -3.925   4.364  24.370  0.00  0.00    +0.074 C 
BRANCH  25  29
ATOM      3  S   UNL     1      -1.479   3.822  23.213  0.00  0.00    -0.102 S 
ATOM     29  C   UNL     1      -2.452   4.692  24.298  0.00  0.00    -0.008 A 
ATOM     32  C   UNL     1      -1.777   5.627  25.015  0.00  0.00    +0.011 A 
ATOM     35  C   UNL     1      -0.396   5.640  24.667  0.00  0.00    +0.008 A 
ATOM     36  C   UNL     1      -0.097   4.708  23.698  0.00  0.00    +0.045 A 
ENDBRANCH  25  29
ENDBRANCH  22  25
ENDBRANCH  10  22
ENDBRANCH  16  20
BRANCH  15   9
ATOM      6  O   UNL     1       1.576  -0.598  22.530  0.00  0.00    -0.270 OA
ATOM      9  N   UNL     1       1.668   1.083  24.124  0.00  0.00    -0.308 N 
ATOM     23  C   UNL     1       2.220   0.184  23.223  0.00  0.00    +0.254 C 
ATOM     37  H   UNL     1       2.280   1.720  24.625  0.00  0.00    +0.149 HD
BRANCH  23  26
ATOM      2  S   UNL     1       4.499   1.530  22.524  0.00  0.00    +0.041 S 
ATOM     13  N   UNL     1       5.900  -0.413  23.258  0.00  0.00    -0.146 NA
ATOM     14  N   UNL     1       5.992   0.802  22.741  0.00  0.00    -0.110 NA
ATOM     26  C   UNL     1       3.703   0.179  23.138  0.00  0.00    +0.117 A 
ATOM     30  C   UNL     1       4.582  -0.770  23.486  0.00  0.00    +0.081 A 
ATOM     33  C   UNL     1       4.309  -2.103  24.062  0.00  0.00    +0.069 C 
ENDBRANCH  23  26
ENDBRANCH  15   9
TORSDOF 8
ENDMDL
