MODEL 1
REMARK VINA RESULT:       5.4      0.000      0.000
REMARK  Name = 45783933
REMARK  10 active torsions:
REMARK  status: ('A' for Active; 'I' for Inactive)
REMARK    1  A    between atoms: N_2  and  C_13
REMARK    2  A    between atoms: C_8  and  C_12
REMARK    3  A    between atoms: C_9  and  C_13
REMARK    4  A    between atoms: C_11  and  C_16
REMARK    5  A    between atoms: C_12  and  C_17
REMARK    6  A    between atoms: C_12  and  C_18
REMARK    7  A    between atoms: C_15  and  C_21
REMARK    8  A    between atoms: C_16  and  C_24
REMARK    9  A    between atoms: C_26  and  C_28
REMARK   10  A    between atoms: C_28  and  C_30
REMARK                            x       y       z     vdW  Elec       q    Type
REMARK                         _______ _______ _______ _____ _____    ______ ____
ROOT
ATOM      8  C   UNL     1      -3.210   1.817  23.437  0.00  0.00    +0.000 C 
ATOM      9  C   UNL     1      -3.982   3.123  23.744  0.00  0.00    +0.029 C 
ATOM     10  C   UNL     1      -4.174   0.620  23.399  0.00  0.00    +0.012 C 
ATOM     11  C   UNL     1      -4.929   0.440  24.730  0.00  0.00    +0.024 C 
ATOM     14  C   UNL     1      -5.070   2.939  24.775  0.00  0.00    -0.023 C 
ATOM     15  C   UNL     1      -5.497   1.749  25.238  0.00  0.00    -0.073 C 
ATOM     21  C   UNL     1      -6.598   1.660  26.257  0.00  0.00    +0.039 C 
ENDROOT
BRANCH   8  12
ATOM     12  C   UNL     1      -2.443   1.907  22.114  0.00  0.00    -0.013 C 
ATOM     17  C   UNL     1      -3.135   2.879  21.163  0.00  0.00    +0.007 C 
ATOM     18  C   UNL     1      -2.318   0.527  21.477  0.00  0.00    +0.007 C 
ENDBRANCH   8  12
BRANCH   9  13
ATOM     13  C   UNL     1      -3.031   4.235  24.200  0.00  0.00    +0.092 C 
BRANCH  13   2
ATOM      2  N   UNL     1      -1.837   3.668  24.827  0.00  0.00    -0.299 NA
ATOM      3  N   UNL     1      -0.012   3.143  26.962  0.00  0.00    -0.313 N 
ATOM      6  N   UNL     1       2.264   2.951  27.581  0.00  0.00    -0.240 NA
ATOM     19  C   UNL     1      -0.969   4.735  25.340  0.00  0.00    +0.103 C 
ATOM     20  C   UNL     1      -2.211   2.760  25.919  0.00  0.00    +0.103 C 
ATOM     22  C   UNL     1       0.311   4.157  25.948  0.00  0.00    +0.122 C 
ATOM     23  C   UNL     1      -0.972   2.116  26.547  0.00  0.00    +0.122 C 
ATOM     25  C   UNL     1       0.961   2.839  27.920  0.00  0.00    +0.121 A 
ATOM     27  C   UNL     1       0.515   2.436  29.170  0.00  0.00    +0.043 A 
ATOM     29  C   UNL     1       1.470   2.130  30.132  0.00  0.00    +0.005 A 
ATOM     31  C   UNL     1       3.163   2.644  28.542  0.00  0.00    +0.113 A 
ATOM     32  C   UNL     1       2.822   2.233  29.821  0.00  0.00    +0.020 A 
ENDBRANCH  13   2
ENDBRANCH   9  13
BRANCH  11  16
ATOM     16  C   UNL     1      -4.037  -0.219  25.788  0.00  0.00    +0.105 C 
BRANCH  16  24
ATOM      1  O   UNL     1      -1.739  -0.899  25.326  0.00  0.00    -0.424 OA
ATOM      4  N   UNL     1      -3.289  -2.266  24.470  0.00  0.00    -0.112 NA
ATOM      5  N   UNL     1      -2.045  -2.767  24.134  0.00  0.00    -0.112 NA
ATOM     24  C   UNL     1      -3.062  -1.177  25.166  0.00  0.00    +0.218 A 
ATOM     26  C   UNL     1      -1.171  -1.937  24.654  0.00  0.00    +0.222 A 
BRANCH  26  28
ATOM     28  C   UNL     1       0.296  -1.974  24.610  0.00  0.00    +0.135 C 
BRANCH  28  30
ATOM      7  N   UNL     1       1.220   1.228  23.005  0.00  0.00    -0.360 N 
ATOM     30  C   UNL     1       0.946  -0.758  23.958  0.00  0.00    -0.013 A 
ATOM     33  C   UNL     1       2.331  -0.584  23.683  0.00  0.00    +0.003 A 
ATOM     34  C   UNL     1       0.289   0.372  23.531  0.00  0.00    +0.087 A 
ATOM     35  C   UNL     1       2.476   0.670  23.085  0.00  0.00    +0.047 A 
ATOM     36  C   UNL     1       3.480  -1.375  23.884  0.00  0.00    +0.010 A 
ATOM     37  C   UNL     1       3.716   1.174  22.677  0.00  0.00    +0.026 A 
ATOM     38  C   UNL     1       4.726  -0.884  23.482  0.00  0.00    +0.001 A 
ATOM     39  C   UNL     1       4.841   0.372  22.888  0.00  0.00    +0.002 A 
ATOM     40  H   UNL     1       1.015   2.137  22.614  0.00  0.00    +0.165 HD
ENDBRANCH  28  30
ENDBRANCH  26  28
ENDBRANCH  16  24
ENDBRANCH  11  16
TORSDOF 7
ENDMDL
MODEL 2
REMARK VINA RESULT:       7.4      2.551      5.005
REMARK  Name = 45783933
REMARK  10 active torsions:
REMARK  status: ('A' for Active; 'I' for Inactive)
REMARK    1  A    between atoms: N_2  and  C_13
REMARK    2  A    between atoms: C_8  and  C_12
REMARK    3  A    between atoms: C_9  and  C_13
REMARK    4  A    between atoms: C_11  and  C_16
REMARK    5  A    between atoms: C_12  and  C_17
REMARK    6  A    between atoms: C_12  and  C_18
REMARK    7  A    between atoms: C_15  and  C_21
REMARK    8  A    between atoms: C_16  and  C_24
REMARK    9  A    between atoms: C_26  and  C_28
REMARK   10  A    between atoms: C_28  and  C_30
REMARK                            x       y       z     vdW  Elec       q    Type
REMARK                         _______ _______ _______ _____ _____    ______ ____
ROOT
ATOM      8  C   UNL     1      -3.561   3.360  23.033  0.00  0.00    +0.000 C 
ATOM      9  C   UNL     1      -2.260   2.967  23.773  0.00  0.00    +0.029 C 
ATOM     10  C   UNL     1      -4.107   4.690  23.576  0.00  0.00    +0.012 C 
ATOM     11  C   UNL     1      -4.406   4.622  25.086  0.00  0.00    +0.024 C 
ATOM     14  C   UNL     1      -2.308   3.268  25.253  0.00  0.00    -0.023 C 
ATOM     15  C   UNL     1      -3.265   3.994  25.859  0.00  0.00    -0.073 C 
ATOM     21  C   UNL     1      -3.224   4.255  27.339  0.00  0.00    +0.039 C 
ENDROOT
BRANCH   8  12
ATOM     12  C   UNL     1      -3.344   3.469  21.520  0.00  0.00    -0.013 C 
ATOM     17  C   UNL     1      -4.643   3.859  20.822  0.00  0.00    +0.007 C 
ATOM     18  C   UNL     1      -2.806   2.154  20.964  0.00  0.00    +0.007 C 
ENDBRANCH   8  12
BRANCH   9  13
ATOM     13  C   UNL     1      -1.931   1.485  23.565  0.00  0.00    +0.092 C 
BRANCH  13   2
ATOM      2  N   UNL     1      -0.532   1.315  23.171  0.00  0.00    -0.299 NA
ATOM      3  N   UNL     1       2.154   0.378  23.427  0.00  0.00    -0.313 N 
ATOM      6  N   UNL     1       4.444   0.917  23.162  0.00  0.00    -0.240 NA
ATOM     19  C   UNL     1       0.361   1.892  24.183  0.00  0.00    +0.103 C 
ATOM     20  C   UNL     1      -0.219  -0.107  22.980  0.00  0.00    +0.103 C 
ATOM     22  C   UNL     1       1.826   1.771  23.755  0.00  0.00    +0.122 C 
ATOM     23  C   UNL     1       1.226  -0.294  22.512  0.00  0.00    +0.122 C 
ATOM     25  C   UNL     1       3.500  -0.005  23.455  0.00  0.00    +0.121 A 
ATOM     27  C   UNL     1       3.777  -1.322  23.787  0.00  0.00    +0.043 A 
ATOM     29  C   UNL     1       5.110  -1.717  23.820  0.00  0.00    +0.005 A 
ATOM     31  C   UNL     1       5.727   0.496  23.203  0.00  0.00    +0.113 A 
ATOM     32  C   UNL     1       6.110  -0.797  23.523  0.00  0.00    +0.020 A 
ENDBRANCH  13   2
ENDBRANCH   9  13
BRANCH  11  16
ATOM     16  C   UNL     1      -5.724   3.888  25.356  0.00  0.00    +0.105 C 
BRANCH  16  24
ATOM      1  O   UNL     1      -5.514   1.667  24.368  0.00  0.00    -0.424 OA
ATOM      4  N   UNL     1      -5.315   1.702  26.596  0.00  0.00    -0.112 NA
ATOM      5  N   UNL     1      -5.178   0.392  26.176  0.00  0.00    -0.112 NA
ATOM     24  C   UNL     1      -5.508   2.410  25.509  0.00  0.00    +0.218 A 
ATOM     26  C   UNL     1      -5.301   0.419  24.869  0.00  0.00    +0.222 A 
BRANCH  26  28
ATOM     28  C   UNL     1      -5.243  -0.682  23.900  0.00  0.00    +0.135 C 
BRANCH  28  30
ATOM      7  N   UNL     1      -2.777  -3.438  23.954  0.00  0.00    -0.360 N 
ATOM     30  C   UNL     1      -4.074  -1.642  24.092  0.00  0.00    -0.013 A 
ATOM     33  C   UNL     1      -2.902  -1.405  24.864  0.00  0.00    +0.003 A 
ATOM     34  C   UNL     1      -3.968  -2.900  23.545  0.00  0.00    +0.087 A 
ATOM     35  C   UNL     1      -2.105  -2.547  24.760  0.00  0.00    +0.047 A 
ATOM     36  C   UNL     1      -2.441  -0.325  25.644  0.00  0.00    +0.010 A 
ATOM     37  C   UNL     1      -0.866  -2.665  25.400  0.00  0.00    +0.026 A 
ATOM     38  C   UNL     1      -1.204  -0.428  26.288  0.00  0.00    +0.001 A 
ATOM     39  C   UNL     1      -0.429  -1.580  26.167  0.00  0.00    +0.002 A 
ATOM     40  H   UNL     1      -2.440  -4.357  23.702  0.00  0.00    +0.165 HD
ENDBRANCH  28  30
ENDBRANCH  26  28
ENDBRANCH  16  24
ENDBRANCH  11  16
TORSDOF 7
ENDMDL
MODEL 3
REMARK VINA RESULT:       8.5      2.592      5.046
REMARK  Name = 45783933
REMARK  10 active torsions:
REMARK  status: ('A' for Active; 'I' for Inactive)
REMARK    1  A    between atoms: N_2  and  C_13
REMARK    2  A    between atoms: C_8  and  C_12
REMARK    3  A    between atoms: C_9  and  C_13
REMARK    4  A    between atoms: C_11  and  C_16
REMARK    5  A    between atoms: C_12  and  C_17
REMARK    6  A    between atoms: C_12  and  C_18
REMARK    7  A    between atoms: C_15  and  C_21
REMARK    8  A    between atoms: C_16  and  C_24
REMARK    9  A    between atoms: C_26  and  C_28
REMARK   10  A    between atoms: C_28  and  C_30
REMARK                            x       y       z     vdW  Elec       q    Type
REMARK                         _______ _______ _______ _____ _____    ______ ____
ROOT
ATOM      8  C   UNL     1      -3.500   3.321  23.142  0.00  0.00    +0.000 C 
ATOM      9  C   UNL     1      -2.208   2.991  23.930  0.00  0.00    +0.029 C 
ATOM     10  C   UNL     1      -4.079   4.669  23.602  0.00  0.00    +0.012 C 
ATOM     11  C   UNL     1      -4.409   4.677  25.106  0.00  0.00    +0.024 C 
ATOM     14  C   UNL     1      -2.293   3.370  25.389  0.00  0.00    -0.023 C 
ATOM     15  C   UNL     1      -3.274   4.110  25.936  0.00  0.00    -0.073 C 
ATOM     21  C   UNL     1      -3.269   4.451  27.399  0.00  0.00    +0.039 C 
ENDROOT
BRANCH   8  12
ATOM     12  C   UNL     1      -3.252   3.352  21.631  0.00  0.00    -0.013 C 
ATOM     17  C   UNL     1      -4.506   3.816  20.895  0.00  0.00    +0.007 C 
ATOM     18  C   UNL     1      -2.813   1.978  21.135  0.00  0.00    +0.007 C 
ENDBRANCH   8  12
BRANCH   9  13
ATOM     13  C   UNL     1      -1.851   1.505  23.808  0.00  0.00    +0.092 C 
BRANCH  13   2
ATOM      2  N   UNL     1      -0.467   1.340  23.362  0.00  0.00    -0.299 NA
ATOM      3  N   UNL     1       2.221   0.385  23.502  0.00  0.00    -0.313 N 
ATOM      6  N   UNL     1       4.503   0.922  23.174  0.00  0.00    -0.240 NA
ATOM     19  C   UNL     1       0.463   1.887  24.358  0.00  0.00    +0.103 C 
ATOM     20  C   UNL     1      -0.169  -0.078  23.125  0.00  0.00    +0.103 C 
ATOM     22  C   UNL     1       1.911   1.772  23.877  0.00  0.00    +0.122 C 
ATOM     23  C   UNL     1       1.259  -0.258  22.603  0.00  0.00    +0.122 C 
ATOM     25  C   UNL     1       3.565  -0.003  23.475  0.00  0.00    +0.121 A 
ATOM     27  C   UNL     1       3.847  -1.329  23.764  0.00  0.00    +0.043 A 
ATOM     29  C   UNL     1       5.178  -1.730  23.741  0.00  0.00    +0.005 A 
ATOM     31  C   UNL     1       5.785   0.495  23.160  0.00  0.00    +0.113 A 
ATOM     32  C   UNL     1       6.172  -0.807  23.433  0.00  0.00    +0.020 A 
ENDBRANCH  13   2
ENDBRANCH   9  13
BRANCH  11  16
ATOM     16  C   UNL     1      -5.720   3.935  25.389  0.00  0.00    +0.105 C 
BRANCH  16  24
ATOM      1  O   UNL     1      -4.881   1.806  26.235  0.00  0.00    -0.424 OA
ATOM      4  N   UNL     1      -5.964   1.655  24.283  0.00  0.00    -0.112 NA
ATOM      5  N   UNL     1      -5.546   0.386  24.639  0.00  0.00    -0.112 NA
ATOM     24  C   UNL     1      -5.555   2.450  25.243  0.00  0.00    +0.218 A 
ATOM     26  C   UNL     1      -4.919   0.522  25.784  0.00  0.00    +0.222 A 
BRANCH  26  28
ATOM     28  C   UNL     1      -4.269  -0.494  26.622  0.00  0.00    +0.135 C 
BRANCH  28  30
ATOM      7  N   UNL     1      -0.844  -1.487  25.644  0.00  0.00    -0.360 N 
ATOM     30  C   UNL     1      -2.990  -1.082  26.036  0.00  0.00    -0.013 A 
ATOM     33  C   UNL     1      -2.903  -2.078  25.023  0.00  0.00    +0.003 A 
ATOM     34  C   UNL     1      -1.708  -0.740  26.398  0.00  0.00    +0.087 A 
ATOM     35  C   UNL     1      -1.545  -2.314  24.796  0.00  0.00    +0.047 A 
ATOM     36  C   UNL     1      -3.852  -2.803  24.274  0.00  0.00    +0.010 A 
ATOM     37  C   UNL     1      -1.087  -3.242  23.854  0.00  0.00    +0.026 A 
ATOM     38  C   UNL     1      -3.408  -3.734  23.329  0.00  0.00    +0.001 A 
ATOM     39  C   UNL     1      -2.047  -3.950  23.124  0.00  0.00    +0.002 A 
ATOM     40  H   UNL     1       0.164  -1.440  25.702  0.00  0.00    +0.165 HD
ENDBRANCH  28  30
ENDBRANCH  26  28
ENDBRANCH  16  24
ENDBRANCH  11  16
TORSDOF 7
ENDMDL
MODEL 4
REMARK VINA RESULT:       9.1      1.989      5.376
REMARK  Name = 45783933
REMARK  10 active torsions:
REMARK  status: ('A' for Active; 'I' for Inactive)
REMARK    1  A    between atoms: N_2  and  C_13
REMARK    2  A    between atoms: C_8  and  C_12
REMARK    3  A    between atoms: C_9  and  C_13
REMARK    4  A    between atoms: C_11  and  C_16
REMARK    5  A    between atoms: C_12  and  C_17
REMARK    6  A    between atoms: C_12  and  C_18
REMARK    7  A    between atoms: C_15  and  C_21
REMARK    8  A    between atoms: C_16  and  C_24
REMARK    9  A    between atoms: C_26  and  C_28
REMARK   10  A    between atoms: C_28  and  C_30
REMARK                            x       y       z     vdW  Elec       q    Type
REMARK                         _______ _______ _______ _____ _____    ______ ____
ROOT
ATOM      8  C   UNL     1      -3.921   2.401  24.365  0.00  0.00    +0.000 C 
ATOM      9  C   UNL     1      -2.902   2.306  23.202  0.00  0.00    +0.029 C 
ATOM     10  C   UNL     1      -4.156   3.869  24.753  0.00  0.00    +0.012 C 
ATOM     11  C   UNL     1      -2.854   4.571  25.186  0.00  0.00    +0.024 C 
ATOM     14  C   UNL     1      -1.765   3.292  23.331  0.00  0.00    -0.023 C 
ATOM     15  C   UNL     1      -1.720   4.301  24.219  0.00  0.00    -0.073 C 
ATOM     21  C   UNL     1      -0.551   5.245  24.266  0.00  0.00    +0.039 C 
ENDROOT
BRANCH   8  12
ATOM     12  C   UNL     1      -5.256   1.740  24.006  0.00  0.00    -0.013 C 
ATOM     17  C   UNL     1      -6.325   2.110  25.029  0.00  0.00    +0.007 C 
ATOM     18  C   UNL     1      -5.093   0.226  23.919  0.00  0.00    +0.007 C 
ENDBRANCH   8  12
BRANCH   9  13
ATOM     13  C   UNL     1      -2.336   0.887  23.077  0.00  0.00    +0.092 C 
BRANCH  13   2
ATOM      2  N   UNL     1      -0.902   0.926  22.786  0.00  0.00    -0.299 NA
ATOM      3  N   UNL     1       1.859   0.321  23.196  0.00  0.00    -0.313 N 
ATOM      6  N   UNL     1       4.070   1.165  23.150  0.00  0.00    -0.240 NA
ATOM     19  C   UNL     1      -0.167   1.536  23.901  0.00  0.00    +0.103 C 
ATOM     20  C   UNL     1      -0.392  -0.427  22.532  0.00  0.00    +0.103 C 
ATOM     22  C   UNL     1       1.327   1.635  23.584  0.00  0.00    +0.122 C 
ATOM     23  C   UNL     1       1.096  -0.394  22.170  0.00  0.00    +0.122 C 
ATOM     25  C   UNL     1       3.238   0.112  23.308  0.00  0.00    +0.121 A 
ATOM     27  C   UNL     1       3.663  -1.180  23.578  0.00  0.00    +0.043 A 
ATOM     29  C   UNL     1       5.030  -1.403  23.692  0.00  0.00    +0.005 A 
ATOM     31  C   UNL     1       5.392   0.909  23.267  0.00  0.00    +0.113 A 
ATOM     32  C   UNL     1       5.919  -0.345  23.534  0.00  0.00    +0.020 A 
ENDBRANCH  13   2
ENDBRANCH   9  13
BRANCH  11  16
ATOM     16  C   UNL     1      -2.463   4.179  26.615  0.00  0.00    +0.105 C 
BRANCH  16  24
ATOM      1  O   UNL     1      -1.715   1.861  26.472  0.00  0.00    -0.424 OA
ATOM      4  N   UNL     1      -0.063   3.342  26.764  0.00  0.00    -0.112 NA
ATOM      5  N   UNL     1       0.500   2.081  26.702  0.00  0.00    -0.112 NA
ATOM     24  C   UNL     1      -1.356   3.166  26.624  0.00  0.00    +0.218 A 
ATOM     26  C   UNL     1      -0.501   1.248  26.531  0.00  0.00    +0.222 A 
BRANCH  26  28
ATOM     28  C   UNL     1      -0.491  -0.214  26.401  0.00  0.00    +0.135 C 
BRANCH  28  30
ATOM      7  N   UNL     1      -4.017  -1.269  26.044  0.00  0.00    -0.360 N 
ATOM     30  C   UNL     1      -1.841  -0.835  26.058  0.00  0.00    -0.013 A 
ATOM     33  C   UNL     1      -2.081  -1.874  25.116  0.00  0.00    +0.003 A 
ATOM     34  C   UNL     1      -3.050  -0.483  26.612  0.00  0.00    +0.087 A 
ATOM     35  C   UNL     1      -3.454  -2.127  25.127  0.00  0.00    +0.047 A 
ATOM     36  C   UNL     1      -1.259  -2.626  24.253  0.00  0.00    +0.010 A 
ATOM     37  C   UNL     1      -4.049  -3.099  24.314  0.00  0.00    +0.026 A 
ATOM     38  C   UNL     1      -1.840  -3.600  23.434  0.00  0.00    +0.001 A 
ATOM     39  C   UNL     1      -3.214  -3.832  23.465  0.00  0.00    +0.002 A 
ATOM     40  H   UNL     1      -5.002  -1.226  26.266  0.00  0.00    +0.165 HD
ENDBRANCH  28  30
ENDBRANCH  26  28
ENDBRANCH  16  24
ENDBRANCH  11  16
TORSDOF 7
ENDMDL
