MODEL 1
REMARK VINA RESULT:      -5.9      0.000      0.000
REMARK  Name = 38028571
REMARK  15 active torsions:
REMARK  status: ('A' for Active; 'I' for Inactive)
REMARK    1  A    between atoms: O_3  and  C_24
REMARK    2  A    between atoms: O_3  and  C_28
REMARK    3  A    between atoms: O_4  and  C_31
REMARK    4  A    between atoms: N_6  and  C_16
REMARK    5  A    between atoms: N_7  and  C_23
REMARK    6  A    between atoms: C_9  and  C_13
REMARK    7  A    between atoms: C_10  and  C_16
REMARK    8  A    between atoms: C_12  and  C_17
REMARK    9  A    between atoms: C_13  and  C_18
REMARK   10  A    between atoms: C_13  and  C_19
REMARK   11  A    between atoms: C_14  and  C_20
REMARK   12  A    between atoms: C_17  and  C_21
REMARK   13  A    between atoms: C_22  and  C_24
REMARK   14  A    between atoms: C_23  and  C_25
REMARK   15  A    between atoms: C_28  and  C_31
REMARK                            x       y       z     vdW  Elec       q    Type
REMARK                         _______ _______ _______ _____ _____    ______ ____
ROOT
ATOM      9  C   UNL     1      -3.475  -0.829  25.052  0.00  0.00    +0.000 C 
ATOM     10  C   UNL     1      -2.262  -0.098  24.424  0.00  0.00    +0.032 C 
ATOM     11  C   UNL     1      -4.743  -0.571  24.224  0.00  0.00    +0.012 C 
ATOM     12  C   UNL     1      -5.077   0.928  24.121  0.00  0.00    +0.023 C 
ATOM     14  C   UNL     1      -3.858   1.754  23.764  0.00  0.00    -0.073 C 
ATOM     15  C   UNL     1      -2.608   1.274  23.893  0.00  0.00    -0.022 C 
ATOM     20  C   UNL     1      -4.108   3.129  23.211  0.00  0.00    +0.039 C 
ENDROOT
BRANCH   9  13
ATOM     13  C   UNL     1      -3.231  -2.337  25.172  0.00  0.00    -0.013 C 
ATOM     18  C   UNL     1      -4.097  -3.096  24.173  0.00  0.00    +0.007 C 
ATOM     19  C   UNL     1      -1.755  -2.656  24.962  0.00  0.00    +0.007 C 
ENDBRANCH   9  13
BRANCH  10  16
ATOM     16  C   UNL     1      -1.107   0.018  25.426  0.00  0.00    +0.112 C 
BRANCH  16   6
ATOM      2  O   UNL     1       0.208  -0.758  22.969  0.00  0.00    -0.273 OA
ATOM      6  N   UNL     1       0.028   0.641  24.821  0.00  0.00    -0.313 N 
ATOM     22  C   UNL     1       0.602   0.200  23.629  0.00  0.00    +0.239 C 
ATOM     32  H   UNL     1       0.401   1.481  25.254  0.00  0.00    +0.149 HD
BRANCH  22  24
ATOM     24  C   UNL     1       1.790   1.044  23.219  0.00  0.00    +0.256 C 
BRANCH  24   3
ATOM      3  O   UNL     1       2.771   0.250  22.587  0.00  0.00    -0.359 OA
BRANCH   3  28
ATOM     28  C   UNL     1       4.074   0.812  22.717  0.00  0.00    +0.280 C 
BRANCH  28  31
ATOM      5  O   UNL     1       6.159   0.021  23.683  0.00  0.00    -0.248 OA
ATOM     31  C   UNL     1       4.970  -0.143  23.455  0.00  0.00    +0.331 C 
BRANCH  31   4
ATOM      4  O   UNL     1       4.266  -1.236  23.846  0.00  0.00    -0.479 OA
ATOM     34  H   UNL     1       4.594  -1.597  24.697  0.00  0.00    +0.295 HD
ENDBRANCH  31   4
ENDBRANCH  28  31
ENDBRANCH   3  28
ENDBRANCH  24   3
ENDBRANCH  22  24
ENDBRANCH  16   6
ENDBRANCH  10  16
BRANCH  12  17
ATOM     17  C   UNL     1      -5.727   1.440  25.411  0.00  0.00    +0.103 C 
BRANCH  17  21
ATOM      1  O   UNL     1      -5.973   3.844  25.501  0.00  0.00    -0.276 OA
ATOM      7  N   UNL     1      -4.050   2.858  26.353  0.00  0.00    -0.311 N 
ATOM     21  C   UNL     1      -5.296   2.850  25.744  0.00  0.00    +0.214 C 
ATOM     33  H   UNL     1      -3.566   1.980  26.517  0.00  0.00    +0.149 HD
BRANCH   7  23
ATOM     23  C   UNL     1      -3.387   4.070  26.780  0.00  0.00    +0.141 C 
BRANCH  23  25
ATOM      8  N   UNL     1      -0.012   3.669  25.123  0.00  0.00    -0.263 NA
ATOM     25  C   UNL     1      -2.174   4.369  25.948  0.00  0.00    -0.012 A 
ATOM     26  C   UNL     1      -2.061   5.566  25.250  0.00  0.00    +0.008 A 
ATOM     27  C   UNL     1      -1.131   3.462  25.853  0.00  0.00    +0.115 A 
ATOM     29  C   UNL     1      -0.925   5.816  24.488  0.00  0.00    +0.020 A 
ATOM     30  C   UNL     1       0.063   4.844  24.458  0.00  0.00    +0.111 A 
ENDBRANCH  23  25
ENDBRANCH   7  23
ENDBRANCH  17  21
ENDBRANCH  12  17
TORSDOF 12
ENDMDL
MODEL 2
REMARK VINA RESULT:      -5.4      1.597      3.281
REMARK  Name = 38028571
REMARK  15 active torsions:
REMARK  status: ('A' for Active; 'I' for Inactive)
REMARK    1  A    between atoms: O_3  and  C_24
REMARK    2  A    between atoms: O_3  and  C_28
REMARK    3  A    between atoms: O_4  and  C_31
REMARK    4  A    between atoms: N_6  and  C_16
REMARK    5  A    between atoms: N_7  and  C_23
REMARK    6  A    between atoms: C_9  and  C_13
REMARK    7  A    between atoms: C_10  and  C_16
REMARK    8  A    between atoms: C_12  and  C_17
REMARK    9  A    between atoms: C_13  and  C_18
REMARK   10  A    between atoms: C_13  and  C_19
REMARK   11  A    between atoms: C_14  and  C_20
REMARK   12  A    between atoms: C_17  and  C_21
REMARK   13  A    between atoms: C_22  and  C_24
REMARK   14  A    between atoms: C_23  and  C_25
REMARK   15  A    between atoms: C_28  and  C_31
REMARK                            x       y       z     vdW  Elec       q    Type
REMARK                         _______ _______ _______ _____ _____    ______ ____
ROOT
ATOM      9  C   UNL     1      -1.239   0.245  24.671  0.00  0.00    +0.000 C 
ATOM     10  C   UNL     1      -0.475  -1.098  24.567  0.00  0.00    +0.032 C 
ATOM     11  C   UNL     1      -2.374   0.137  25.701  0.00  0.00    +0.012 C 
ATOM     12  C   UNL     1      -3.382  -0.971  25.345  0.00  0.00    +0.023 C 
ATOM     14  C   UNL     1      -2.687  -2.263  24.967  0.00  0.00    -0.073 C 
ATOM     15  C   UNL     1      -1.384  -2.303  24.635  0.00  0.00    -0.022 C 
ATOM     20  C   UNL     1      -3.513  -3.519  25.022  0.00  0.00    +0.039 C 
ENDROOT
BRANCH   9  13
ATOM     13  C   UNL     1      -0.308   1.402  25.045  0.00  0.00    -0.013 C 
ATOM     18  C   UNL     1      -0.503   2.573  24.087  0.00  0.00    +0.007 C 
ATOM     19  C   UNL     1      -0.549   1.836  26.487  0.00  0.00    +0.007 C 
ENDBRANCH   9  13
BRANCH  10  16
ATOM     16  C   UNL     1       0.361  -1.161  23.284  0.00  0.00    +0.112 C 
BRANCH  16   6
ATOM      2  O   UNL     1       2.009  -0.264  21.082  0.00  0.00    -0.273 OA
ATOM      6  N   UNL     1       1.449  -0.236  23.342  0.00  0.00    -0.313 N 
ATOM     22  C   UNL     1       2.195   0.143  22.226  0.00  0.00    +0.239 C 
ATOM     32  H   UNL     1       1.654   0.208  24.232  0.00  0.00    +0.149 HD
BRANCH  22  24
ATOM     24  C   UNL     1       3.284   1.135  22.575  0.00  0.00    +0.256 C 
BRANCH  24   3
ATOM      3  O   UNL     1       4.558   0.595  22.294  0.00  0.00    -0.359 OA
BRANCH   3  28
ATOM     28  C   UNL     1       5.358   0.482  23.468  0.00  0.00    +0.280 C 
BRANCH  28  31
ATOM      5  O   UNL     1       4.258  -1.654  23.825  0.00  0.00    -0.248 OA
ATOM     31  C   UNL     1       5.154  -0.869  24.094  0.00  0.00    +0.331 C 
BRANCH  31   4
ATOM      4  O   UNL     1       6.120  -1.107  25.018  0.00  0.00    -0.479 OA
ATOM     34  H   UNL     1       6.886  -0.502  24.910  0.00  0.00    +0.295 HD
ENDBRANCH  31   4
ENDBRANCH  28  31
ENDBRANCH   3  28
ENDBRANCH  24   3
ENDBRANCH  22  24
ENDBRANCH  16   6
ENDBRANCH  10  16
BRANCH  12  17
ATOM     17  C   UNL     1      -4.334  -0.515  24.234  0.00  0.00    +0.103 C 
BRANCH  17  21
ATOM      1  O   UNL     1      -3.865   1.678  23.326  0.00  0.00    -0.276 OA
ATOM      7  N   UNL     1      -5.279   1.476  25.158  0.00  0.00    -0.311 N 
ATOM     21  C   UNL     1      -4.445   0.991  24.163  0.00  0.00    +0.214 C 
ATOM     33  H   UNL     1      -5.719   0.827  25.804  0.00  0.00    +0.149 HD
BRANCH   7  23
ATOM     23  C   UNL     1      -5.568   2.882  25.332  0.00  0.00    +0.141 C 
BRANCH  23  25
ATOM      8  N   UNL     1      -2.827   5.205  24.153  0.00  0.00    -0.263 NA
ATOM     25  C   UNL     1      -4.319   3.715  25.336  0.00  0.00    -0.012 A 
ATOM     26  C   UNL     1      -3.507   3.785  26.463  0.00  0.00    +0.008 A 
ATOM     27  C   UNL     1      -3.938   4.437  24.217  0.00  0.00    +0.115 A 
ATOM     29  C   UNL     1      -2.357   4.564  26.437  0.00  0.00    +0.020 A 
ATOM     30  C   UNL     1      -2.063   5.248  25.267  0.00  0.00    +0.111 A 
ENDBRANCH  23  25
ENDBRANCH   7  23
ENDBRANCH  17  21
ENDBRANCH  12  17
TORSDOF 12
ENDMDL
MODEL 3
REMARK VINA RESULT:      -5.1      1.393      4.017
REMARK  Name = 38028571
REMARK  15 active torsions:
REMARK  status: ('A' for Active; 'I' for Inactive)
REMARK    1  A    between atoms: O_3  and  C_24
REMARK    2  A    between atoms: O_3  and  C_28
REMARK    3  A    between atoms: O_4  and  C_31
REMARK    4  A    between atoms: N_6  and  C_16
REMARK    5  A    between atoms: N_7  and  C_23
REMARK    6  A    between atoms: C_9  and  C_13
REMARK    7  A    between atoms: C_10  and  C_16
REMARK    8  A    between atoms: C_12  and  C_17
REMARK    9  A    between atoms: C_13  and  C_18
REMARK   10  A    between atoms: C_13  and  C_19
REMARK   11  A    between atoms: C_14  and  C_20
REMARK   12  A    between atoms: C_17  and  C_21
REMARK   13  A    between atoms: C_22  and  C_24
REMARK   14  A    between atoms: C_23  and  C_25
REMARK   15  A    between atoms: C_28  and  C_31
REMARK                            x       y       z     vdW  Elec       q    Type
REMARK                         _______ _______ _______ _____ _____    ______ ____
ROOT
ATOM      9  C   UNL     1      -2.426   2.121  23.722  0.00  0.00    +0.000 C 
ATOM     10  C   UNL     1      -1.077   2.804  24.061  0.00  0.00    +0.032 C 
ATOM     11  C   UNL     1      -3.504   3.179  23.437  0.00  0.00    +0.012 C 
ATOM     12  C   UNL     1      -3.723   4.125  24.632  0.00  0.00    +0.023 C 
ATOM     14  C   UNL     1      -2.411   4.633  25.195  0.00  0.00    -0.073 C 
ATOM     15  C   UNL     1      -1.237   4.037  24.919  0.00  0.00    -0.022 C 
ATOM     20  C   UNL     1      -2.473   5.869  26.049  0.00  0.00    +0.039 C 
ENDROOT
BRANCH   9  13
ATOM     13  C   UNL     1      -2.300   1.174  22.526  0.00  0.00    -0.013 C 
ATOM     18  C   UNL     1      -3.372   0.091  22.589  0.00  0.00    +0.007 C 
ATOM     19  C   UNL     1      -2.393   1.952  21.218  0.00  0.00    +0.007 C 
ENDBRANCH   9  13
BRANCH  10  16
ATOM     16  C   UNL     1      -0.119   1.824  24.749  0.00  0.00    +0.112 C 
BRANCH  16   6
ATOM      2  O   UNL     1       0.309  -0.603  23.234  0.00  0.00    -0.273 OA
ATOM      6  N   UNL     1       0.991   1.520  23.901  0.00  0.00    -0.313 N 
ATOM     22  C   UNL     1       1.119   0.320  23.204  0.00  0.00    +0.239 C 
ATOM     32  H   UNL     1       1.694   2.239  23.757  0.00  0.00    +0.149 HD
BRANCH  22  24
ATOM     24  C   UNL     1       2.390   0.266  22.383  0.00  0.00    +0.256 C 
BRANCH  24   3
ATOM      3  O   UNL     1       3.366   1.133  22.919  0.00  0.00    -0.359 OA
BRANCH   3  28
ATOM     28  C   UNL     1       4.683   0.614  22.760  0.00  0.00    +0.280 C 
BRANCH  28  31
ATOM      5  O   UNL     1       5.030  -1.469  23.963  0.00  0.00    -0.248 OA
ATOM     31  C   UNL     1       5.037  -0.247  23.941  0.00  0.00    +0.331 C 
BRANCH  31   4
ATOM      4  O   UNL     1       5.373   0.529  25.002  0.00  0.00    -0.479 OA
ATOM     34  H   UNL     1       5.789   0.007  25.720  0.00  0.00    +0.295 HD
ENDBRANCH  31   4
ENDBRANCH  28  31
ENDBRANCH   3  28
ENDBRANCH  24   3
ENDBRANCH  22  24
ENDBRANCH  16   6
ENDBRANCH  10  16
BRANCH  12  17
ATOM     17  C   UNL     1      -4.565   3.454  25.722  0.00  0.00    +0.103 C 
BRANCH  17  21
ATOM      1  O   UNL     1      -6.107   2.013  24.540  0.00  0.00    -0.276 OA
ATOM      7  N   UNL     1      -4.387   1.071  25.786  0.00  0.00    -0.311 N 
ATOM     21  C   UNL     1      -5.126   2.125  25.269  0.00  0.00    +0.214 C 
ATOM     33  H   UNL     1      -3.586   1.264  26.380  0.00  0.00    +0.149 HD
BRANCH   7  23
ATOM     23  C   UNL     1      -4.696  -0.316  25.521  0.00  0.00    +0.141 C 
BRANCH  23  25
ATOM      8  N   UNL     1      -1.099  -1.446  25.802  0.00  0.00    -0.263 NA
ATOM     25  C   UNL     1      -3.456  -1.146  25.357  0.00  0.00    -0.012 A 
ATOM     26  C   UNL     1      -3.480  -2.337  24.641  0.00  0.00    +0.008 A 
ATOM     27  C   UNL     1      -2.251  -0.747  25.913  0.00  0.00    +0.115 A 
ATOM     29  C   UNL     1      -2.315  -3.085  24.506  0.00  0.00    +0.020 A 
ATOM     30  C   UNL     1      -1.161  -2.599  25.099  0.00  0.00    +0.111 A 
ENDBRANCH  23  25
ENDBRANCH   7  23
ENDBRANCH  17  21
ENDBRANCH  12  17
TORSDOF 12
ENDMDL
MODEL 4
REMARK VINA RESULT:      -5.0      2.083      6.396
REMARK  Name = 38028571
REMARK  15 active torsions:
REMARK  status: ('A' for Active; 'I' for Inactive)
REMARK    1  A    between atoms: O_3  and  C_24
REMARK    2  A    between atoms: O_3  and  C_28
REMARK    3  A    between atoms: O_4  and  C_31
REMARK    4  A    between atoms: N_6  and  C_16
REMARK    5  A    between atoms: N_7  and  C_23
REMARK    6  A    between atoms: C_9  and  C_13
REMARK    7  A    between atoms: C_10  and  C_16
REMARK    8  A    between atoms: C_12  and  C_17
REMARK    9  A    between atoms: C_13  and  C_18
REMARK   10  A    between atoms: C_13  and  C_19
REMARK   11  A    between atoms: C_14  and  C_20
REMARK   12  A    between atoms: C_17  and  C_21
REMARK   13  A    between atoms: C_22  and  C_24
REMARK   14  A    between atoms: C_23  and  C_25
REMARK   15  A    between atoms: C_28  and  C_31
REMARK                            x       y       z     vdW  Elec       q    Type
REMARK                         _______ _______ _______ _____ _____    ______ ____
ROOT
ATOM      9  C   UNL     1      -3.278   1.039  23.612  0.00  0.00    +0.000 C 
ATOM     10  C   UNL     1      -4.582   0.387  24.136  0.00  0.00    +0.032 C 
ATOM     11  C   UNL     1      -2.309  -0.038  23.100  0.00  0.00    +0.012 C 
ATOM     12  C   UNL     1      -1.940  -1.058  24.193  0.00  0.00    +0.023 C 
ATOM     14  C   UNL     1      -3.163  -1.549  24.941  0.00  0.00    -0.073 C 
ATOM     15  C   UNL     1      -4.339  -0.898  24.893  0.00  0.00    -0.022 C 
ATOM     20  C   UNL     1      -3.016  -2.833  25.710  0.00  0.00    +0.039 C 
ENDROOT
BRANCH   9  13
ATOM     13  C   UNL     1      -3.557   2.056  22.501  0.00  0.00    -0.013 C 
ATOM     18  C   UNL     1      -3.699   3.457  23.087  0.00  0.00    +0.007 C 
ATOM     19  C   UNL     1      -2.450   2.017  21.453  0.00  0.00    +0.007 C 
ENDBRANCH   9  13
BRANCH  10  16
ATOM     16  C   UNL     1      -5.370   1.359  25.021  0.00  0.00    +0.112 C 
BRANCH  16   6
ATOM      2  O   UNL     1      -5.736   4.126  25.780  0.00  0.00    -0.273 OA
ATOM      6  N   UNL     1      -4.485   2.164  25.804  0.00  0.00    -0.313 N 
ATOM     22  C   UNL     1      -4.740   3.497  26.124  0.00  0.00    +0.239 C 
ATOM     32  H   UNL     1      -3.654   1.725  26.190  0.00  0.00    +0.149 HD
BRANCH  22  24
ATOM     24  C   UNL     1      -3.637   4.105  26.963  0.00  0.00    +0.256 C 
BRANCH  24   3
ATOM      3  O   UNL     1      -2.708   4.787  26.147  0.00  0.00    -0.359 OA
BRANCH   3  28
ATOM     28  C   UNL     1      -1.635   3.941  25.743  0.00  0.00    +0.280 C 
BRANCH  28  31
ATOM      5  O   UNL     1      -0.548   5.861  24.725  0.00  0.00    -0.248 OA
ATOM     31  C   UNL     1      -0.769   4.659  24.746  0.00  0.00    +0.331 C 
BRANCH  31   4
ATOM      4  O   UNL     1      -0.253   3.777  23.853  0.00  0.00    -0.479 OA
ATOM     34  H   UNL     1       0.021   2.939  24.284  0.00  0.00    +0.295 HD
ENDBRANCH  31   4
ENDBRANCH  28  31
ENDBRANCH   3  28
ENDBRANCH  24   3
ENDBRANCH  22  24
ENDBRANCH  16   6
ENDBRANCH  10  16
BRANCH  12  17
ATOM     17  C   UNL     1      -0.902  -0.479  25.160  0.00  0.00    +0.103 C 
BRANCH  17  21
ATOM      1  O   UNL     1       0.525   1.441  24.800  0.00  0.00    -0.276 OA
ATOM      7  N   UNL     1       0.646  -0.364  23.343  0.00  0.00    -0.311 N 
ATOM     21  C   UNL     1       0.158   0.326  24.442  0.00  0.00    +0.214 C 
ATOM     33  H   UNL     1       0.281  -1.287  23.127  0.00  0.00    +0.149 HD
BRANCH   7  23
ATOM     23  C   UNL     1       1.668   0.165  22.467  0.00  0.00    +0.141 C 
BRANCH  23  25
ATOM      8  N   UNL     1       4.625  -1.591  24.038  0.00  0.00    -0.263 NA
ATOM     25  C   UNL     1       3.048  -0.077  23.006  0.00  0.00    -0.012 A 
ATOM     26  C   UNL     1       4.010   0.926  22.991  0.00  0.00    +0.008 A 
ATOM     27  C   UNL     1       3.403  -1.307  23.536  0.00  0.00    +0.115 A 
ATOM     29  C   UNL     1       5.280   0.673  23.497  0.00  0.00    +0.020 A 
ATOM     30  C   UNL     1       5.535  -0.591  24.006  0.00  0.00    +0.111 A 
ENDBRANCH  23  25
ENDBRANCH   7  23
ENDBRANCH  17  21
ENDBRANCH  12  17
TORSDOF 12
ENDMDL
MODEL 5
REMARK VINA RESULT:      -4.5      2.134      6.521
REMARK  Name = 38028571
REMARK  15 active torsions:
REMARK  status: ('A' for Active; 'I' for Inactive)
REMARK    1  A    between atoms: O_3  and  C_24
REMARK    2  A    between atoms: O_3  and  C_28
REMARK    3  A    between atoms: O_4  and  C_31
REMARK    4  A    between atoms: N_6  and  C_16
REMARK    5  A    between atoms: N_7  and  C_23
REMARK    6  A    between atoms: C_9  and  C_13
REMARK    7  A    between atoms: C_10  and  C_16
REMARK    8  A    between atoms: C_12  and  C_17
REMARK    9  A    between atoms: C_13  and  C_18
REMARK   10  A    between atoms: C_13  and  C_19
REMARK   11  A    between atoms: C_14  and  C_20
REMARK   12  A    between atoms: C_17  and  C_21
REMARK   13  A    between atoms: C_22  and  C_24
REMARK   14  A    between atoms: C_23  and  C_25
REMARK   15  A    between atoms: C_28  and  C_31
REMARK                            x       y       z     vdW  Elec       q    Type
REMARK                         _______ _______ _______ _____ _____    ______ ____
ROOT
ATOM      9  C   UNL     1      -2.845  -1.333  24.485  0.00  0.00    +0.000 C 
ATOM     10  C   UNL     1      -3.413  -0.497  25.660  0.00  0.00    +0.032 C 
ATOM     11  C   UNL     1      -1.336  -1.557  24.668  0.00  0.00    +0.012 C 
ATOM     12  C   UNL     1      -0.555  -0.232  24.746  0.00  0.00    +0.023 C 
ATOM     14  C   UNL     1      -1.212   0.754  25.692  0.00  0.00    -0.073 C 
ATOM     15  C   UNL     1      -2.485   0.611  26.100  0.00  0.00    -0.022 C 
ATOM     20  C   UNL     1      -0.356   1.883  26.195  0.00  0.00    +0.039 C 
ENDROOT
BRANCH   9  13
ATOM     13  C   UNL     1      -3.557  -2.683  24.351  0.00  0.00    -0.013 C 
ATOM     18  C   UNL     1      -4.772  -2.554  23.439  0.00  0.00    +0.007 C 
ATOM     19  C   UNL     1      -2.595  -3.742  23.824  0.00  0.00    +0.007 C 
ENDBRANCH   9  13
BRANCH  10  16
ATOM     16  C   UNL     1      -4.783   0.093  25.307  0.00  0.00    +0.112 C 
BRANCH  16   6
ATOM      2  O   UNL     1      -6.354   2.131  26.626  0.00  0.00    -0.273 OA
ATOM      6  N   UNL     1      -4.693   1.507  25.120  0.00  0.00    -0.313 N 
ATOM     22  C   UNL     1      -5.494   2.424  25.801  0.00  0.00    +0.239 C 
ATOM     32  H   UNL     1      -3.973   1.864  24.500  0.00  0.00    +0.149 HD
BRANCH  22  24
ATOM     24  C   UNL     1      -5.187   3.854  25.410  0.00  0.00    +0.256 C 
BRANCH  24   3
ATOM      3  O   UNL     1      -3.939   3.934  24.754  0.00  0.00    -0.359 OA
BRANCH   3  28
ATOM     28  C   UNL     1      -2.893   4.312  25.645  0.00  0.00    +0.280 C 
BRANCH  28  31
ATOM      5  O   UNL     1      -0.930   5.603  25.031  0.00  0.00    -0.248 OA
ATOM     31  C   UNL     1      -1.650   4.630  24.864  0.00  0.00    +0.331 C 
BRANCH  31   4
ATOM      4  O   UNL     1      -1.426   3.672  23.929  0.00  0.00    -0.479 OA
ATOM     34  H   UNL     1      -1.757   3.940  23.045  0.00  0.00    +0.295 HD
ENDBRANCH  31   4
ENDBRANCH  28  31
ENDBRANCH   3  28
ENDBRANCH  24   3
ENDBRANCH  22  24
ENDBRANCH  16   6
ENDBRANCH  10  16
BRANCH  12  17
ATOM     17  C   UNL     1      -0.371   0.384  23.354  0.00  0.00    +0.103 C 
BRANCH  17  21
ATOM      1  O   UNL     1       1.680   1.614  23.717  0.00  0.00    -0.276 OA
ATOM      7  N   UNL     1       1.590   0.007  22.041  0.00  0.00    -0.311 N 
ATOM     21  C   UNL     1       1.069   0.757  23.085  0.00  0.00    +0.214 C 
ATOM     33  H   UNL     1       1.006  -0.683  21.579  0.00  0.00    +0.149 HD
BRANCH   7  23
ATOM     23  C   UNL     1       2.947   0.153  21.563  0.00  0.00    +0.141 C 
BRANCH  23  25
ATOM      8  N   UNL     1       4.904  -1.655  24.246  0.00  0.00    -0.263 NA
ATOM     25  C   UNL     1       3.954  -0.113  22.644  0.00  0.00    -0.012 A 
ATOM     26  C   UNL     1       4.844   0.873  23.054  0.00  0.00    +0.008 A 
ATOM     27  C   UNL     1       4.024  -1.349  23.267  0.00  0.00    +0.115 A 
ATOM     29  C   UNL     1       5.765   0.597  24.059  0.00  0.00    +0.020 A 
ATOM     30  C   UNL     1       5.754  -0.671  24.618  0.00  0.00    +0.111 A 
ENDBRANCH  23  25
ENDBRANCH   7  23
ENDBRANCH  17  21
ENDBRANCH  12  17
TORSDOF 12
ENDMDL
MODEL 6
REMARK VINA RESULT:      -3.8      1.797      4.433
REMARK  Name = 38028571
REMARK  15 active torsions:
REMARK  status: ('A' for Active; 'I' for Inactive)
REMARK    1  A    between atoms: O_3  and  C_24
REMARK    2  A    between atoms: O_3  and  C_28
REMARK    3  A    between atoms: O_4  and  C_31
REMARK    4  A    between atoms: N_6  and  C_16
REMARK    5  A    between atoms: N_7  and  C_23
REMARK    6  A    between atoms: C_9  and  C_13
REMARK    7  A    between atoms: C_10  and  C_16
REMARK    8  A    between atoms: C_12  and  C_17
REMARK    9  A    between atoms: C_13  and  C_18
REMARK   10  A    between atoms: C_13  and  C_19
REMARK   11  A    between atoms: C_14  and  C_20
REMARK   12  A    between atoms: C_17  and  C_21
REMARK   13  A    between atoms: C_22  and  C_24
REMARK   14  A    between atoms: C_23  and  C_25
REMARK   15  A    between atoms: C_28  and  C_31
REMARK                            x       y       z     vdW  Elec       q    Type
REMARK                         _______ _______ _______ _____ _____    ______ ____
ROOT
ATOM      9  C   UNL     1      -3.228   2.152  24.399  0.00  0.00    +0.000 C 
ATOM     10  C   UNL     1      -2.362   2.486  23.158  0.00  0.00    +0.032 C 
ATOM     11  C   UNL     1      -3.570   3.435  25.174  0.00  0.00    +0.012 C 
ATOM     12  C   UNL     1      -2.310   4.185  25.645  0.00  0.00    +0.023 C 
ATOM     14  C   UNL     1      -1.286   4.318  24.535  0.00  0.00    -0.073 C 
ATOM     15  C   UNL     1      -1.334   3.560  23.425  0.00  0.00    -0.022 C 
ATOM     20  C   UNL     1      -0.232   5.376  24.709  0.00  0.00    +0.039 C 
ENDROOT
BRANCH   9  13
ATOM     13  C   UNL     1      -4.517   1.420  24.014  0.00  0.00    -0.013 C 
ATOM     18  C   UNL     1      -4.227  -0.049  23.725  0.00  0.00    +0.007 C 
ATOM     19  C   UNL     1      -5.559   1.558  25.119  0.00  0.00    +0.007 C 
ENDBRANCH   9  13
BRANCH  10  16
ATOM     16  C   UNL     1      -1.664   1.233  22.618  0.00  0.00    +0.112 C 
BRANCH  16   6
ATOM      2  O   UNL     1       0.449  -0.499  21.670  0.00  0.00    -0.273 OA
ATOM      6  N   UNL     1      -0.337   1.127  23.138  0.00  0.00    -0.313 N 
ATOM     22  C   UNL     1       0.624   0.261  22.619  0.00  0.00    +0.239 C 
ATOM     32  H   UNL     1      -0.066   1.754  23.890  0.00  0.00    +0.149 HD
BRANCH  22  24
ATOM     24  C   UNL     1       1.941   0.355  23.360  0.00  0.00    +0.256 C 
BRANCH  24   3
ATOM      3  O   UNL     1       3.021   0.071  22.497  0.00  0.00    -0.359 OA
BRANCH   3  28
ATOM     28  C   UNL     1       4.101   0.983  22.679  0.00  0.00    +0.280 C 
BRANCH  28  31
ATOM      5  O   UNL     1       6.103  -0.371  22.925  0.00  0.00    -0.248 OA
ATOM     31  C   UNL     1       5.217   0.307  23.424  0.00  0.00    +0.331 C 
BRANCH  31   4
ATOM      4  O   UNL     1       5.111   0.557  24.754  0.00  0.00    -0.479 OA
ATOM     34  H   UNL     1       5.184   1.515  24.952  0.00  0.00    +0.295 HD
ENDBRANCH  31   4
ENDBRANCH  28  31
ENDBRANCH   3  28
ENDBRANCH  24   3
ENDBRANCH  22  24
ENDBRANCH  16   6
ENDBRANCH  10  16
BRANCH  12  17
ATOM     17  C   UNL     1      -1.697   3.515  26.879  0.00  0.00    +0.103 C 
BRANCH  17  21
ATOM      1  O   UNL     1       0.496   2.660  26.322  0.00  0.00    -0.276 OA
ATOM      7  N   UNL     1      -1.312   1.204  26.406  0.00  0.00    -0.311 N 
ATOM     21  C   UNL     1      -0.698   2.443  26.506  0.00  0.00    +0.214 C 
ATOM     33  H   UNL     1      -2.309   1.123  26.581  0.00  0.00    +0.149 HD
BRANCH   7  23
ATOM     23  C   UNL     1      -0.599  -0.006  26.061  0.00  0.00    +0.141 C 
BRANCH  23  25
ATOM      8  N   UNL     1      -1.945  -2.935  24.085  0.00  0.00    -0.263 NA
ATOM     25  C   UNL     1      -1.525  -1.088  25.587  0.00  0.00    -0.012 A 
ATOM     26  C   UNL     1      -2.778  -1.262  26.164  0.00  0.00    +0.008 A 
ATOM     27  C   UNL     1      -1.160  -1.943  24.560  0.00  0.00    +0.115 A 
ATOM     29  C   UNL     1      -3.615  -2.273  25.703  0.00  0.00    +0.020 A 
ATOM     30  C   UNL     1      -3.156  -3.074  24.670  0.00  0.00    +0.111 A 
ENDBRANCH  23  25
ENDBRANCH   7  23
ENDBRANCH  17  21
ENDBRANCH  12  17
TORSDOF 12
ENDMDL
MODEL 7
REMARK VINA RESULT:      -3.6      2.103      6.734
REMARK  Name = 38028571
REMARK  15 active torsions:
REMARK  status: ('A' for Active; 'I' for Inactive)
REMARK    1  A    between atoms: O_3  and  C_24
REMARK    2  A    between atoms: O_3  and  C_28
REMARK    3  A    between atoms: O_4  and  C_31
REMARK    4  A    between atoms: N_6  and  C_16
REMARK    5  A    between atoms: N_7  and  C_23
REMARK    6  A    between atoms: C_9  and  C_13
REMARK    7  A    between atoms: C_10  and  C_16
REMARK    8  A    between atoms: C_12  and  C_17
REMARK    9  A    between atoms: C_13  and  C_18
REMARK   10  A    between atoms: C_13  and  C_19
REMARK   11  A    between atoms: C_14  and  C_20
REMARK   12  A    between atoms: C_17  and  C_21
REMARK   13  A    between atoms: C_22  and  C_24
REMARK   14  A    between atoms: C_23  and  C_25
REMARK   15  A    between atoms: C_28  and  C_31
REMARK                            x       y       z     vdW  Elec       q    Type
REMARK                         _______ _______ _______ _____ _____    ______ ____
ROOT
ATOM      9  C   UNL     1      -2.321   3.426  25.176  0.00  0.00    +0.000 C 
ATOM     10  C   UNL     1      -3.524   3.493  24.202  0.00  0.00    +0.032 C 
ATOM     11  C   UNL     1      -1.002   3.347  24.394  0.00  0.00    +0.012 C 
ATOM     12  C   UNL     1      -0.946   2.121  23.465  0.00  0.00    +0.023 C 
ATOM     14  C   UNL     1      -2.220   1.967  22.659  0.00  0.00    -0.073 C 
ATOM     15  C   UNL     1      -3.359   2.599  22.995  0.00  0.00    -0.022 C 
ATOM     20  C   UNL     1      -2.144   1.106  21.428  0.00  0.00    +0.039 C 
ENDROOT
BRANCH   9  13
ATOM     13  C   UNL     1      -2.291   4.627  26.126  0.00  0.00    -0.013 C 
ATOM     18  C   UNL     1      -2.087   5.919  25.343  0.00  0.00    +0.007 C 
ATOM     19  C   UNL     1      -3.574   4.689  26.948  0.00  0.00    +0.007 C 
ENDBRANCH   9  13
BRANCH  10  16
ATOM     16  C   UNL     1      -4.836   3.150  24.917  0.00  0.00    +0.112 C 
BRANCH  16   6
ATOM      2  O   UNL     1      -3.647   0.647  25.747  0.00  0.00    -0.273 OA
ATOM      6  N   UNL     1      -5.271   1.832  24.574  0.00  0.00    -0.313 N 
ATOM     22  C   UNL     1      -4.636   0.673  25.019  0.00  0.00    +0.239 C 
ATOM     32  H   UNL     1      -6.117   1.736  24.021  0.00  0.00    +0.149 HD
BRANCH  22  24
ATOM     24  C   UNL     1      -5.307  -0.582  24.505  0.00  0.00    +0.256 C 
BRANCH  24   3
ATOM      3  O   UNL     1      -4.428  -1.315  23.680  0.00  0.00    -0.359 OA
BRANCH   3  28
ATOM     28  C   UNL     1      -4.035  -2.545  24.283  0.00  0.00    +0.280 C 
BRANCH  28  31
ATOM      5  O   UNL     1      -1.753  -3.231  23.806  0.00  0.00    -0.248 OA
ATOM     31  C   UNL     1      -2.543  -2.569  24.464  0.00  0.00    +0.331 C 
BRANCH  31   4
ATOM      4  O   UNL     1      -2.181  -1.740  25.475  0.00  0.00    -0.479 OA
ATOM     34  H   UNL     1      -1.592  -2.185  26.121  0.00  0.00    +0.295 HD
ENDBRANCH  31   4
ENDBRANCH  28  31
ENDBRANCH   3  28
ENDBRANCH  24   3
ENDBRANCH  22  24
ENDBRANCH  16   6
ENDBRANCH  10  16
BRANCH  12  17
ATOM     17  C   UNL     1      -0.639   0.843  24.254  0.00  0.00    +0.103 C 
BRANCH  17  21
ATOM      1  O   UNL     1       0.340  -1.271  23.607  0.00  0.00    -0.276 OA
ATOM      7  N   UNL     1       1.249   0.707  22.795  0.00  0.00    -0.311 N 
ATOM     21  C   UNL     1       0.349  -0.046  23.535  0.00  0.00    +0.214 C 
ATOM     33  H   UNL     1       1.173   1.720  22.795  0.00  0.00    +0.149 HD
BRANCH   7  23
ATOM     23  C   UNL     1       2.309   0.121  22.006  0.00  0.00    +0.141 C 
BRANCH  23  25
ATOM      8  N   UNL     1       4.907  -1.578  24.165  0.00  0.00    -0.263 NA
ATOM     25  C   UNL     1       3.555  -0.097  22.814  0.00  0.00    -0.012 A 
ATOM     26  C   UNL     1       4.491   0.918  22.977  0.00  0.00    +0.008 A 
ATOM     27  C   UNL     1       3.807  -1.316  23.423  0.00  0.00    +0.115 A 
ATOM     29  C   UNL     1       5.635   0.687  23.732  0.00  0.00    +0.020 A 
ATOM     30  C   UNL     1       5.795  -0.568  24.301  0.00  0.00    +0.111 A 
ENDBRANCH  23  25
ENDBRANCH   7  23
ENDBRANCH  17  21
ENDBRANCH  12  17
TORSDOF 12
ENDMDL
MODEL 8
REMARK VINA RESULT:      -2.8      2.223      7.011
REMARK  Name = 38028571
REMARK  15 active torsions:
REMARK  status: ('A' for Active; 'I' for Inactive)
REMARK    1  A    between atoms: O_3  and  C_24
REMARK    2  A    between atoms: O_3  and  C_28
REMARK    3  A    between atoms: O_4  and  C_31
REMARK    4  A    between atoms: N_6  and  C_16
REMARK    5  A    between atoms: N_7  and  C_23
REMARK    6  A    between atoms: C_9  and  C_13
REMARK    7  A    between atoms: C_10  and  C_16
REMARK    8  A    between atoms: C_12  and  C_17
REMARK    9  A    between atoms: C_13  and  C_18
REMARK   10  A    between atoms: C_13  and  C_19
REMARK   11  A    between atoms: C_14  and  C_20
REMARK   12  A    between atoms: C_17  and  C_21
REMARK   13  A    between atoms: C_22  and  C_24
REMARK   14  A    between atoms: C_23  and  C_25
REMARK   15  A    between atoms: C_28  and  C_31
REMARK                            x       y       z     vdW  Elec       q    Type
REMARK                         _______ _______ _______ _____ _____    ______ ____
ROOT
ATOM      9  C   UNL     1      -2.597  -1.431  24.298  0.00  0.00    +0.000 C 
ATOM     10  C   UNL     1      -3.323  -0.588  25.376  0.00  0.00    +0.032 C 
ATOM     11  C   UNL     1      -1.096  -1.525  24.613  0.00  0.00    +0.012 C 
ATOM     12  C   UNL     1      -0.427  -0.141  24.682  0.00  0.00    +0.023 C 
ATOM     14  C   UNL     1      -1.233   0.833  25.518  0.00  0.00    -0.073 C 
ATOM     15  C   UNL     1      -2.522   0.610  25.829  0.00  0.00    -0.022 C 
ATOM     20  C   UNL     1      -0.510   2.050  26.027  0.00  0.00    +0.039 C 
ENDROOT
BRANCH   9  13
ATOM     13  C   UNL     1      -3.192  -2.838  24.179  0.00  0.00    -0.013 C 
ATOM     18  C   UNL     1      -3.356  -3.464  25.560  0.00  0.00    +0.007 C 
ATOM     19  C   UNL     1      -4.527  -2.791  23.444  0.00  0.00    +0.007 C 
ENDBRANCH   9  13
BRANCH  10  16
ATOM     16  C   UNL     1      -4.699  -0.126  24.882  0.00  0.00    +0.112 C 
BRANCH  16   6
ATOM      2  O   UNL     1      -3.428   1.457  22.822  0.00  0.00    -0.273 OA
ATOM      6  N   UNL     1      -4.736   1.296  24.741  0.00  0.00    -0.313 N 
ATOM     22  C   UNL     1      -4.092   1.982  23.712  0.00  0.00    +0.239 C 
ATOM     32  H   UNL     1      -5.306   1.827  25.392  0.00  0.00    +0.149 HD
BRANCH  22  24
ATOM     24  C   UNL     1      -4.298   3.479  23.805  0.00  0.00    +0.256 C 
BRANCH  24   3
ATOM      3  O   UNL     1      -3.421   4.046  24.755  0.00  0.00    -0.359 OA
BRANCH   3  28
ATOM     28  C   UNL     1      -3.964   4.004  26.071  0.00  0.00    +0.280 C 
BRANCH  28  31
ATOM      5  O   UNL     1      -6.116   5.021  25.580  0.00  0.00    -0.248 OA
ATOM     31  C   UNL     1      -5.464   4.078  26.006  0.00  0.00    +0.331 C 
BRANCH  31   4
ATOM      4  O   UNL     1      -6.011   2.935  26.490  0.00  0.00    -0.479 OA
ATOM     34  H   UNL     1      -6.989   2.992  26.546  0.00  0.00    +0.295 HD
ENDBRANCH  31   4
ENDBRANCH  28  31
ENDBRANCH   3  28
ENDBRANCH  24   3
ENDBRANCH  22  24
ENDBRANCH  16   6
ENDBRANCH  10  16
BRANCH  12  17
ATOM     17  C   UNL     1      -0.172   0.421  23.279  0.00  0.00    +0.103 C 
BRANCH  17  21
ATOM      1  O   UNL     1       1.827   1.693  23.766  0.00  0.00    -0.276 OA
ATOM      7  N   UNL     1       1.858   0.124  22.053  0.00  0.00    -0.311 N 
ATOM     21  C   UNL     1       1.269   0.837  23.087  0.00  0.00    +0.214 C 
ATOM     33  H   UNL     1       1.314  -0.570  21.549  0.00  0.00    +0.149 HD
BRANCH   7  23
ATOM     23  C   UNL     1       3.231   0.316  21.644  0.00  0.00    +0.141 C 
BRANCH  23  25
ATOM      8  N   UNL     1       5.988   0.605  24.215  0.00  0.00    -0.263 NA
ATOM     25  C   UNL     1       4.198  -0.056  22.731  0.00  0.00    -0.012 A 
ATOM     26  C   UNL     1       4.225  -1.342  23.258  0.00  0.00    +0.008 A 
ATOM     27  C   UNL     1       5.092   0.872  23.239  0.00  0.00    +0.115 A 
ATOM     29  C   UNL     1       5.132  -1.656  24.264  0.00  0.00    +0.020 A 
ATOM     30  C   UNL     1       5.986  -0.656  24.703  0.00  0.00    +0.111 A 
ENDBRANCH  23  25
ENDBRANCH   7  23
ENDBRANCH  17  21
ENDBRANCH  12  17
TORSDOF 12
ENDMDL
MODEL 9
REMARK VINA RESULT:      -2.4      1.746      4.880
REMARK  Name = 38028571
REMARK  15 active torsions:
REMARK  status: ('A' for Active; 'I' for Inactive)
REMARK    1  A    between atoms: O_3  and  C_24
REMARK    2  A    between atoms: O_3  and  C_28
REMARK    3  A    between atoms: O_4  and  C_31
REMARK    4  A    between atoms: N_6  and  C_16
REMARK    5  A    between atoms: N_7  and  C_23
REMARK    6  A    between atoms: C_9  and  C_13
REMARK    7  A    between atoms: C_10  and  C_16
REMARK    8  A    between atoms: C_12  and  C_17
REMARK    9  A    between atoms: C_13  and  C_18
REMARK   10  A    between atoms: C_13  and  C_19
REMARK   11  A    between atoms: C_14  and  C_20
REMARK   12  A    between atoms: C_17  and  C_21
REMARK   13  A    between atoms: C_22  and  C_24
REMARK   14  A    between atoms: C_23  and  C_25
REMARK   15  A    between atoms: C_28  and  C_31
REMARK                            x       y       z     vdW  Elec       q    Type
REMARK                         _______ _______ _______ _____ _____    ______ ____
ROOT
ATOM      9  C   UNL     1      -1.618   3.780  24.637  0.00  0.00    +0.000 C 
ATOM     10  C   UNL     1      -1.763   2.933  25.927  0.00  0.00    +0.032 C 
ATOM     11  C   UNL     1      -2.846   4.685  24.450  0.00  0.00    +0.012 C 
ATOM     12  C   UNL     1      -4.155   3.879  24.360  0.00  0.00    +0.023 C 
ATOM     14  C   UNL     1      -4.248   2.832  25.451  0.00  0.00    -0.073 C 
ATOM     15  C   UNL     1      -3.171   2.431  26.150  0.00  0.00    -0.022 C 
ATOM     20  C   UNL     1      -5.617   2.287  25.753  0.00  0.00    +0.039 C 
ENDROOT
BRANCH   9  13
ATOM     13  C   UNL     1      -0.345   4.631  24.655  0.00  0.00    -0.013 C 
ATOM     18  C   UNL     1       0.360   4.561  23.305  0.00  0.00    +0.007 C 
ATOM     19  C   UNL     1      -0.674   6.074  25.020  0.00  0.00    +0.007 C 
ENDBRANCH   9  13
BRANCH  10  16
ATOM     16  C   UNL     1      -0.793   1.747  25.921  0.00  0.00    +0.112 C 
BRANCH  16   6
ATOM      2  O   UNL     1       0.043  -0.754  24.732  0.00  0.00    -0.273 OA
ATOM      6  N   UNL     1      -0.234   1.555  24.619  0.00  0.00    -0.313 N 
ATOM     22  C   UNL     1       0.144   0.308  24.123  0.00  0.00    +0.239 C 
ATOM     32  H   UNL     1      -0.158   2.361  24.007  0.00  0.00    +0.149 HD
BRANCH  22  24
ATOM     24  C   UNL     1       0.704   0.396  22.719  0.00  0.00    +0.256 C 
BRANCH  24   3
ATOM      3  O   UNL     1       1.946  -0.270  22.635  0.00  0.00    -0.359 OA
BRANCH   3  28
ATOM     28  C   UNL     1       3.038   0.645  22.595  0.00  0.00    +0.280 C 
BRANCH  28  31
ATOM      5  O   UNL     1       5.280   0.626  23.531  0.00  0.00    -0.248 OA
ATOM     31  C   UNL     1       4.220   0.058  23.316  0.00  0.00    +0.331 C 
BRANCH  31   4
ATOM      4  O   UNL     1       3.945  -1.212  23.707  0.00  0.00    -0.479 OA
ATOM     34  H   UNL     1       3.702  -1.784  22.948  0.00  0.00    +0.295 HD
ENDBRANCH  31   4
ENDBRANCH  28  31
ENDBRANCH   3  28
ENDBRANCH  24   3
ENDBRANCH  22  24
ENDBRANCH  16   6
ENDBRANCH  10  16
BRANCH  12  17
ATOM     17  C   UNL     1      -4.320   3.245  22.975  0.00  0.00    +0.103 C 
BRANCH  17  21
ATOM      1  O   UNL     1      -2.168   2.319  22.373  0.00  0.00    -0.276 OA
ATOM      7  N   UNL     1      -3.896   0.893  22.988  0.00  0.00    -0.311 N 
ATOM     21  C   UNL     1      -3.325   2.132  22.738  0.00  0.00    +0.214 C 
ATOM     33  H   UNL     1      -4.863   0.838  23.290  0.00  0.00    +0.149 HD
BRANCH   7  23
ATOM     23  C   UNL     1      -3.176  -0.353  22.841  0.00  0.00    +0.141 C 
BRANCH  23  25
ATOM      8  N   UNL     1      -3.239  -3.360  25.132  0.00  0.00    -0.263 NA
ATOM     25  C   UNL     1      -3.217  -1.176  24.096  0.00  0.00    -0.012 A 
ATOM     26  C   UNL     1      -3.274  -0.573  25.347  0.00  0.00    +0.008 A 
ATOM     27  C   UNL     1      -3.202  -2.560  24.043  0.00  0.00    +0.115 A 
ATOM     29  C   UNL     1      -3.311  -1.362  26.492  0.00  0.00    +0.020 A 
ATOM     30  C   UNL     1      -3.293  -2.739  26.331  0.00  0.00    +0.111 A 
ENDBRANCH  23  25
ENDBRANCH   7  23
ENDBRANCH  17  21
ENDBRANCH  12  17
TORSDOF 12
ENDMDL
MODEL 10
REMARK VINA RESULT:      -2.1      2.289      5.838
REMARK  Name = 38028571
REMARK  15 active torsions:
REMARK  status: ('A' for Active; 'I' for Inactive)
REMARK    1  A    between atoms: O_3  and  C_24
REMARK    2  A    between atoms: O_3  and  C_28
REMARK    3  A    between atoms: O_4  and  C_31
REMARK    4  A    between atoms: N_6  and  C_16
REMARK    5  A    between atoms: N_7  and  C_23
REMARK    6  A    between atoms: C_9  and  C_13
REMARK    7  A    between atoms: C_10  and  C_16
REMARK    8  A    between atoms: C_12  and  C_17
REMARK    9  A    between atoms: C_13  and  C_18
REMARK   10  A    between atoms: C_13  and  C_19
REMARK   11  A    between atoms: C_14  and  C_20
REMARK   12  A    between atoms: C_17  and  C_21
REMARK   13  A    between atoms: C_22  and  C_24
REMARK   14  A    between atoms: C_23  and  C_25
REMARK   15  A    between atoms: C_28  and  C_31
REMARK                            x       y       z     vdW  Elec       q    Type
REMARK                         _______ _______ _______ _____ _____    ______ ____
ROOT
ATOM      9  C   UNL     1      -3.408   3.088  25.502  0.00  0.00    +0.000 C 
ATOM     10  C   UNL     1      -3.535   3.074  23.958  0.00  0.00    +0.032 C 
ATOM     11  C   UNL     1      -2.488   4.232  25.952  0.00  0.00    +0.012 C 
ATOM     12  C   UNL     1      -1.077   4.119  25.347  0.00  0.00    +0.023 C 
ATOM     14  C   UNL     1      -1.123   3.836  23.859  0.00  0.00    -0.073 C 
ATOM     15  C   UNL     1      -2.235   3.382  23.253  0.00  0.00    -0.022 C 
ATOM     20  C   UNL     1       0.125   4.129  23.074  0.00  0.00    +0.039 C 
ENDROOT
BRANCH   9  13
ATOM     13  C   UNL     1      -4.773   3.219  26.184  0.00  0.00    -0.013 C 
ATOM     18  C   UNL     1      -5.600   4.309  25.512  0.00  0.00    +0.007 C 
ATOM     19  C   UNL     1      -5.512   1.886  26.158  0.00  0.00    +0.007 C 
ENDBRANCH   9  13
BRANCH  10  16
ATOM     16  C   UNL     1      -4.080   1.730  23.460  0.00  0.00    +0.112 C 
BRANCH  16   6
ATOM      2  O   UNL     1      -5.362  -0.812  23.970  0.00  0.00    -0.273 OA
ATOM      6  N   UNL     1      -3.576   0.653  24.253  0.00  0.00    -0.313 N 
ATOM     22  C   UNL     1      -4.263  -0.545  24.448  0.00  0.00    +0.239 C 
ATOM     32  H   UNL     1      -2.646   0.745  24.650  0.00  0.00    +0.149 HD
BRANCH  22  24
ATOM     24  C   UNL     1      -3.497  -1.508  25.329  0.00  0.00    +0.256 C 
BRANCH  24   3
ATOM      3  O   UNL     1      -3.220  -2.705  24.636  0.00  0.00    -0.359 OA
BRANCH   3  28
ATOM     28  C   UNL     1      -1.901  -3.177  24.897  0.00  0.00    +0.280 C 
BRANCH  28  31
ATOM      5  O   UNL     1      -0.787  -1.596  23.427  0.00  0.00    -0.248 OA
ATOM     31  C   UNL     1      -0.899  -2.120  24.525  0.00  0.00    +0.331 C 
BRANCH  31   4
ATOM      4  O   UNL     1      -0.120  -1.816  25.594  0.00  0.00    -0.479 OA
ATOM     34  H   UNL     1       0.240  -2.621  26.024  0.00  0.00    +0.295 HD
ENDBRANCH  31   4
ENDBRANCH  28  31
ENDBRANCH   3  28
ENDBRANCH  24   3
ENDBRANCH  22  24
ENDBRANCH  16   6
ENDBRANCH  10  16
BRANCH  12  17
ATOM     17  C   UNL     1      -0.244   3.063  26.081  0.00  0.00    +0.103 C 
BRANCH  17  21
ATOM      1  O   UNL     1      -0.971   0.810  25.583  0.00  0.00    -0.276 OA
ATOM      7  N   UNL     1       0.769   1.747  24.363  0.00  0.00    -0.311 N 
ATOM     21  C   UNL     1      -0.215   1.746  25.339  0.00  0.00    +0.214 C 
ATOM     33  H   UNL     1       1.346   2.573  24.233  0.00  0.00    +0.149 HD
BRANCH   7  23
ATOM     23  C   UNL     1       1.026   0.617  23.498  0.00  0.00    +0.141 C 
BRANCH  23  25
ATOM      8  N   UNL     1       4.280  -1.300  23.703  0.00  0.00    -0.263 NA
ATOM     25  C   UNL     1       2.491   0.301  23.409  0.00  0.00    -0.012 A 
ATOM     26  C   UNL     1       3.406   1.254  22.974  0.00  0.00    +0.008 A 
ATOM     27  C   UNL     1       2.975  -0.950  23.758  0.00  0.00    +0.115 A 
ATOM     29  C   UNL     1       4.756   0.932  22.903  0.00  0.00    +0.020 A 
ATOM     30  C   UNL     1       5.139  -0.347  23.275  0.00  0.00    +0.111 A 
ENDBRANCH  23  25
ENDBRANCH   7  23
ENDBRANCH  17  21
ENDBRANCH  12  17
TORSDOF 12
ENDMDL
