MODEL 1
REMARK VINA RESULT:       7.4      0.000      0.000
REMARK  Name = 26743324
REMARK  10 active torsions:
REMARK  status: ('A' for Active; 'I' for Inactive)
REMARK    1  A    between atoms: C_8  and  C_12
REMARK    2  A    between atoms: C_9  and  C_14
REMARK    3  A    between atoms: C_12  and  C_15
REMARK    4  A    between atoms: C_14  and  C_21
REMARK    5  A    between atoms: C_16  and  C_22
REMARK    6  A    between atoms: C_24  and  C_25
REMARK    7  A    between atoms: C_26  and  C_27
REMARK    8  A    between atoms: C_26  and  C_32
REMARK    9  A    between atoms: C_26  and  C_33
REMARK   10  A    between atoms: C_26  and  C_34
REMARK                            x       y       z     vdW  Elec       q    Type
REMARK                         _______ _______ _______ _____ _____    ______ ____
ROOT
ATOM      4  N   UNL     1      -2.362  -2.783  24.248  0.00  0.00    -0.316 NA
ATOM      8  C   UNL     1      -4.540  -0.803  24.033  0.00  0.00    +0.004 C 
ATOM      9  C   UNL     1      -3.173  -0.624  23.328  0.00  0.00    +0.012 C 
ATOM     10  C   UNL     1      -4.785  -2.302  24.279  0.00  0.00    +0.019 C 
ATOM     11  C   UNL     1      -2.049  -1.364  24.072  0.00  0.00    +0.085 C 
ATOM     13  C   UNL     1      -3.610  -2.978  24.984  0.00  0.00    +0.081 C 
ATOM     35  H   UNL     1      -1.600  -3.237  24.751  0.00  0.00    +0.122 HD
ENDROOT
BRANCH   8  12
ATOM     12  C   UNL     1      -4.679  -0.007  25.337  0.00  0.00    +0.100 C 
BRANCH  12  15
ATOM      1  O   UNL     1      -6.204   1.503  24.334  0.00  0.00    -0.276 OA
ATOM      5  N   UNL     1      -4.497   2.442  25.601  0.00  0.00    -0.301 N 
ATOM     15  C   UNL     1      -5.202   1.376  25.042  0.00  0.00    +0.216 C 
ATOM     16  C   UNL     1      -2.593   4.618  25.677  0.00  0.00    +0.078 C 
ATOM     17  C   UNL     1      -3.302   2.321  26.446  0.00  0.00    +0.108 C 
ATOM     18  C   UNL     1      -4.966   3.813  25.396  0.00  0.00    +0.108 C 
ATOM     19  C   UNL     1      -2.158   3.165  25.888  0.00  0.00    +0.032 C 
ATOM     20  C   UNL     1      -3.857   4.688  24.816  0.00  0.00    +0.032 C 
BRANCH  16  22
ATOM      3  O   UNL     1      -1.672   6.521  24.565  0.00  0.00    -0.276 OA
ATOM      7  N   UNL     1      -0.302   4.713  24.946  0.00  0.00    -0.329 N 
ATOM     22  C   UNL     1      -1.496   5.392  25.015  0.00  0.00    +0.214 C 
ATOM     36  H   UNL     1      -0.186   3.774  25.314  0.00  0.00    +0.145 HD
ATOM     37  H   UNL     1       0.514   5.135  24.514  0.00  0.00    +0.145 HD
ENDBRANCH  16  22
ENDBRANCH  12  15
ENDBRANCH   8  12
BRANCH   9  14
ATOM     14  C   UNL     1      -2.799   0.843  23.112  0.00  0.00    +0.064 C 
BRANCH  14  21
ATOM      2  O   UNL     1       0.542   2.118  23.524  0.00  0.00    -0.354 OA
ATOM      6  N   UNL     1      -0.837   2.278  23.468  0.00  0.00    -0.083 NA
ATOM     21  C   UNL     1      -1.319   1.053  23.235  0.00  0.00    +0.085 A 
ATOM     23  C   UNL     1      -0.300   0.090  23.135  0.00  0.00    +0.076 A 
ATOM     24  C   UNL     1       0.850   0.812  23.323  0.00  0.00    +0.167 A 
BRANCH  24  25
ATOM     25  C   UNL     1       2.247   0.490  23.353  0.00  0.00    +0.020 A 
ATOM     27  C   UNL     1       4.965  -0.135  23.415  0.00  0.00    -0.042 A 
ATOM     28  C   UNL     1       3.194   1.463  23.030  0.00  0.00    +0.012 A 
ATOM     29  C   UNL     1       2.660  -0.795  23.707  0.00  0.00    +0.012 A 
ATOM     30  C   UNL     1       4.553   1.150  23.061  0.00  0.00    +0.005 A 
ATOM     31  C   UNL     1       4.018  -1.107  23.737  0.00  0.00    +0.005 A 
BRANCH  27  26
ATOM     26  C   UNL     1       6.418  -0.469  23.447  0.00  0.00    -0.013 C 
ATOM     32  C   UNL     1       6.737  -1.502  24.572  0.00  0.00    +0.015 C 
ATOM     33  C   UNL     1       7.284   0.801  23.716  0.00  0.00    +0.015 C 
ATOM     34  C   UNL     1       6.993  -1.093  22.133  0.00  0.00    +0.015 C 
ENDBRANCH  27  26
ENDBRANCH  24  25
ENDBRANCH  14  21
ENDBRANCH   9  14
TORSDOF 7
ENDMDL
MODEL 2
REMARK VINA RESULT:       8.9      1.955      2.992
REMARK  Name = 26743324
REMARK  10 active torsions:
REMARK  status: ('A' for Active; 'I' for Inactive)
REMARK    1  A    between atoms: C_8  and  C_12
REMARK    2  A    between atoms: C_9  and  C_14
REMARK    3  A    between atoms: C_12  and  C_15
REMARK    4  A    between atoms: C_14  and  C_21
REMARK    5  A    between atoms: C_16  and  C_22
REMARK    6  A    between atoms: C_24  and  C_25
REMARK    7  A    between atoms: C_26  and  C_27
REMARK    8  A    between atoms: C_26  and  C_32
REMARK    9  A    between atoms: C_26  and  C_33
REMARK   10  A    between atoms: C_26  and  C_34
REMARK                            x       y       z     vdW  Elec       q    Type
REMARK                         _______ _______ _______ _____ _____    ______ ____
ROOT
ATOM      4  N   UNL     1      -5.169   0.322  26.114  0.00  0.00    -0.316 NA
ATOM      8  C   UNL     1      -5.841   2.551  24.300  0.00  0.00    +0.004 C 
ATOM      9  C   UNL     1      -4.683   1.563  24.018  0.00  0.00    +0.012 C 
ATOM     10  C   UNL     1      -6.873   1.867  25.213  0.00  0.00    +0.019 C 
ATOM     11  C   UNL     1      -4.120   0.962  25.317  0.00  0.00    +0.085 C 
ATOM     13  C   UNL     1      -6.236   1.258  26.461  0.00  0.00    +0.081 C 
ATOM     35  H   UNL     1      -4.760  -0.056  26.968  0.00  0.00    +0.122 HD
ENDROOT
BRANCH   8  12
ATOM     12  C   UNL     1      -5.389   3.890  24.896  0.00  0.00    +0.100 C 
BRANCH  12  15
ATOM      1  O   UNL     1      -4.015   4.526  23.074  0.00  0.00    -0.276 OA
ATOM      5  N   UNL     1      -2.990   4.417  25.157  0.00  0.00    -0.301 N 
ATOM     15  C   UNL     1      -4.075   4.307  24.287  0.00  0.00    +0.216 C 
ATOM     16  C   UNL     1      -0.577   3.574  26.512  0.00  0.00    +0.078 C 
ATOM     17  C   UNL     1      -3.030   4.162  26.602  0.00  0.00    +0.108 C 
ATOM     18  C   UNL     1      -1.690   4.857  24.648  0.00  0.00    +0.108 C 
ATOM     19  C   UNL     1      -1.963   3.145  27.002  0.00  0.00    +0.032 C 
ATOM     20  C   UNL     1      -0.595   3.855  25.007  0.00  0.00    +0.032 C 
BRANCH  16  22
ATOM      3  O   UNL     1       1.497   2.745  27.359  0.00  0.00    -0.276 OA
ATOM      7  N   UNL     1       0.042   1.252  26.385  0.00  0.00    -0.329 N 
ATOM     22  C   UNL     1       0.427   2.504  26.806  0.00  0.00    +0.214 C 
ATOM     36  H   UNL     1      -0.843   1.082  25.919  0.00  0.00    +0.145 HD
ATOM     37  H   UNL     1       0.643   0.447  26.526  0.00  0.00    +0.145 HD
ENDBRANCH  16  22
ENDBRANCH  12  15
ENDBRANCH   8  12
BRANCH   9  14
ATOM     14  C   UNL     1      -3.561   2.179  23.181  0.00  0.00    +0.064 C 
BRANCH  14  21
ATOM      2  O   UNL     1      -1.002  -0.304  23.678  0.00  0.00    -0.354 OA
ATOM      6  N   UNL     1      -2.330   0.102  23.637  0.00  0.00    -0.083 NA
ATOM     21  C   UNL     1      -2.287   1.399  23.316  0.00  0.00    +0.085 A 
ATOM     23  C   UNL     1      -0.971   1.861  23.143  0.00  0.00    +0.076 A 
ATOM     24  C   UNL     1      -0.202   0.752  23.382  0.00  0.00    +0.167 A 
BRANCH  24  25
ATOM     25  C   UNL     1       1.207   0.484  23.384  0.00  0.00    +0.020 A 
ATOM     27  C   UNL     1       3.948  -0.035  23.384  0.00  0.00    -0.042 A 
ATOM     28  C   UNL     1       1.670  -0.817  23.582  0.00  0.00    +0.012 A 
ATOM     29  C   UNL     1       2.115   1.525  23.186  0.00  0.00    +0.012 A 
ATOM     30  C   UNL     1       3.040  -1.076  23.582  0.00  0.00    +0.005 A 
ATOM     31  C   UNL     1       3.484   1.266  23.186  0.00  0.00    +0.005 A 
BRANCH  27  26
ATOM     26  C   UNL     1       5.413  -0.314  23.385  0.00  0.00    -0.013 C 
ATOM     32  C   UNL     1       5.738  -1.631  24.154  0.00  0.00    +0.015 C 
ATOM     33  C   UNL     1       6.208   0.840  24.071  0.00  0.00    +0.015 C 
ATOM     34  C   UNL     1       6.064  -0.484  21.972  0.00  0.00    +0.015 C 
ENDBRANCH  27  26
ENDBRANCH  24  25
ENDBRANCH  14  21
ENDBRANCH   9  14
TORSDOF 7
ENDMDL
MODEL 3
REMARK VINA RESULT:       9.8      2.120      5.091
REMARK  Name = 26743324
REMARK  10 active torsions:
REMARK  status: ('A' for Active; 'I' for Inactive)
REMARK    1  A    between atoms: C_8  and  C_12
REMARK    2  A    between atoms: C_9  and  C_14
REMARK    3  A    between atoms: C_12  and  C_15
REMARK    4  A    between atoms: C_14  and  C_21
REMARK    5  A    between atoms: C_16  and  C_22
REMARK    6  A    between atoms: C_24  and  C_25
REMARK    7  A    between atoms: C_26  and  C_27
REMARK    8  A    between atoms: C_26  and  C_32
REMARK    9  A    between atoms: C_26  and  C_33
REMARK   10  A    between atoms: C_26  and  C_34
REMARK                            x       y       z     vdW  Elec       q    Type
REMARK                         _______ _______ _______ _____ _____    ______ ____
ROOT
ATOM      4  N   UNL     1      -5.049   5.299  25.622  0.00  0.00    -0.316 NA
ATOM      8  C   UNL     1      -2.837   3.372  25.302  0.00  0.00    +0.004 C 
ATOM      9  C   UNL     1      -3.682   3.881  24.109  0.00  0.00    +0.012 C 
ATOM     10  C   UNL     1      -2.892   4.410  26.436  0.00  0.00    +0.019 C 
ATOM     11  C   UNL     1      -5.094   4.301  24.551  0.00  0.00    +0.085 C 
ATOM     13  C   UNL     1      -4.324   4.809  26.792  0.00  0.00    +0.081 C 
ATOM     35  H   UNL     1      -6.000   5.546  25.893  0.00  0.00    +0.122 HD
ENDROOT
BRANCH   8  12
ATOM     12  C   UNL     1      -3.248   1.986  25.812  0.00  0.00    +0.100 C 
BRANCH  12  15
ATOM      1  O   UNL     1      -0.918   1.605  26.008  0.00  0.00    -0.276 OA
ATOM      5  N   UNL     1      -2.270  -0.281  25.887  0.00  0.00    -0.301 N 
ATOM     15  C   UNL     1      -2.037   1.094  25.913  0.00  0.00    +0.216 C 
ATOM     16  C   UNL     1      -2.470  -2.919  24.718  0.00  0.00    +0.078 C 
ATOM     17  C   UNL     1      -3.588  -0.918  25.774  0.00  0.00    +0.108 C 
ATOM     18  C   UNL     1      -1.149  -1.213  26.021  0.00  0.00    +0.108 C 
ATOM     19  C   UNL     1      -3.613  -1.906  24.610  0.00  0.00    +0.032 C 
ATOM     20  C   UNL     1      -1.123  -2.206  24.862  0.00  0.00    +0.032 C 
BRANCH  16  22
ATOM      3  O   UNL     1      -1.408  -4.009  22.876  0.00  0.00    -0.276 OA
ATOM      7  N   UNL     1      -3.672  -4.306  23.160  0.00  0.00    -0.329 N 
ATOM     22  C   UNL     1      -2.442  -3.794  23.504  0.00  0.00    +0.214 C 
ATOM     36  H   UNL     1      -4.514  -4.102  23.689  0.00  0.00    +0.145 HD
ATOM     37  H   UNL     1      -3.779  -4.909  22.352  0.00  0.00    +0.145 HD
ENDBRANCH  16  22
ENDBRANCH  12  15
ENDBRANCH   8  12
BRANCH   9  14
ATOM     14  C   UNL     1      -3.756   2.879  22.957  0.00  0.00    +0.064 C 
BRANCH  14  21
ATOM      2  O   UNL     1      -1.375   0.194  22.670  0.00  0.00    -0.354 OA
ATOM      6  N   UNL     1      -2.666   0.703  22.615  0.00  0.00    -0.083 NA
ATOM     21  C   UNL     1      -2.541   1.998  22.920  0.00  0.00    +0.085 A 
ATOM     23  C   UNL     1      -1.207   2.359  23.174  0.00  0.00    +0.076 A 
ATOM     24  C   UNL     1      -0.515   1.189  23.004  0.00  0.00    +0.167 A 
BRANCH  24  25
ATOM     25  C   UNL     1       0.865   0.812  23.100  0.00  0.00    +0.020 A 
ATOM     27  C   UNL     1       3.550   0.077  23.289  0.00  0.00    -0.042 A 
ATOM     28  C   UNL     1       1.847   1.791  23.253  0.00  0.00    +0.012 A 
ATOM     29  C   UNL     1       1.226  -0.535  23.042  0.00  0.00    +0.012 A 
ATOM     30  C   UNL     1       3.189   1.424  23.347  0.00  0.00    +0.005 A 
ATOM     31  C   UNL     1       2.568  -0.902  23.136  0.00  0.00    +0.005 A 
BRANCH  27  26
ATOM     26  C   UNL     1       4.985  -0.315  23.389  0.00  0.00    -0.013 C 
ATOM     32  C   UNL     1       5.138  -1.768  23.936  0.00  0.00    +0.015 C 
ATOM     33  C   UNL     1       5.765   0.634  24.352  0.00  0.00    +0.015 C 
ATOM     34  C   UNL     1       5.784  -0.290  22.044  0.00  0.00    +0.015 C 
ENDBRANCH  27  26
ENDBRANCH  24  25
ENDBRANCH  14  21
ENDBRANCH   9  14
TORSDOF 7
ENDMDL
MODEL 4
REMARK VINA RESULT:       9.8      1.883      4.737
REMARK  Name = 26743324
REMARK  10 active torsions:
REMARK  status: ('A' for Active; 'I' for Inactive)
REMARK    1  A    between atoms: C_8  and  C_12
REMARK    2  A    between atoms: C_9  and  C_14
REMARK    3  A    between atoms: C_12  and  C_15
REMARK    4  A    between atoms: C_14  and  C_21
REMARK    5  A    between atoms: C_16  and  C_22
REMARK    6  A    between atoms: C_24  and  C_25
REMARK    7  A    between atoms: C_26  and  C_27
REMARK    8  A    between atoms: C_26  and  C_32
REMARK    9  A    between atoms: C_26  and  C_33
REMARK   10  A    between atoms: C_26  and  C_34
REMARK                            x       y       z     vdW  Elec       q    Type
REMARK                         _______ _______ _______ _____ _____    ______ ____
ROOT
ATOM      4  N   UNL     1      -6.705   4.160  26.379  0.00  0.00    -0.316 NA
ATOM      8  C   UNL     1      -4.622   2.336  25.355  0.00  0.00    +0.004 C 
ATOM      9  C   UNL     1      -4.480   3.877  25.313  0.00  0.00    +0.012 C 
ATOM     10  C   UNL     1      -5.597   1.953  26.482  0.00  0.00    +0.019 C 
ATOM     11  C   UNL     1      -5.850   4.573  25.265  0.00  0.00    +0.085 C 
ATOM     13  C   UNL     1      -6.920   2.714  26.392  0.00  0.00    +0.081 C 
ATOM     35  H   UNL     1      -7.604   4.634  26.308  0.00  0.00    +0.122 HD
ENDROOT
BRANCH   8  12
ATOM     12  C   UNL     1      -5.055   1.712  24.024  0.00  0.00    +0.100 C 
BRANCH  12  15
ATOM      1  O   UNL     1      -6.233  -0.283  24.521  0.00  0.00    -0.276 OA
ATOM      5  N   UNL     1      -4.010  -0.521  23.885  0.00  0.00    -0.301 N 
ATOM     15  C   UNL     1      -5.160   0.215  24.167  0.00  0.00    +0.216 C 
ATOM     16  C   UNL     1      -1.574  -1.968  24.469  0.00  0.00    +0.078 C 
ATOM     17  C   UNL     1      -2.721   0.042  23.463  0.00  0.00    +0.108 C 
ATOM     18  C   UNL     1      -4.043  -1.983  23.961  0.00  0.00    +0.108 C 
ATOM     19  C   UNL     1      -1.596  -0.439  24.375  0.00  0.00    +0.032 C 
ATOM     20  C   UNL     1      -2.945  -2.507  24.884  0.00  0.00    +0.032 C 
BRANCH  16  22
ATOM      3  O   UNL     1      -0.012  -3.513  25.407  0.00  0.00    -0.276 OA
ATOM      7  N   UNL     1      -0.278  -1.472  26.436  0.00  0.00    -0.329 N 
ATOM     22  C   UNL     1      -0.545  -2.407  25.463  0.00  0.00    +0.214 C 
ATOM     36  H   UNL     1      -0.743  -0.570  26.466  0.00  0.00    +0.145 HD
ATOM     37  H   UNL     1       0.399  -1.659  27.167  0.00  0.00    +0.145 HD
ENDBRANCH  16  22
ENDBRANCH  12  15
ENDBRANCH   8  12
BRANCH   9  14
ATOM     14  C   UNL     1      -3.589   4.365  24.170  0.00  0.00    +0.064 C 
BRANCH  14  21
ATOM      2  O   UNL     1      -0.186   3.709  25.143  0.00  0.00    -0.354 OA
ATOM      6  N   UNL     1      -1.396   4.378  25.277  0.00  0.00    -0.083 NA
ATOM     21  C   UNL     1      -2.181   3.869  24.324  0.00  0.00    +0.085 A 
ATOM     23  C   UNL     1      -1.527   2.884  23.564  0.00  0.00    +0.076 A 
ATOM     24  C   UNL     1      -0.275   2.822  24.119  0.00  0.00    +0.167 A 
BRANCH  24  25
ATOM     25  C   UNL     1       0.905   2.052  23.859  0.00  0.00    +0.020 A 
ATOM     27  C   UNL     1       3.202   0.553  23.349  0.00  0.00    -0.042 A 
ATOM     28  C   UNL     1       0.908   0.676  24.094  0.00  0.00    +0.012 A 
ATOM     29  C   UNL     1       2.052   2.677  23.369  0.00  0.00    +0.012 A 
ATOM     30  C   UNL     1       2.056  -0.073  23.839  0.00  0.00    +0.005 A 
ATOM     31  C   UNL     1       3.200   1.928  23.114  0.00  0.00    +0.005 A 
BRANCH  27  26
ATOM     26  C   UNL     1       4.430  -0.249  23.077  0.00  0.00    -0.013 C 
ATOM     32  C   UNL     1       4.806  -0.212  21.564  0.00  0.00    +0.015 C 
ATOM     33  C   UNL     1       4.229  -1.744  23.476  0.00  0.00    +0.015 C 
ATOM     34  C   UNL     1       5.717   0.215  23.837  0.00  0.00    +0.015 C 
ENDBRANCH  27  26
ENDBRANCH  24  25
ENDBRANCH  14  21
ENDBRANCH   9  14
TORSDOF 7
ENDMDL
MODEL 5
REMARK VINA RESULT:      10.5      2.022      3.989
REMARK  Name = 26743324
REMARK  10 active torsions:
REMARK  status: ('A' for Active; 'I' for Inactive)
REMARK    1  A    between atoms: C_8  and  C_12
REMARK    2  A    between atoms: C_9  and  C_14
REMARK    3  A    between atoms: C_12  and  C_15
REMARK    4  A    between atoms: C_14  and  C_21
REMARK    5  A    between atoms: C_16  and  C_22
REMARK    6  A    between atoms: C_24  and  C_25
REMARK    7  A    between atoms: C_26  and  C_27
REMARK    8  A    between atoms: C_26  and  C_32
REMARK    9  A    between atoms: C_26  and  C_33
REMARK   10  A    between atoms: C_26  and  C_34
REMARK                            x       y       z     vdW  Elec       q    Type
REMARK                         _______ _______ _______ _____ _____    ______ ____
ROOT
ATOM      4  N   UNL     1      -5.983   2.706  26.901  0.00  0.00    -0.316 NA
ATOM      8  C   UNL     1      -5.942   2.305  23.977  0.00  0.00    +0.004 C 
ATOM      9  C   UNL     1      -6.281   1.170  24.973  0.00  0.00    +0.012 C 
ATOM     10  C   UNL     1      -6.251   3.660  24.638  0.00  0.00    +0.019 C 
ATOM     11  C   UNL     1      -5.624   1.401  26.344  0.00  0.00    +0.085 C 
ATOM     13  C   UNL     1      -5.599   3.801  26.012  0.00  0.00    +0.081 C 
ATOM     35  H   UNL     1      -5.523   2.827  27.803  0.00  0.00    +0.122 HD
ENDROOT
BRANCH   8  12
ATOM     12  C   UNL     1      -4.501   2.269  23.456  0.00  0.00    +0.100 C 
BRANCH  12  15
ATOM      1  O   UNL     1      -3.880   4.538  23.179  0.00  0.00    -0.276 OA
ATOM      5  N   UNL     1      -3.004   3.442  25.032  0.00  0.00    -0.301 N 
ATOM     15  C   UNL     1      -3.772   3.521  23.870  0.00  0.00    +0.216 C 
ATOM     16  C   UNL     1      -0.604   3.113  26.612  0.00  0.00    +0.078 C 
ATOM     17  C   UNL     1      -2.857   2.248  25.874  0.00  0.00    +0.108 C 
ATOM     18  C   UNL     1      -2.300   4.628  25.523  0.00  0.00    +0.108 C 
ATOM     19  C   UNL     1      -1.382   1.908  26.076  0.00  0.00    +0.032 C 
ATOM     20  C   UNL     1      -0.813   4.337  25.717  0.00  0.00    +0.032 C 
BRANCH  16  22
ATOM      3  O   UNL     1       1.514   2.961  27.706  0.00  0.00    -0.276 OA
ATOM      7  N   UNL     1       1.378   2.317  25.502  0.00  0.00    -0.329 N 
ATOM     22  C   UNL     1       0.856   2.792  26.682  0.00  0.00    +0.214 C 
ATOM     36  H   UNL     1       0.814   2.200  24.665  0.00  0.00    +0.145 HD
ATOM     37  H   UNL     1       2.359   2.070  25.427  0.00  0.00    +0.145 HD
ENDBRANCH  16  22
ENDBRANCH  12  15
ENDBRANCH   8  12
BRANCH   9  14
ATOM     14  C   UNL     1      -5.933  -0.220  24.438  0.00  0.00    +0.064 C 
BRANCH  14  21
ATOM      2  O   UNL     1      -2.607  -1.343  25.236  0.00  0.00    -0.354 OA
ATOM      6  N   UNL     1      -3.982  -1.333  25.433  0.00  0.00    -0.083 NA
ATOM     21  C   UNL     1      -4.457  -0.483  24.519  0.00  0.00    +0.085 A 
ATOM     23  C   UNL     1      -3.439   0.069  23.724  0.00  0.00    +0.076 A 
ATOM     24  C   UNL     1      -2.295  -0.504  24.215  0.00  0.00    +0.167 A 
BRANCH  24  25
ATOM     25  C   UNL     1      -0.901  -0.409  23.892  0.00  0.00    +0.020 A 
ATOM     27  C   UNL     1       1.811  -0.223  23.267  0.00  0.00    -0.042 A 
ATOM     28  C   UNL     1      -0.444   0.622  23.071  0.00  0.00    +0.012 A 
ATOM     29  C   UNL     1      -0.002  -1.347  24.400  0.00  0.00    +0.012 A 
ATOM     30  C   UNL     1       0.912   0.715  22.759  0.00  0.00    +0.005 A 
ATOM     31  C   UNL     1       1.354  -1.254  24.087  0.00  0.00    +0.005 A 
BRANCH  27  26
ATOM     26  C   UNL     1       3.261  -0.123  22.931  0.00  0.00    -0.013 C 
ATOM     32  C   UNL     1       3.484  -0.090  21.388  0.00  0.00    +0.015 C 
ATOM     33  C   UNL     1       4.057  -1.341  23.495  0.00  0.00    +0.015 C 
ATOM     34  C   UNL     1       3.992   1.144  23.485  0.00  0.00    +0.015 C 
ENDBRANCH  27  26
ENDBRANCH  24  25
ENDBRANCH  14  21
ENDBRANCH   9  14
TORSDOF 7
ENDMDL
MODEL 6
REMARK VINA RESULT:      10.6      2.173      7.815
REMARK  Name = 26743324
REMARK  10 active torsions:
REMARK  status: ('A' for Active; 'I' for Inactive)
REMARK    1  A    between atoms: C_8  and  C_12
REMARK    2  A    between atoms: C_9  and  C_14
REMARK    3  A    between atoms: C_12  and  C_15
REMARK    4  A    between atoms: C_14  and  C_21
REMARK    5  A    between atoms: C_16  and  C_22
REMARK    6  A    between atoms: C_24  and  C_25
REMARK    7  A    between atoms: C_26  and  C_27
REMARK    8  A    between atoms: C_26  and  C_32
REMARK    9  A    between atoms: C_26  and  C_33
REMARK   10  A    between atoms: C_26  and  C_34
REMARK                            x       y       z     vdW  Elec       q    Type
REMARK                         _______ _______ _______ _____ _____    ______ ____
ROOT
ATOM      4  N   UNL     1       5.504  -0.298  24.078  0.00  0.00    -0.316 NA
ATOM      8  C   UNL     1       2.953  -0.251  22.593  0.00  0.00    +0.004 C 
ATOM      9  C   UNL     1       3.869   0.991  22.724  0.00  0.00    +0.012 C 
ATOM     10  C   UNL     1       3.804  -1.521  22.767  0.00  0.00    +0.019 C 
ATOM     11  C   UNL     1       4.720   0.937  24.003  0.00  0.00    +0.085 C 
ATOM     13  C   UNL     1       4.652  -1.485  24.038  0.00  0.00    +0.081 C 
ATOM     35  H   UNL     1       6.046  -0.301  24.941  0.00  0.00    +0.122 HD
ENDROOT
BRANCH   8  12
ATOM     12  C   UNL     1       1.763  -0.254  23.559  0.00  0.00    +0.100 C 
BRANCH  12  15
ATOM      1  O   UNL     1       0.593  -1.260  21.762  0.00  0.00    -0.276 OA
ATOM      5  N   UNL     1      -0.318  -1.544  23.881  0.00  0.00    -0.301 N 
ATOM     15  C   UNL     1       0.632  -1.064  22.980  0.00  0.00    +0.216 C 
ATOM     16  C   UNL     1      -2.811  -1.572  25.348  0.00  0.00    +0.078 C 
ATOM     17  C   UNL     1      -0.299  -1.327  25.333  0.00  0.00    +0.108 C 
ATOM     18  C   UNL     1      -1.425  -2.373  23.400  0.00  0.00    +0.108 C 
ATOM     19  C   UNL     1      -1.620  -0.725  25.807  0.00  0.00    +0.032 C 
ATOM     20  C   UNL     1      -2.769  -1.794  23.834  0.00  0.00    +0.032 C 
BRANCH  16  22
ATOM      3  O   UNL     1      -4.342  -0.548  26.869  0.00  0.00    -0.276 OA
ATOM      7  N   UNL     1      -4.958  -0.728  24.659  0.00  0.00    -0.329 N 
ATOM     22  C   UNL     1      -4.095  -0.897  25.717  0.00  0.00    +0.214 C 
ATOM     36  H   UNL     1      -4.733  -1.038  23.719  0.00  0.00    +0.145 HD
ATOM     37  H   UNL     1      -5.861  -0.287  24.789  0.00  0.00    +0.145 HD
ENDBRANCH  16  22
ENDBRANCH  12  15
ENDBRANCH   8  12
BRANCH   9  14
ATOM     14  C   UNL     1       3.101   2.311  22.644  0.00  0.00    +0.064 C 
BRANCH  14  21
ATOM      2  O   UNL     1       0.607   1.959  25.216  0.00  0.00    -0.354 OA
ATOM      6  N   UNL     1       1.915   1.885  24.753  0.00  0.00    -0.083 NA
ATOM     21  C   UNL     1       1.852   2.268  23.475  0.00  0.00    +0.085 A 
ATOM     23  C   UNL     1       0.544   2.593  23.080  0.00  0.00    +0.076 A 
ATOM     24  C   UNL     1      -0.201   2.381  24.211  0.00  0.00    +0.167 A 
BRANCH  24  25
ATOM     25  C   UNL     1      -1.590   2.508  24.541  0.00  0.00    +0.020 A 
ATOM     27  C   UNL     1      -4.293   2.752  25.187  0.00  0.00    -0.042 A 
ATOM     28  C   UNL     1      -2.564   2.102  23.629  0.00  0.00    +0.012 A 
ATOM     29  C   UNL     1      -1.968   3.036  25.777  0.00  0.00    +0.012 A 
ATOM     30  C   UNL     1      -3.915   2.224  23.952  0.00  0.00    +0.005 A 
ATOM     31  C   UNL     1      -3.319   3.158  26.099  0.00  0.00    +0.005 A 
BRANCH  27  26
ATOM     26  C   UNL     1      -5.738   2.883  25.531  0.00  0.00    -0.013 C 
ATOM     32  C   UNL     1      -6.635   2.123  24.506  0.00  0.00    +0.015 C 
ATOM     33  C   UNL     1      -6.187   4.377  25.532  0.00  0.00    +0.015 C 
ATOM     34  C   UNL     1      -6.147   2.326  26.935  0.00  0.00    +0.015 C 
ENDBRANCH  27  26
ENDBRANCH  24  25
ENDBRANCH  14  21
ENDBRANCH   9  14
TORSDOF 7
ENDMDL
MODEL 7
REMARK VINA RESULT:      10.8      2.499      4.162
REMARK  Name = 26743324
REMARK  10 active torsions:
REMARK  status: ('A' for Active; 'I' for Inactive)
REMARK    1  A    between atoms: C_8  and  C_12
REMARK    2  A    between atoms: C_9  and  C_14
REMARK    3  A    between atoms: C_12  and  C_15
REMARK    4  A    between atoms: C_14  and  C_21
REMARK    5  A    between atoms: C_16  and  C_22
REMARK    6  A    between atoms: C_24  and  C_25
REMARK    7  A    between atoms: C_26  and  C_27
REMARK    8  A    between atoms: C_26  and  C_32
REMARK    9  A    between atoms: C_26  and  C_33
REMARK   10  A    between atoms: C_26  and  C_34
REMARK                            x       y       z     vdW  Elec       q    Type
REMARK                         _______ _______ _______ _____ _____    ______ ____
ROOT
ATOM      4  N   UNL     1      -6.528   2.349  25.467  0.00  0.00    -0.316 NA
ATOM      8  C   UNL     1      -3.910   1.782  24.227  0.00  0.00    +0.004 C 
ATOM      9  C   UNL     1      -5.059   0.746  24.268  0.00  0.00    +0.012 C 
ATOM     10  C   UNL     1      -4.507   3.197  24.326  0.00  0.00    +0.019 C 
ATOM     11  C   UNL     1      -5.998   0.985  25.461  0.00  0.00    +0.085 C 
ATOM     13  C   UNL     1      -5.460   3.347  25.511  0.00  0.00    +0.081 C 
ATOM     35  H   UNL     1      -7.137   2.472  26.275  0.00  0.00    +0.122 HD
ENDROOT
BRANCH   8  12
ATOM     12  C   UNL     1      -2.837   1.567  25.302  0.00  0.00    +0.100 C 
BRANCH  12  15
ATOM      1  O   UNL     1      -1.285   2.546  23.803  0.00  0.00    -0.276 OA
ATOM      5  N   UNL     1      -0.925   2.932  26.066  0.00  0.00    -0.301 N 
ATOM     15  C   UNL     1      -1.616   2.391  24.982  0.00  0.00    +0.216 C 
ATOM     16  C   UNL     1       1.132   3.089  28.093  0.00  0.00    +0.078 C 
ATOM     17  C   UNL     1      -1.294   2.765  27.478  0.00  0.00    +0.108 C 
ATOM     18  C   UNL     1       0.247   3.778  25.835  0.00  0.00    +0.108 C 
ATOM     19  C   UNL     1      -0.116   2.222  28.283  0.00  0.00    +0.032 C 
ATOM     20  C   UNL     1       1.457   3.256  26.607  0.00  0.00    +0.032 C 
BRANCH  16  22
ATOM      3  O   UNL     1       3.452   2.602  28.385  0.00  0.00    -0.276 OA
ATOM      7  N   UNL     1       1.957   1.727  29.899  0.00  0.00    -0.329 N 
ATOM     22  C   UNL     1       2.301   2.467  28.791  0.00  0.00    +0.214 C 
ATOM     36  H   UNL     1       0.995   1.621  30.206  0.00  0.00    +0.145 HD
ATOM     37  H   UNL     1       2.665   1.254  30.451  0.00  0.00    +0.145 HD
ENDBRANCH  16  22
ENDBRANCH  12  15
ENDBRANCH   8  12
BRANCH   9  14
ATOM     14  C   UNL     1      -4.561  -0.700  24.256  0.00  0.00    +0.064 C 
BRANCH  14  21
ATOM      2  O   UNL     1      -1.236  -1.129  25.567  0.00  0.00    -0.354 OA
ATOM      6  N   UNL     1      -2.620  -1.181  25.682  0.00  0.00    -0.083 NA
ATOM     21  C   UNL     1      -3.082  -0.771  24.498  0.00  0.00    +0.085 A 
ATOM     23  C   UNL     1      -2.046  -0.449  23.604  0.00  0.00    +0.076 A 
ATOM     24  C   UNL     1      -0.907  -0.691  24.326  0.00  0.00    +0.167 A 
BRANCH  24  25
ATOM     25  C   UNL     1       0.498  -0.584  24.056  0.00  0.00    +0.020 A 
ATOM     27  C   UNL     1       3.229  -0.377  23.529  0.00  0.00    -0.042 A 
ATOM     28  C   UNL     1       1.349  -1.648  24.357  0.00  0.00    +0.012 A 
ATOM     29  C   UNL     1       1.013   0.583  23.492  0.00  0.00    +0.012 A 
ATOM     30  C   UNL     1       2.714  -1.545  24.093  0.00  0.00    +0.005 A 
ATOM     31  C   UNL     1       2.378   0.686  23.229  0.00  0.00    +0.005 A 
BRANCH  27  26
ATOM     26  C   UNL     1       4.690  -0.267  23.247  0.00  0.00    -0.013 C 
ATOM     32  C   UNL     1       4.952   0.109  21.757  0.00  0.00    +0.015 C 
ATOM     33  C   UNL     1       5.423  -1.616  23.528  0.00  0.00    +0.015 C 
ATOM     34  C   UNL     1       5.456   0.805  24.090  0.00  0.00    +0.015 C 
ENDBRANCH  27  26
ENDBRANCH  24  25
ENDBRANCH  14  21
ENDBRANCH   9  14
TORSDOF 7
ENDMDL
