MODEL 1
REMARK VINA RESULT:      -1.2      0.000      0.000
REMARK  Name = 45361526
REMARK  11 active torsions:
REMARK  status: ('A' for Active; 'I' for Inactive)
REMARK    1  A    between atoms: O_1  and  C_10
REMARK    2  A    between atoms: N_4  and  C_14
REMARK    3  A    between atoms: N_5  and  C_24
REMARK    4  A    between atoms: C_7  and  C_17
REMARK    5  A    between atoms: C_9  and  C_19
REMARK    6  A    between atoms: C_13  and  C_18
REMARK    7  A    between atoms: C_18  and  C_20
REMARK    8  A    between atoms: C_18  and  C_21
REMARK    9  A    between atoms: C_22  and  C_23
REMARK   10  A    between atoms: C_23  and  C_25
REMARK   11  A    between atoms: C_24  and  C_26
REMARK                            x       y       z     vdW  Elec       q    Type
REMARK                         _______ _______ _______ _____ _____    ______ ____
ROOT
ATOM      7  C   UNL     1      -2.321  -0.828  25.270  0.00  0.00    -0.027 C 
ATOM      8  C   UNL     1      -2.502   0.244  24.144  0.00  0.00    +0.028 C 
ATOM      9  C   UNL     1      -1.114   0.835  23.708  0.00  0.00    +0.012 C 
ATOM     10  C   UNL     1      -3.584   1.293  24.533  0.00  0.00    +0.122 C 
ATOM     11  C   UNL     1      -3.690  -1.470  25.596  0.00  0.00    +0.007 C 
ATOM     12  C   UNL     1      -1.387  -1.947  24.755  0.00  0.00    +0.009 C 
ATOM     13  C   UNL     1      -4.920   0.640  24.957  0.00  0.00    +0.029 C 
ATOM     14  C   UNL     1      -0.157  -0.307  23.264  0.00  0.00    +0.076 C 
ATOM     15  C   UNL     1      -4.741  -0.449  26.014  0.00  0.00    +0.007 C 
ATOM     16  C   UNL     1      -0.033  -1.429  24.293  0.00  0.00    +0.023 C 
ATOM     17  C   UNL     1      -1.731  -0.228  26.572  0.00  0.00    +0.011 C 
ATOM     19  C   UNL     1      -1.215   1.878  22.580  0.00  0.00    +0.010 C 
ENDROOT
BRANCH  14   4
ATOM      3  O   UNL     1       1.330  -0.714  20.834  0.00  0.00    -0.275 OA
ATOM      4  N   UNL     1       1.169   0.191  22.965  0.00  0.00    -0.312 N 
ATOM     22  C   UNL     1       1.804  -0.061  21.759  0.00  0.00    +0.218 C 
ATOM     36  H   UNL     1       1.663   0.687  23.701  0.00  0.00    +0.149 HD
BRANCH  22  23
ATOM     23  C   UNL     1       3.177   0.583  21.712  0.00  0.00    +0.130 C 
BRANCH  23  25
ATOM     25  C   UNL     1       4.115   0.068  22.771  0.00  0.00    -0.039 A 
ATOM     27  C   UNL     1       4.038  -1.262  23.184  0.00  0.00    +0.004 A 
ATOM     28  C   UNL     1       5.060   0.921  23.340  0.00  0.00    +0.004 A 
ATOM     30  C   UNL     1       4.907  -1.740  24.165  0.00  0.00    +0.000 A 
ATOM     31  C   UNL     1       5.929   0.444  24.322  0.00  0.00    +0.000 A 
ATOM     32  C   UNL     1       5.853  -0.887  24.734  0.00  0.00    +0.000 A 
ENDBRANCH  23  25
ENDBRANCH  22  23
ENDBRANCH  14   4
BRANCH  10   1
ATOM      1  O   UNL     1      -3.874   2.119  23.404  0.00  0.00    -0.391 OA
ATOM     37  H   UNL     1      -4.839   2.227  23.348  0.00  0.00    +0.210 HD
ENDBRANCH  10   1
BRANCH  13  18
ATOM     18  C   UNL     1      -5.927   1.681  25.460  0.00  0.00    +0.077 C 
ATOM     20  C   UNL     1      -7.106   1.777  24.498  0.00  0.00    +0.017 C 
BRANCH  18  21
ATOM      2  O   UNL     1      -5.596   4.042  25.025  0.00  0.00    -0.276 OA
ATOM      5  N   UNL     1      -4.181   2.980  26.526  0.00  0.00    -0.309 N 
ATOM     21  C   UNL     1      -5.238   3.032  25.629  0.00  0.00    +0.217 C 
ATOM     38  H   UNL     1      -3.981   2.119  27.025  0.00  0.00    +0.149 HD
BRANCH   5  24
ATOM     24  C   UNL     1      -3.373   4.134  26.850  0.00  0.00    +0.159 C 
BRANCH  24  26
ATOM      6  N   UNL     1      -1.210   3.155  26.341  0.00  0.00    -0.258 NA
ATOM     26  C   UNL     1      -2.084   4.152  26.082  0.00  0.00    +0.058 A 
ATOM     29  C   UNL     1      -1.856   5.165  25.163  0.00  0.00    +0.025 A 
ATOM     33  C   UNL     1      -0.653   5.152  24.467  0.00  0.00    +0.003 A 
ATOM     34  C   UNL     1      -0.051   3.176  25.645  0.00  0.00    +0.111 A 
ATOM     35  C   UNL     1       0.272   4.142  24.706  0.00  0.00    +0.020 A 
ENDBRANCH  24  26
ENDBRANCH   5  24
ENDBRANCH  18  21
ENDBRANCH  13  18
TORSDOF 8
ENDMDL
