MODEL 1
REMARK VINA RESULT:       6.7      0.000      0.000
REMARK  Name = 7135019
REMARK  11 active torsions:
REMARK  status: ('A' for Active; 'I' for Inactive)
REMARK    1  A    between atoms: O_2  and  C_14
REMARK    2  A    between atoms: O_3  and  C_19
REMARK    3  A    between atoms: N_7  and  C_25
REMARK    4  A    between atoms: C_9  and  C_17
REMARK    5  A    between atoms: C_11  and  C_19
REMARK    6  A    between atoms: C_11  and  C_20
REMARK    7  A    between atoms: C_12  and  C_22
REMARK    8  A    between atoms: C_22  and  C_23
REMARK    9  A    between atoms: C_25  and  C_33
REMARK   10  A    between atoms: C_25  and  C_34
REMARK   11  A    between atoms: C_26  and  C_27
REMARK                            x       y       z     vdW  Elec       q    Type
REMARK                         _______ _______ _______ _____ _____    ______ ____
ROOT
ATOM      1  S   UNL     1       0.791   2.346  24.851  0.00  0.00    -0.057 S 
ATOM      5  O   UNL     1       1.657  -0.586  21.325  0.00  0.00    -0.275 OA
ATOM      6  N   UNL     1      -0.300   0.869  23.028  0.00  0.00    -0.229 NA
ATOM      8  N   UNL     1       2.109   0.882  23.121  0.00  0.00    -0.264 N 
ATOM      9  C   UNL     1      -3.728   1.717  24.574  0.00  0.00    -0.019 C 
ATOM     10  C   UNL     1      -3.242   3.152  25.062  0.00  0.00    +0.011 C 
ATOM     11  C   UNL     1      -4.255   3.995  25.928  0.00  0.00    +0.021 C 
ATOM     12  C   UNL     1      -2.767   1.247  23.387  0.00  0.00    +0.054 C 
ATOM     13  C   UNL     1      -5.173   1.822  24.022  0.00  0.00    +0.010 C 
ATOM     14  C   UNL     1      -5.658   3.957  25.259  0.00  0.00    +0.123 C 
ATOM     15  C   UNL     1      -1.805   3.095  25.655  0.00  0.00    +0.049 C 
ATOM     16  C   UNL     1      -6.139   2.544  24.950  0.00  0.00    +0.032 C 
ATOM     17  C   UNL     1      -3.705   0.658  25.705  0.00  0.00    +0.012 C 
ATOM     18  C   UNL     1      -1.320   1.472  23.741  0.00  0.00    +0.058 A 
ATOM     20  C   UNL     1      -3.792   5.479  25.950  0.00  0.00    +0.016 C 
ATOM     21  C   UNL     1      -0.910   2.318  24.750  0.00  0.00    +0.015 A 
ATOM     24  C   UNL     1       0.854   1.252  23.530  0.00  0.00    +0.165 A 
ATOM     26  C   UNL     1       2.430   0.007  22.070  0.00  0.00    +0.222 C 
ATOM     38  H   UNL     1       2.868   1.305  23.649  0.00  0.00    +0.157 HD
ENDROOT
BRANCH  26  27
ATOM     27  C   UNL     1       3.914  -0.156  21.916  0.00  0.00    +0.075 C 
ATOM     28  C   UNL     1       4.357  -1.506  22.485  0.00  0.00    +0.013 C 
ATOM     29  C   UNL     1       4.665   1.023  22.538  0.00  0.00    +0.013 C 
ATOM     30  C   UNL     1       4.399  -1.528  24.011  0.00  0.00    +0.001 C 
ATOM     31  C   UNL     1       4.722   0.970  24.064  0.00  0.00    +0.001 C 
ATOM     32  C   UNL     1       5.229  -0.376  24.567  0.00  0.00    +0.000 C 
ENDBRANCH  26  27
BRANCH  14   2
ATOM      2  O   UNL     1      -6.627   4.602  26.086  0.00  0.00    -0.391 OA
ATOM     35  H   UNL     1      -7.489   4.529  25.641  0.00  0.00    +0.210 HD
ENDBRANCH  14   2
BRANCH  11  19
ATOM     19  C   UNL     1      -4.340   3.566  27.410  0.00  0.00    +0.165 C 
BRANCH  19   3
ATOM      3  O   UNL     1      -3.324   4.243  28.115  0.00  0.00    -0.394 OA
ATOM     36  H   UNL     1      -2.478   3.831  27.871  0.00  0.00    +0.209 HD
ENDBRANCH  19   3
ENDBRANCH  11  19
BRANCH  12  22
ATOM     22  C   UNL     1      -3.011  -0.187  22.899  0.00  0.00    +0.106 C 
BRANCH  22  23
ATOM      4  O   UNL     1      -3.616  -2.034  24.341  0.00  0.00    -0.276 OA
ATOM      7  N   UNL     1      -1.512  -1.066  24.539  0.00  0.00    -0.313 N 
ATOM     23  C   UNL     1      -2.780  -1.204  23.994  0.00  0.00    +0.214 C 
ATOM     37  H   UNL     1      -0.876  -0.383  24.137  0.00  0.00    +0.149 HD
BRANCH   7  25
ATOM     25  C   UNL     1      -1.017  -1.903  25.608  0.00  0.00    +0.067 C 
ATOM     33  C   UNL     1      -0.946  -1.115  26.909  0.00  0.00    +0.027 C 
ATOM     34  C   UNL     1       0.342  -2.488  25.242  0.00  0.00    +0.027 C 
ENDBRANCH   7  25
ENDBRANCH  22  23
ENDBRANCH  12  22
TORSDOF 7
ENDMDL
MODEL 2
REMARK VINA RESULT:       9.7      1.584      2.127
REMARK  Name = 7135019
REMARK  11 active torsions:
REMARK  status: ('A' for Active; 'I' for Inactive)
REMARK    1  A    between atoms: O_2  and  C_14
REMARK    2  A    between atoms: O_3  and  C_19
REMARK    3  A    between atoms: N_7  and  C_25
REMARK    4  A    between atoms: C_9  and  C_17
REMARK    5  A    between atoms: C_11  and  C_19
REMARK    6  A    between atoms: C_11  and  C_20
REMARK    7  A    between atoms: C_12  and  C_22
REMARK    8  A    between atoms: C_22  and  C_23
REMARK    9  A    between atoms: C_25  and  C_33
REMARK   10  A    between atoms: C_25  and  C_34
REMARK   11  A    between atoms: C_26  and  C_27
REMARK                            x       y       z     vdW  Elec       q    Type
REMARK                         _______ _______ _______ _____ _____    ______ ____
ROOT
ATOM      1  S   UNL     1       0.834   2.928  23.344  0.00  0.00    -0.057 S 
ATOM      5  O   UNL     1       2.106  -1.550  23.666  0.00  0.00    -0.275 OA
ATOM      6  N   UNL     1       0.100   0.587  24.166  0.00  0.00    -0.229 NA
ATOM      8  N   UNL     1       2.268   0.744  23.124  0.00  0.00    -0.264 N 
ATOM      9  C   UNL     1      -3.009   2.252  25.724  0.00  0.00    -0.019 C 
ATOM     10  C   UNL     1      -3.057   3.387  24.609  0.00  0.00    +0.011 C 
ATOM     11  C   UNL     1      -4.135   4.524  24.792  0.00  0.00    +0.021 C 
ATOM     12  C   UNL     1      -2.190   1.013  25.132  0.00  0.00    +0.054 C 
ATOM     13  C   UNL     1      -4.451   1.778  26.041  0.00  0.00    +0.010 C 
ATOM     14  C   UNL     1      -5.504   3.880  25.149  0.00  0.00    +0.123 C 
ATOM     15  C   UNL     1      -1.633   3.920  24.277  0.00  0.00    +0.049 C 
ATOM     16  C   UNL     1      -5.426   2.912  26.324  0.00  0.00    +0.032 C 
ATOM     17  C   UNL     1      -2.343   2.728  27.039  0.00  0.00    +0.012 C 
ATOM     18  C   UNL     1      -0.917   1.473  24.470  0.00  0.00    +0.058 A 
ATOM     20  C   UNL     1      -4.314   5.275  23.442  0.00  0.00    +0.016 C 
ATOM     21  C   UNL     1      -0.695   2.777  24.079  0.00  0.00    +0.015 A 
ATOM     24  C   UNL     1       1.076   1.245  23.577  0.00  0.00    +0.165 A 
ATOM     26  C   UNL     1       2.704  -0.590  23.192  0.00  0.00    +0.222 C 
ATOM     38  H   UNL     1       2.879   1.432  22.691  0.00  0.00    +0.157 HD
ENDROOT
BRANCH  26  27
ATOM     27  C   UNL     1       4.067  -0.761  22.589  0.00  0.00    +0.075 C 
ATOM     28  C   UNL     1       4.957  -1.584  23.523  0.00  0.00    +0.013 C 
ATOM     29  C   UNL     1       4.683   0.592  22.226  0.00  0.00    +0.013 C 
ATOM     30  C   UNL     1       5.464  -0.786  24.723  0.00  0.00    +0.001 C 
ATOM     31  C   UNL     1       5.210   1.364  23.435  0.00  0.00    +0.001 C 
ATOM     32  C   UNL     1       6.138   0.511  24.292  0.00  0.00    +0.000 C 
ENDBRANCH  26  27
BRANCH  14   2
ATOM      2  O   UNL     1      -6.471   4.888  25.449  0.00  0.00    -0.391 OA
ATOM     35  H   UNL     1      -6.024   5.750  25.396  0.00  0.00    +0.210 HD
ENDBRANCH  14   2
BRANCH  11  19
ATOM     19  C   UNL     1      -3.751   5.610  25.823  0.00  0.00    +0.165 C 
BRANCH  19   3
ATOM      3  O   UNL     1      -2.366   5.847  25.705  0.00  0.00    -0.394 OA
ATOM     36  H   UNL     1      -1.936   4.987  25.560  0.00  0.00    +0.209 HD
ENDBRANCH  19   3
ENDBRANCH  11  19
BRANCH  12  22
ATOM     22  C   UNL     1      -1.925  -0.115  26.137  0.00  0.00    +0.106 C 
BRANCH  22  23
ATOM      4  O   UNL     1      -3.668  -1.665  26.783  0.00  0.00    -0.276 OA
ATOM      7  N   UNL     1      -2.687  -1.853  24.685  0.00  0.00    -0.313 N 
ATOM     23  C   UNL     1      -2.863  -1.283  25.937  0.00  0.00    +0.214 C 
ATOM     37  H   UNL     1      -2.033  -1.421  24.037  0.00  0.00    +0.149 HD
BRANCH   7  25
ATOM     25  C   UNL     1      -3.447  -2.990  24.220  0.00  0.00    +0.067 C 
ATOM     33  C   UNL     1      -2.576  -3.892  23.356  0.00  0.00    +0.027 C 
ATOM     34  C   UNL     1      -4.687  -2.531  23.463  0.00  0.00    +0.027 C 
ENDBRANCH   7  25
ENDBRANCH  22  23
ENDBRANCH  12  22
TORSDOF 7
ENDMDL
