MODEL 1
REMARK VINA RESULT:       2.9      0.000      0.000
REMARK  Name = 7674051
REMARK  7 active torsions:
REMARK  status: ('A' for Active; 'I' for Inactive)
REMARK    1  A    between atoms: S_1  and  N_8
REMARK    2  A    between atoms: S_1  and  C_22
REMARK    3  A    between atoms: N_10  and  C_18
REMARK    4  A    between atoms: N_12  and  C_25
REMARK    5  A    between atoms: C_13  and  C_17
REMARK    6  A    between atoms: C_25  and  C_28
REMARK    7  A    between atoms: C_25  and  C_29
REMARK                            x       y       z     vdW  Elec       q    Type
REMARK                         _______ _______ _______ _____ _____    ______ ____
ROOT
ATOM      6  O   UNL     1      -1.829  -2.875  23.595  0.00  0.00    -0.253 OA
ATOM      8  N   UNL     1      -0.236   1.730  24.942  0.00  0.00    -0.162 NA
ATOM      9  N   UNL     1      -1.610  -0.826  24.663  0.00  0.00    -0.282 N 
ATOM     12  N   UNL     1      -3.648  -2.009  24.706  0.00  0.00    -0.297 N 
ATOM     13  C   UNL     1       0.078   0.765  23.848  0.00  0.00    +0.183 C 
ATOM     14  C   UNL     1      -0.212  -0.673  24.260  0.00  0.00    +0.139 C 
ATOM     15  C   UNL     1      -1.092   1.183  26.033  0.00  0.00    +0.129 C 
ATOM     16  C   UNL     1      -2.171   0.266  25.469  0.00  0.00    +0.126 C 
ATOM     21  C   UNL     1      -2.326  -1.972  24.273  0.00  0.00    +0.303 C 
ATOM     35  H   UNL     1      -4.060  -1.194  25.147  0.00  0.00    +0.150 HD
ENDROOT
BRANCH  13  17
ATOM      3  O   UNL     1       2.066   2.046  23.582  0.00  0.00    -0.274 OA
ATOM     10  N   UNL     1       2.162  -0.262  23.294  0.00  0.00    -0.303 N 
ATOM     17  C   UNL     1       1.533   0.940  23.572  0.00  0.00    +0.234 C 
ATOM     33  H   UNL     1       1.625  -1.123  23.344  0.00  0.00    +0.149 HD
BRANCH  10  18
ATOM      7  O   UNL     1       3.551  -2.418  24.238  0.00  0.00    -0.274 OA
ATOM     11  N   UNL     1       5.512  -1.249  24.194  0.00  0.00    -0.314 N 
ATOM     18  C   UNL     1       3.562  -0.363  22.973  0.00  0.00    +0.159 C 
ATOM     19  C   UNL     1       4.235   1.001  23.046  0.00  0.00    +0.033 C 
ATOM     20  C   UNL     1       5.736   0.838  22.876  0.00  0.00    +0.021 C 
ATOM     23  C   UNL     1       4.178  -1.418  23.884  0.00  0.00    +0.233 C 
ATOM     24  C   UNL     1       6.272  -0.028  24.000  0.00  0.00    +0.104 C 
ATOM     34  H   UNL     1       5.949  -1.975  24.753  0.00  0.00    +0.149 HD
ENDBRANCH  10  18
ENDBRANCH  13  17
BRANCH   8   1
ATOM      1  S   UNL     1      -0.532   3.351  24.478  0.00  0.00    +0.062 S 
ATOM      4  O   UNL     1      -0.359   3.462  23.048  0.00  0.00    -0.153 OA
ATOM      5  O   UNL     1       0.164   4.225  25.392  0.00  0.00    -0.153 OA
BRANCH   1  22
ATOM      2  F   UNL     1      -6.298   3.683  25.650  0.00  0.00    -0.205 F 
ATOM     22  C   UNL     1      -2.258   3.451  24.828  0.00  0.00    +0.106 A 
ATOM     26  C   UNL     1      -2.696   4.044  26.012  0.00  0.00    +0.031 A 
ATOM     27  C   UNL     1      -3.185   2.935  23.922  0.00  0.00    +0.031 A 
ATOM     30  C   UNL     1      -4.060   4.123  26.290  0.00  0.00    +0.040 A 
ATOM     31  C   UNL     1      -4.549   3.014  24.200  0.00  0.00    +0.040 A 
ATOM     32  C   UNL     1      -4.987   3.607  25.384  0.00  0.00    +0.124 A 
ENDBRANCH   1  22
ENDBRANCH   8   1
BRANCH  12  25
ATOM     25  C   UNL     1      -4.534  -3.107  24.395  0.00  0.00    +0.068 C 
ATOM     28  C   UNL     1      -5.324  -2.814  23.126  0.00  0.00    +0.027 C 
ATOM     29  C   UNL     1      -3.745  -4.404  24.266  0.00  0.00    +0.027 C 
ENDBRANCH  12  25
TORSDOF 5
ENDMDL
MODEL 2
REMARK VINA RESULT:       3.1      1.451      6.160
REMARK  Name = 7674051
REMARK  7 active torsions:
REMARK  status: ('A' for Active; 'I' for Inactive)
REMARK    1  A    between atoms: S_1  and  N_8
REMARK    2  A    between atoms: S_1  and  C_22
REMARK    3  A    between atoms: N_10  and  C_18
REMARK    4  A    between atoms: N_12  and  C_25
REMARK    5  A    between atoms: C_13  and  C_17
REMARK    6  A    between atoms: C_25  and  C_28
REMARK    7  A    between atoms: C_25  and  C_29
REMARK                            x       y       z     vdW  Elec       q    Type
REMARK                         _______ _______ _______ _____ _____    ______ ____
ROOT
ATOM      6  O   UNL     1       3.313  -1.096  23.328  0.00  0.00    -0.253 OA
ATOM      8  N   UNL     1      -0.261   2.417  24.002  0.00  0.00    -0.162 NA
ATOM      9  N   UNL     1       2.176   0.926  23.421  0.00  0.00    -0.282 N 
ATOM     12  N   UNL     1       4.531   0.849  23.492  0.00  0.00    -0.297 N 
ATOM     13  C   UNL     1      -0.124   0.959  24.288  0.00  0.00    +0.183 C 
ATOM     14  C   UNL     1       0.863   0.286  23.342  0.00  0.00    +0.139 C 
ATOM     15  C   UNL     1       0.820   2.992  23.151  0.00  0.00    +0.129 C 
ATOM     16  C   UNL     1       2.173   2.392  23.512  0.00  0.00    +0.126 C 
ATOM     21  C   UNL     1       3.339   0.135  23.406  0.00  0.00    +0.303 C 
ATOM     35  H   UNL     1       4.513   1.844  23.686  0.00  0.00    +0.150 HD
ENDROOT
BRANCH  13  17
ATOM      3  O   UNL     1      -2.207   0.723  23.159  0.00  0.00    -0.274 OA
ATOM     10  N   UNL     1      -1.826  -0.509  25.097  0.00  0.00    -0.303 N 
ATOM     17  C   UNL     1      -1.490   0.389  24.099  0.00  0.00    +0.234 C 
ATOM     33  H   UNL     1      -1.138  -0.733  25.812  0.00  0.00    +0.149 HD
BRANCH  10  18
ATOM      7  O   UNL     1      -1.853  -3.237  24.928  0.00  0.00    -0.274 OA
ATOM     11  N   UNL     1      -3.977  -3.223  24.089  0.00  0.00    -0.314 N 
ATOM     18  C   UNL     1      -3.098  -1.182  25.157  0.00  0.00    +0.159 C 
ATOM     19  C   UNL     1      -4.155  -0.413  24.377  0.00  0.00    +0.033 C 
ATOM     20  C   UNL     1      -5.434  -1.230  24.310  0.00  0.00    +0.021 C 
ATOM     23  C   UNL     1      -2.892  -2.618  24.689  0.00  0.00    +0.233 C 
ATOM     24  C   UNL     1      -5.153  -2.535  23.589  0.00  0.00    +0.104 C 
ATOM     34  H   UNL     1      -3.872  -4.198  23.826  0.00  0.00    +0.149 HD
ENDBRANCH  10  18
ENDBRANCH  13  17
BRANCH   8   1
ATOM      1  S   UNL     1      -0.833   3.402  25.280  0.00  0.00    +0.062 S 
ATOM      4  O   UNL     1      -0.530   4.780  24.973  0.00  0.00    -0.153 OA
ATOM      5  O   UNL     1      -0.438   2.804  26.533  0.00  0.00    -0.153 OA
BRANCH   1  22
ATOM      2  F   UNL     1      -6.636   2.617  24.619  0.00  0.00    -0.205 F 
ATOM     22  C   UNL     1      -2.570   3.168  25.082  0.00  0.00    +0.106 A 
ATOM     26  C   UNL     1      -3.354   2.808  26.178  0.00  0.00    +0.031 A 
ATOM     27  C   UNL     1      -3.159   3.340  23.829  0.00  0.00    +0.031 A 
ATOM     30  C   UNL     1      -4.728   2.622  26.021  0.00  0.00    +0.040 A 
ATOM     31  C   UNL     1      -4.532   3.154  23.673  0.00  0.00    +0.040 A 
ATOM     32  C   UNL     1      -5.317   2.795  24.768  0.00  0.00    +0.124 A 
ENDBRANCH   1  22
ENDBRANCH   8   1
BRANCH  12  25
ATOM     25  C   UNL     1       5.823   0.202  23.496  0.00  0.00    +0.068 C 
ATOM     28  C   UNL     1       5.897  -0.839  24.606  0.00  0.00    +0.027 C 
ATOM     29  C   UNL     1       6.105  -0.423  22.136  0.00  0.00    +0.027 C 
ENDBRANCH  12  25
TORSDOF 5
ENDMDL
MODEL 3
REMARK VINA RESULT:       6.4      2.240      6.827
REMARK  Name = 7674051
REMARK  7 active torsions:
REMARK  status: ('A' for Active; 'I' for Inactive)
REMARK    1  A    between atoms: S_1  and  N_8
REMARK    2  A    between atoms: S_1  and  C_22
REMARK    3  A    between atoms: N_10  and  C_18
REMARK    4  A    between atoms: N_12  and  C_25
REMARK    5  A    between atoms: C_13  and  C_17
REMARK    6  A    between atoms: C_25  and  C_28
REMARK    7  A    between atoms: C_25  and  C_29
REMARK                            x       y       z     vdW  Elec       q    Type
REMARK                         _______ _______ _______ _____ _____    ______ ____
ROOT
ATOM      6  O   UNL     1       2.908   1.230  22.675  0.00  0.00    -0.253 OA
ATOM      8  N   UNL     1      -1.709   0.209  24.465  0.00  0.00    -0.162 NA
ATOM      9  N   UNL     1       1.142   0.307  23.867  0.00  0.00    -0.282 N 
ATOM     12  N   UNL     1       3.158  -0.877  23.566  0.00  0.00    -0.297 N 
ATOM     13  C   UNL     1      -1.146   1.061  23.378  0.00  0.00    +0.183 C 
ATOM     14  C   UNL     1       0.290   1.480  23.671  0.00  0.00    +0.139 C 
ATOM     15  C   UNL     1      -0.698  -0.367  25.397  0.00  0.00    +0.129 C 
ATOM     16  C   UNL     1       0.555  -0.793  24.642  0.00  0.00    +0.126 C 
ATOM     21  C   UNL     1       2.439   0.290  23.323  0.00  0.00    +0.303 C 
ATOM     35  H   UNL     1       2.699  -1.677  23.986  0.00  0.00    +0.150 HD
ENDROOT
BRANCH  13  17
ATOM      3  O   UNL     1      -2.459   2.695  22.250  0.00  0.00    -0.274 OA
ATOM     10  N   UNL     1      -2.270   2.801  24.567  0.00  0.00    -0.303 N 
ATOM     17  C   UNL     1      -2.031   2.260  23.316  0.00  0.00    +0.234 C 
ATOM     33  H   UNL     1      -1.886   2.337  25.387  0.00  0.00    +0.149 HD
BRANCH  10  18
ATOM      7  O   UNL     1      -2.666   3.651  27.134  0.00  0.00    -0.274 OA
ATOM     11  N   UNL     1      -4.638   4.651  26.562  0.00  0.00    -0.314 N 
ATOM     18  C   UNL     1      -3.076   3.976  24.778  0.00  0.00    +0.159 C 
ATOM     19  C   UNL     1      -4.271   3.990  23.835  0.00  0.00    +0.033 C 
ATOM     20  C   UNL     1      -5.193   5.142  24.197  0.00  0.00    +0.021 C 
ATOM     23  C   UNL     1      -3.441   4.035  26.257  0.00  0.00    +0.233 C 
ATOM     24  C   UNL     1      -5.696   4.948  25.615  0.00  0.00    +0.104 C 
ATOM     34  H   UNL     1      -4.866   4.749  27.547  0.00  0.00    +0.149 HD
ENDBRANCH  10  18
ENDBRANCH  13  17
BRANCH   8   1
ATOM      1  S   UNL     1      -3.026  -0.801  24.049  0.00  0.00    +0.062 S 
ATOM      4  O   UNL     1      -2.866  -2.071  24.719  0.00  0.00    -0.153 OA
ATOM      5  O   UNL     1      -3.232  -0.723  22.621  0.00  0.00    -0.153 OA
BRANCH   1  22
ATOM      2  F   UNL     1      -7.402   2.123  26.700  0.00  0.00    -0.205 F 
ATOM     22  C   UNL     1      -4.336   0.073  24.842  0.00  0.00    +0.106 A 
ATOM     26  C   UNL     1      -5.332   0.681  24.078  0.00  0.00    +0.031 A 
ATOM     27  C   UNL     1      -4.375   0.158  26.234  0.00  0.00    +0.031 A 
ATOM     30  C   UNL     1      -6.368   1.373  24.705  0.00  0.00    +0.040 A 
ATOM     31  C   UNL     1      -5.411   0.850  26.861  0.00  0.00    +0.040 A 
ATOM     32  C   UNL     1      -6.407   1.458  26.097  0.00  0.00    +0.124 A 
ENDBRANCH   1  22
ENDBRANCH   8   1
BRANCH  12  25
ATOM     25  C   UNL     1       4.504  -1.072  23.078  0.00  0.00    +0.068 C 
ATOM     28  C   UNL     1       5.324   0.200  23.247  0.00  0.00    +0.027 C 
ATOM     29  C   UNL     1       5.159  -2.249  23.790  0.00  0.00    +0.027 C 
ENDBRANCH  12  25
TORSDOF 5
ENDMDL
