MODEL 1
REMARK VINA RESULT:      -3.8      0.000      0.000
REMARK  Name = 75536069
REMARK  7 active torsions:
REMARK  status: ('A' for Active; 'I' for Inactive)
REMARK    1  A    between atoms: O_1  and  C_9
REMARK    2  A    between atoms: O_2  and  C_11
REMARK    3  A    between atoms: O_4  and  C_21
REMARK    4  A    between atoms: O_4  and  C_24
REMARK    5  A    between atoms: N_5  and  C_8
REMARK    6  A    between atoms: C_7  and  C_12
REMARK    7  A    between atoms: C_15  and  C_17
REMARK                            x       y       z     vdW  Elec       q    Type
REMARK                         _______ _______ _______ _____ _____    ______ ____
ROOT
ATOM      7  C   UNL     1      -3.124   1.455  23.812  0.00  0.00    +0.046 C 
ATOM      8  C   UNL     1      -1.885   2.071  24.497  0.00  0.00    +0.112 C 
ATOM      9  C   UNL     1      -2.190   3.569  24.506  0.00  0.00    +0.164 C 
ATOM     10  C   UNL     1      -4.269   2.482  24.005  0.00  0.00    +0.044 C 
ATOM     11  C   UNL     1      -3.676   3.616  24.838  0.00  0.00    +0.145 C 
ENDROOT
BRANCH   7  12
ATOM      6  N   UNL     1      -3.545  -1.501  26.153  0.00  0.00    -0.263 NA
ATOM     12  C   UNL     1      -3.446   0.062  24.311  0.00  0.00    -0.024 A 
ATOM     13  C   UNL     1      -3.918  -0.919  23.444  0.00  0.00    +0.007 A 
ATOM     14  C   UNL     1      -3.279  -0.277  25.644  0.00  0.00    +0.114 A 
ATOM     16  C   UNL     1      -4.204  -2.190  23.932  0.00  0.00    +0.020 A 
ATOM     18  C   UNL     1      -4.002  -2.427  25.282  0.00  0.00    +0.111 A 
ENDBRANCH   7  12
BRANCH   8   5
ATOM      3  O   UNL     1      -0.310  -0.320  24.714  0.00  0.00    -0.270 OA
ATOM      5  N   UNL     1      -0.669   1.774  23.785  0.00  0.00    -0.305 N 
ATOM     15  C   UNL     1       0.028   0.585  23.956  0.00  0.00    +0.244 C 
ATOM     25  H   UNL     1      -0.318   2.489  23.157  0.00  0.00    +0.149 HD
BRANCH  15  17
ATOM     17  C   UNL     1       1.278   0.443  23.168  0.00  0.00    +0.040 A 
ATOM     19  C   UNL     1       2.488   0.902  23.688  0.00  0.00    +0.058 A 
ATOM     20  C   UNL     1       1.243  -0.153  21.907  0.00  0.00    +0.013 A 
ATOM     21  C   UNL     1       3.662   0.768  22.948  0.00  0.00    +0.121 A 
ATOM     22  C   UNL     1       2.417  -0.286  21.166  0.00  0.00    +0.004 A 
ATOM     23  C   UNL     1       3.626   0.174  21.686  0.00  0.00    +0.045 A 
BRANCH  21   4
ATOM      4  O   UNL     1       4.842   1.217  23.455  0.00  0.00    -0.495 OA
ATOM     24  C   UNL     1       5.737   0.238  23.982  0.00  0.00    +0.277 C 
ENDBRANCH  21   4
ENDBRANCH  15  17
ENDBRANCH   8   5
BRANCH   9   1
ATOM      1  O   UNL     1      -1.428   4.267  25.471  0.00  0.00    -0.387 OA
ATOM     26  H   UNL     1      -0.519   3.922  25.431  0.00  0.00    +0.210 HD
ENDBRANCH   9   1
BRANCH  11   2
ATOM      2  O   UNL     1      -3.900   3.335  26.217  0.00  0.00    -0.389 OA
ATOM     27  H   UNL     1      -4.364   4.099  26.600  0.00  0.00    +0.210 HD
ENDBRANCH  11   2
TORSDOF 6
ENDMDL
MODEL 2
REMARK VINA RESULT:      -2.6      2.326      3.869
REMARK  Name = 75536069
REMARK  7 active torsions:
REMARK  status: ('A' for Active; 'I' for Inactive)
REMARK    1  A    between atoms: O_1  and  C_9
REMARK    2  A    between atoms: O_2  and  C_11
REMARK    3  A    between atoms: O_4  and  C_21
REMARK    4  A    between atoms: O_4  and  C_24
REMARK    5  A    between atoms: N_5  and  C_8
REMARK    6  A    between atoms: C_7  and  C_12
REMARK    7  A    between atoms: C_15  and  C_17
REMARK                            x       y       z     vdW  Elec       q    Type
REMARK                         _______ _______ _______ _____ _____    ______ ____
ROOT
ATOM      7  C   UNL     1      -2.203  -0.213  25.492  0.00  0.00    +0.046 C 
ATOM      8  C   UNL     1      -1.574  -0.991  24.316  0.00  0.00    +0.112 C 
ATOM      9  C   UNL     1      -1.854  -2.452  24.666  0.00  0.00    +0.164 C 
ATOM     10  C   UNL     1      -3.274  -1.155  26.098  0.00  0.00    +0.044 C 
ATOM     11  C   UNL     1      -3.270  -2.409  25.226  0.00  0.00    +0.145 C 
ENDROOT
BRANCH   7  12
ATOM      6  N   UNL     1      -2.313   3.507  24.755  0.00  0.00    -0.263 NA
ATOM     12  C   UNL     1      -2.728   1.149  25.088  0.00  0.00    -0.024 A 
ATOM     13  C   UNL     1      -4.050   1.318  24.690  0.00  0.00    +0.007 A 
ATOM     14  C   UNL     1      -1.907   2.266  25.103  0.00  0.00    +0.114 A 
ATOM     16  C   UNL     1      -4.504   2.581  24.324  0.00  0.00    +0.020 A 
ATOM     18  C   UNL     1      -3.604   3.633  24.374  0.00  0.00    +0.111 A 
ENDBRANCH   7  12
BRANCH   8   5
ATOM      3  O   UNL     1      -0.302   0.606  22.298  0.00  0.00    -0.270 OA
ATOM      5  N   UNL     1      -0.163  -0.729  24.188  0.00  0.00    -0.305 N 
ATOM     15  C   UNL     1       0.363   0.059  23.173  0.00  0.00    +0.244 C 
ATOM     25  H   UNL     1       0.449  -1.171  24.866  0.00  0.00    +0.149 HD
BRANCH  15  17
ATOM     17  C   UNL     1       1.840   0.210  23.164  0.00  0.00    +0.040 A 
ATOM     19  C   UNL     1       2.653  -0.857  23.544  0.00  0.00    +0.058 A 
ATOM     20  C   UNL     1       2.415   1.420  22.775  0.00  0.00    +0.013 A 
ATOM     21  C   UNL     1       4.041  -0.715  23.535  0.00  0.00    +0.121 A 
ATOM     22  C   UNL     1       3.802   1.563  22.767  0.00  0.00    +0.004 A 
ATOM     23  C   UNL     1       4.615   0.495  23.146  0.00  0.00    +0.045 A 
BRANCH  21   4
ATOM      4  O   UNL     1       4.834  -1.757  23.905  0.00  0.00    -0.495 OA
ATOM     24  C   UNL     1       6.133  -1.439  24.404  0.00  0.00    +0.277 C 
ENDBRANCH  21   4
ENDBRANCH  15  17
ENDBRANCH   8   5
BRANCH   9   1
ATOM      1  O   UNL     1      -1.777  -3.300  23.535  0.00  0.00    -0.387 OA
ATOM     26  H   UNL     1      -2.428  -2.981  22.887  0.00  0.00    +0.210 HD
ENDBRANCH   9   1
BRANCH  11   2
ATOM      2  O   UNL     1      -4.226  -2.241  24.182  0.00  0.00    -0.389 OA
ATOM     27  H   UNL     1      -4.666  -1.385  24.324  0.00  0.00    +0.210 HD
ENDBRANCH  11   2
TORSDOF 6
ENDMDL
MODEL 3
REMARK VINA RESULT:      -1.3      3.486      5.551
REMARK  Name = 75536069
REMARK  7 active torsions:
REMARK  status: ('A' for Active; 'I' for Inactive)
REMARK    1  A    between atoms: O_1  and  C_9
REMARK    2  A    between atoms: O_2  and  C_11
REMARK    3  A    between atoms: O_4  and  C_21
REMARK    4  A    between atoms: O_4  and  C_24
REMARK    5  A    between atoms: N_5  and  C_8
REMARK    6  A    between atoms: C_7  and  C_12
REMARK    7  A    between atoms: C_15  and  C_17
REMARK                            x       y       z     vdW  Elec       q    Type
REMARK                         _______ _______ _______ _____ _____    ______ ____
ROOT
ATOM      7  C   UNL     1      -3.405   3.388  26.082  0.00  0.00    +0.046 C 
ATOM      8  C   UNL     1      -4.365   2.603  25.161  0.00  0.00    +0.112 C 
ATOM      9  C   UNL     1      -5.741   2.873  25.770  0.00  0.00    +0.164 C 
ATOM     10  C   UNL     1      -4.266   4.489  26.752  0.00  0.00    +0.044 C 
ATOM     11  C   UNL     1      -5.665   4.344  26.158  0.00  0.00    +0.145 C 
ENDROOT
BRANCH   7  12
ATOM      6  N   UNL     1      -0.177   3.439  24.088  0.00  0.00    -0.263 NA
ATOM     12  C   UNL     1      -2.182   3.908  25.356  0.00  0.00    -0.024 A 
ATOM     13  C   UNL     1      -1.921   5.272  25.278  0.00  0.00    +0.007 A 
ATOM     14  C   UNL     1      -1.287   3.041  24.750  0.00  0.00    +0.114 A 
ATOM     16  C   UNL     1      -0.789   5.720  24.605  0.00  0.00    +0.020 A 
ATOM     18  C   UNL     1       0.043   4.771  24.033  0.00  0.00    +0.111 A 
ENDBRANCH   7  12
BRANCH   8   5
ATOM      3  O   UNL     1      -3.368   1.114  22.918  0.00  0.00    -0.270 OA
ATOM      5  N   UNL     1      -4.057   1.196  25.131  0.00  0.00    -0.305 N 
ATOM     15  C   UNL     1      -3.577   0.560  23.994  0.00  0.00    +0.244 C 
ATOM     25  H   UNL     1      -4.229   0.670  25.981  0.00  0.00    +0.149 HD
BRANCH  15  17
ATOM     17  C   UNL     1      -3.333  -0.900  24.118  0.00  0.00    +0.040 A 
ATOM     19  C   UNL     1      -2.092  -1.365  24.554  0.00  0.00    +0.058 A 
ATOM     20  C   UNL     1      -4.345  -1.805  23.800  0.00  0.00    +0.013 A 
ATOM     21  C   UNL     1      -1.863  -2.736  24.671  0.00  0.00    +0.121 A 
ATOM     22  C   UNL     1      -4.116  -3.176  23.916  0.00  0.00    +0.004 A 
ATOM     23  C   UNL     1      -2.875  -3.642  24.352  0.00  0.00    +0.045 A 
BRANCH  21   4
ATOM      4  O   UNL     1      -0.653  -3.191  25.096  0.00  0.00    -0.495 OA
ATOM     24  C   UNL     1       0.318  -2.211  25.460  0.00  0.00    +0.277 C 
ENDBRANCH  21   4
ENDBRANCH  15  17
ENDBRANCH   8   5
BRANCH   9   1
ATOM      1  O   UNL     1      -6.791   2.640  24.850  0.00  0.00    -0.387 OA
ATOM     26  H   UNL     1      -7.580   2.394  25.363  0.00  0.00    +0.210 HD
ENDBRANCH   9   1
BRANCH  11   2
ATOM      2  O   UNL     1      -5.761   5.181  25.008  0.00  0.00    -0.389 OA
ATOM     27  H   UNL     1      -6.648   5.579  25.010  0.00  0.00    +0.210 HD
ENDBRANCH  11   2
TORSDOF 6
ENDMDL
MODEL 4
REMARK VINA RESULT:      -1.3      1.211      1.523
REMARK  Name = 75536069
REMARK  7 active torsions:
REMARK  status: ('A' for Active; 'I' for Inactive)
REMARK    1  A    between atoms: O_1  and  C_9
REMARK    2  A    between atoms: O_2  and  C_11
REMARK    3  A    between atoms: O_4  and  C_21
REMARK    4  A    between atoms: O_4  and  C_24
REMARK    5  A    between atoms: N_5  and  C_8
REMARK    6  A    between atoms: C_7  and  C_12
REMARK    7  A    between atoms: C_15  and  C_17
REMARK                            x       y       z     vdW  Elec       q    Type
REMARK                         _______ _______ _______ _____ _____    ______ ____
ROOT
ATOM      7  C   UNL     1      -3.176   1.396  23.765  0.00  0.00    +0.046 C 
ATOM      8  C   UNL     1      -2.122   2.098  24.649  0.00  0.00    +0.112 C 
ATOM      9  C   UNL     1      -2.552   3.564  24.621  0.00  0.00    +0.164 C 
ATOM     10  C   UNL     1      -4.421   2.320  23.777  0.00  0.00    +0.044 C 
ATOM     11  C   UNL     1      -4.071   3.481  24.706  0.00  0.00    +0.145 C 
ENDROOT
BRANCH   7  12
ATOM      6  N   UNL     1      -4.141  -2.269  23.592  0.00  0.00    -0.263 NA
ATOM     12  C   UNL     1      -3.454  -0.030  24.192  0.00  0.00    -0.024 A 
ATOM     13  C   UNL     1      -3.294  -0.426  25.515  0.00  0.00    +0.007 A 
ATOM     14  C   UNL     1      -3.876  -0.982  23.276  0.00  0.00    +0.114 A 
ATOM     16  C   UNL     1      -3.557  -1.743  25.878  0.00  0.00    +0.020 A 
ATOM     18  C   UNL     1      -3.975  -2.616  24.887  0.00  0.00    +0.111 A 
ENDBRANCH   7  12
BRANCH   8   5
ATOM      3  O   UNL     1      -0.499  -0.260  24.884  0.00  0.00    -0.270 OA
ATOM      5  N   UNL     1      -0.785   1.919  24.143  0.00  0.00    -0.305 N 
ATOM     15  C   UNL     1      -0.075   0.737  24.306  0.00  0.00    +0.244 C 
ATOM     25  H   UNL     1      -0.362   2.712  23.673  0.00  0.00    +0.149 HD
BRANCH  15  17
ATOM     17  C   UNL     1       1.301   0.721  23.748  0.00  0.00    +0.040 A 
ATOM     19  C   UNL     1       2.066  -0.444  23.808  0.00  0.00    +0.058 A 
ATOM     20  C   UNL     1       1.829   1.872  23.163  0.00  0.00    +0.013 A 
ATOM     21  C   UNL     1       3.358  -0.459  23.285  0.00  0.00    +0.121 A 
ATOM     22  C   UNL     1       3.122   1.858  22.640  0.00  0.00    +0.004 A 
ATOM     23  C   UNL     1       3.886   0.693  22.700  0.00  0.00    +0.045 A 
BRANCH  21   4
ATOM      4  O   UNL     1       4.104  -1.595  23.344  0.00  0.00    -0.495 OA
ATOM     24  C   UNL     1       5.384  -1.500  23.967  0.00  0.00    +0.277 C 
ENDBRANCH  21   4
ENDBRANCH  15  17
ENDBRANCH   8   5
BRANCH   9   1
ATOM      1  O   UNL     1      -2.018   4.301  25.705  0.00  0.00    -0.387 OA
ATOM     26  H   UNL     1      -1.262   4.811  25.367  0.00  0.00    +0.210 HD
ENDBRANCH   9   1
BRANCH  11   2
ATOM      2  O   UNL     1      -4.490   3.150  26.027  0.00  0.00    -0.389 OA
ATOM     27  H   UNL     1      -5.376   2.753  25.962  0.00  0.00    +0.210 HD
ENDBRANCH  11   2
TORSDOF 6
ENDMDL
MODEL 5
REMARK VINA RESULT:       0.1      2.382      6.842
REMARK  Name = 75536069
REMARK  7 active torsions:
REMARK  status: ('A' for Active; 'I' for Inactive)
REMARK    1  A    between atoms: O_1  and  C_9
REMARK    2  A    between atoms: O_2  and  C_11
REMARK    3  A    between atoms: O_4  and  C_21
REMARK    4  A    between atoms: O_4  and  C_24
REMARK    5  A    between atoms: N_5  and  C_8
REMARK    6  A    between atoms: C_7  and  C_12
REMARK    7  A    between atoms: C_15  and  C_17
REMARK                            x       y       z     vdW  Elec       q    Type
REMARK                         _______ _______ _______ _____ _____    ______ ____
ROOT
ATOM      7  C   UNL     1      -0.218  -0.638  23.537  0.00  0.00    +0.046 C 
ATOM      8  C   UNL     1      -0.455  -0.038  24.940  0.00  0.00    +0.112 C 
ATOM      9  C   UNL     1      -1.272  -1.115  25.654  0.00  0.00    +0.164 C 
ATOM     10  C   UNL     1      -0.364  -2.172  23.702  0.00  0.00    +0.044 C 
ATOM     11  C   UNL     1      -0.618  -2.410  25.189  0.00  0.00    +0.145 C 
ENDROOT
BRANCH   7  12
ATOM      6  N   UNL     1       2.595  -0.227  21.025  0.00  0.00    -0.263 NA
ATOM     12  C   UNL     1       1.093  -0.199  22.919  0.00  0.00    -0.024 A 
ATOM     13  C   UNL     1       1.985   0.601  23.624  0.00  0.00    +0.007 A 
ATOM     14  C   UNL     1       1.441  -0.582  21.633  0.00  0.00    +0.114 A 
ATOM     16  C   UNL     1       3.183   0.987  23.030  0.00  0.00    +0.020 A 
ATOM     18  C   UNL     1       3.437   0.550  21.741  0.00  0.00    +0.111 A 
ENDBRANCH   7  12
BRANCH   8   5
ATOM      3  O   UNL     1       0.430   2.475  26.010  0.00  0.00    -0.270 OA
ATOM      5  N   UNL     1      -1.157   1.219  24.880  0.00  0.00    -0.305 N 
ATOM     15  C   UNL     1      -0.648   2.387  25.429  0.00  0.00    +0.244 C 
ATOM     25  H   UNL     1      -2.068   1.214  24.434  0.00  0.00    +0.149 HD
BRANCH  15  17
ATOM     17  C   UNL     1      -1.506   3.593  25.307  0.00  0.00    +0.040 A 
ATOM     19  C   UNL     1      -2.893   3.474  25.392  0.00  0.00    +0.058 A 
ATOM     20  C   UNL     1      -0.925   4.845  25.107  0.00  0.00    +0.013 A 
ATOM     21  C   UNL     1      -3.699   4.607  25.278  0.00  0.00    +0.121 A 
ATOM     22  C   UNL     1      -1.730   5.978  24.992  0.00  0.00    +0.004 A 
ATOM     23  C   UNL     1      -3.117   5.859  25.077  0.00  0.00    +0.045 A 
BRANCH  21   4
ATOM      4  O   UNL     1      -5.052   4.491  25.361  0.00  0.00    -0.495 OA
ATOM     24  C   UNL     1      -5.577   3.195  25.643  0.00  0.00    +0.277 C 
ENDBRANCH  21   4
ENDBRANCH  15  17
ENDBRANCH   8   5
BRANCH   9   1
ATOM      1  O   UNL     1      -1.213  -0.989  27.063  0.00  0.00    -0.387 OA
ATOM     26  H   UNL     1      -1.096  -0.045  27.267  0.00  0.00    +0.210 HD
ENDBRANCH   9   1
BRANCH  11   2
ATOM      2  O   UNL     1       0.634  -2.611  25.839  0.00  0.00    -0.389 OA
ATOM     27  H   UNL     1       0.613  -2.114  26.674  0.00  0.00    +0.210 HD
ENDBRANCH  11   2
TORSDOF 6
ENDMDL
