MODEL 1
REMARK VINA RESULT:      -5.1      0.000      0.000
REMARK  Name = 51138115
REMARK  9 active torsions:
REMARK  status: ('A' for Active; 'I' for Inactive)
REMARK    1  A    between atoms: N_3  and  C_21
REMARK    2  A    between atoms: N_4  and  C_23
REMARK    3  A    between atoms: C_5  and  C_9
REMARK    4  A    between atoms: C_8  and  C_16
REMARK    5  A    between atoms: C_9  and  C_13
REMARK    6  A    between atoms: C_13  and  C_19
REMARK    7  A    between atoms: C_13  and  C_20
REMARK    8  A    between atoms: C_21  and  C_22
REMARK    9  A    between atoms: C_23  and  C_25
REMARK                            x       y       z     vdW  Elec       q    Type
REMARK                         _______ _______ _______ _____ _____    ______ ____
ROOT
ATOM      2  N   UNL     1       0.086  -0.721  23.885  0.00  0.00    -0.299 NA
ATOM      3  N   UNL     1      -2.123   3.521  25.508  0.00  0.00    -0.343 N 
ATOM      5  C   UNL     1      -1.349  -0.895  23.626  0.00  0.00    +0.085 C 
ATOM      6  C   UNL     1      -2.269   0.188  24.198  0.00  0.00    -0.021 A 
ATOM      7  C   UNL     1      -1.846   1.473  24.644  0.00  0.00    +0.008 A 
ATOM      8  C   UNL     1       0.675   0.465  23.277  0.00  0.00    +0.145 C 
ATOM     10  C   UNL     1      -0.575   2.144  24.700  0.00  0.00    -0.020 A 
ATOM     11  C   UNL     1       0.756   1.623  24.269  0.00  0.00    +0.065 C 
ATOM     12  C   UNL     1      -2.792   2.380  25.136  0.00  0.00    +0.050 A 
ATOM     14  C   UNL     1      -0.791   3.393  25.246  0.00  0.00    +0.090 A 
ATOM     15  C   UNL     1      -3.666  -0.055  24.228  0.00  0.00    +0.006 A 
ATOM     17  C   UNL     1      -4.159   2.104  25.200  0.00  0.00    +0.026 A 
ATOM     18  C   UNL     1      -4.584   0.871  24.723  0.00  0.00    +0.002 A 
ATOM     27  H   UNL     1       0.283  -0.757  24.885  0.00  0.00    +0.123 HD
ENDROOT
BRANCH   8  16
ATOM      1  O   UNL     1       2.321  -1.084  22.509  0.00  0.00    -0.274 OA
ATOM      4  N   UNL     1       2.972   1.092  23.023  0.00  0.00    -0.310 N 
ATOM     16  C   UNL     1       2.063   0.057  22.885  0.00  0.00    +0.231 C 
ATOM     28  H   UNL     1       2.645   2.006  23.322  0.00  0.00    +0.149 HD
BRANCH   4  23
ATOM     23  C   UNL     1       4.381   0.951  22.731  0.00  0.00    +0.131 C 
BRANCH  23  25
ATOM     25  C   UNL     1       5.088   0.482  23.959  0.00  0.00    -0.016 C 
ATOM     26  C   UNL     1       5.484  -0.781  24.154  0.00  0.00    +0.005 C 
ENDBRANCH  23  25
ENDBRANCH   4  23
ENDBRANCH   8  16
BRANCH   5   9
ATOM      9  C   UNL     1      -1.676  -2.297  24.171  0.00  0.00    +0.026 C 
BRANCH   9  13
ATOM     13  C   UNL     1      -3.121  -2.426  24.659  0.00  0.00    -0.015 C 
ATOM     19  C   UNL     1      -3.121  -2.889  26.119  0.00  0.00    +0.007 C 
ATOM     20  C   UNL     1      -3.946  -3.394  23.811  0.00  0.00    +0.007 C 
ENDBRANCH   9  13
ENDBRANCH   5   9
BRANCH   3  21
ATOM     21  C   UNL     1      -2.729   4.705  26.078  0.00  0.00    +0.148 C 
BRANCH  21  22
ATOM     22  C   UNL     1      -2.302   5.962  25.379  0.00  0.00    -0.013 C 
ATOM     24  C   UNL     1      -1.175   6.075  24.667  0.00  0.00    +0.005 C 
ENDBRANCH  21  22
ENDBRANCH   3  21
TORSDOF 7
ENDMDL
MODEL 2
REMARK VINA RESULT:      -4.6      0.687      1.034
REMARK  Name = 51138115
REMARK  9 active torsions:
REMARK  status: ('A' for Active; 'I' for Inactive)
REMARK    1  A    between atoms: N_3  and  C_21
REMARK    2  A    between atoms: N_4  and  C_23
REMARK    3  A    between atoms: C_5  and  C_9
REMARK    4  A    between atoms: C_8  and  C_16
REMARK    5  A    between atoms: C_9  and  C_13
REMARK    6  A    between atoms: C_13  and  C_19
REMARK    7  A    between atoms: C_13  and  C_20
REMARK    8  A    between atoms: C_21  and  C_22
REMARK    9  A    between atoms: C_23  and  C_25
REMARK                            x       y       z     vdW  Elec       q    Type
REMARK                         _______ _______ _______ _____ _____    ______ ____
ROOT
ATOM      2  N   UNL     1       0.084  -0.699  23.927  0.00  0.00    -0.299 NA
ATOM      3  N   UNL     1      -2.360   3.477  25.376  0.00  0.00    -0.343 N 
ATOM      5  C   UNL     1      -1.338  -0.957  23.660  0.00  0.00    +0.085 C 
ATOM      6  C   UNL     1      -2.319   0.097  24.184  0.00  0.00    -0.021 A 
ATOM      7  C   UNL     1      -1.968   1.417  24.588  0.00  0.00    +0.008 A 
ATOM      8  C   UNL     1       0.618   0.493  23.284  0.00  0.00    +0.145 C 
ATOM     10  C   UNL     1      -0.733   2.154  24.633  0.00  0.00    -0.020 A 
ATOM     11  C   UNL     1       0.628   1.687  24.235  0.00  0.00    +0.065 C 
ATOM     12  C   UNL     1      -2.965   2.290  25.038  0.00  0.00    +0.050 A 
ATOM     14  C   UNL     1      -1.021   3.408  25.132  0.00  0.00    +0.090 A 
ATOM     15  C   UNL     1      -3.702  -0.217  24.208  0.00  0.00    +0.006 A 
ATOM     17  C   UNL     1      -4.316   1.946  25.098  0.00  0.00    +0.026 A 
ATOM     18  C   UNL     1      -4.672   0.676  24.660  0.00  0.00    +0.002 A 
ATOM     27  H   UNL     1       0.270  -0.691  24.930  0.00  0.00    +0.123 HD
ENDROOT
BRANCH   8  16
ATOM      1  O   UNL     1       2.347  -0.991  22.574  0.00  0.00    -0.274 OA
ATOM      4  N   UNL     1       2.886   1.225  23.048  0.00  0.00    -0.310 N 
ATOM     16  C   UNL     1       2.029   0.144  22.921  0.00  0.00    +0.231 C 
ATOM     28  H   UNL     1       2.511   2.128  23.322  0.00  0.00    +0.149 HD
BRANCH   4  23
ATOM     23  C   UNL     1       4.304   1.146  22.780  0.00  0.00    +0.131 C 
BRANCH  23  25
ATOM     25  C   UNL     1       4.992   0.550  23.963  0.00  0.00    -0.016 C 
ATOM     26  C   UNL     1       5.541  -0.670  23.970  0.00  0.00    +0.005 C 
ENDBRANCH  23  25
ENDBRANCH   4  23
ENDBRANCH   8  16
BRANCH   5   9
ATOM      9  C   UNL     1      -1.598  -2.354  24.251  0.00  0.00    +0.026 C 
BRANCH   9  13
ATOM     13  C   UNL     1      -3.050  -2.552  24.697  0.00  0.00    -0.015 C 
ATOM     19  C   UNL     1      -3.077  -2.900  26.188  0.00  0.00    +0.007 C 
ATOM     20  C   UNL     1      -3.767  -3.642  23.900  0.00  0.00    +0.007 C 
ENDBRANCH   9  13
ENDBRANCH   5   9
BRANCH   3  21
ATOM     21  C   UNL     1      -3.033   4.647  25.897  0.00  0.00    +0.148 C 
BRANCH  21  22
ATOM     22  C   UNL     1      -4.304   4.953  25.164  0.00  0.00    -0.013 C 
ATOM     24  C   UNL     1      -5.522   4.622  25.608  0.00  0.00    +0.005 C 
ENDBRANCH  21  22
ENDBRANCH   3  21
TORSDOF 7
ENDMDL
MODEL 3
REMARK VINA RESULT:      -3.1      2.253      6.296
REMARK  Name = 51138115
REMARK  9 active torsions:
REMARK  status: ('A' for Active; 'I' for Inactive)
REMARK    1  A    between atoms: N_3  and  C_21
REMARK    2  A    between atoms: N_4  and  C_23
REMARK    3  A    between atoms: C_5  and  C_9
REMARK    4  A    between atoms: C_8  and  C_16
REMARK    5  A    between atoms: C_9  and  C_13
REMARK    6  A    between atoms: C_13  and  C_19
REMARK    7  A    between atoms: C_13  and  C_20
REMARK    8  A    between atoms: C_21  and  C_22
REMARK    9  A    between atoms: C_23  and  C_25
REMARK                            x       y       z     vdW  Elec       q    Type
REMARK                         _______ _______ _______ _____ _____    ______ ____
ROOT
ATOM      2  N   UNL     1      -2.595   1.224  25.218  0.00  0.00    -0.299 NA
ATOM      3  N   UNL     1       1.906   0.316  23.116  0.00  0.00    -0.343 N 
ATOM      5  C   UNL     1      -2.102  -0.008  25.849  0.00  0.00    +0.085 C 
ATOM      6  C   UNL     1      -0.823  -0.601  25.250  0.00  0.00    -0.021 A 
ATOM      7  C   UNL     1       0.081   0.092  24.394  0.00  0.00    +0.008 A 
ATOM      8  C   UNL     1      -1.702   2.368  25.334  0.00  0.00    +0.145 C 
ATOM     10  C   UNL     1       0.130   1.427  23.862  0.00  0.00    -0.020 A 
ATOM     11  C   UNL     1      -0.842   2.538  24.084  0.00  0.00    +0.065 C 
ATOM     12  C   UNL     1       1.225  -0.563  23.923  0.00  0.00    +0.050 A 
ATOM     14  C   UNL     1       1.261   1.516  23.076  0.00  0.00    +0.090 A 
ATOM     15  C   UNL     1      -0.449  -1.919  25.620  0.00  0.00    +0.006 A 
ATOM     17  C   UNL     1       1.552  -1.877  24.262  0.00  0.00    +0.026 A 
ATOM     18  C   UNL     1       0.699  -2.542  25.134  0.00  0.00    +0.002 A 
ATOM     27  H   UNL     1      -2.854   1.056  24.245  0.00  0.00    +0.123 HD
ENDROOT
BRANCH   8  16
ATOM      1  O   UNL     1      -2.171   4.663  25.790  0.00  0.00    -0.274 OA
ATOM      4  N   UNL     1      -3.929   3.240  25.236  0.00  0.00    -0.310 N 
ATOM     16  C   UNL     1      -2.602   3.557  25.476  0.00  0.00    +0.231 C 
ATOM     28  H   UNL     1      -4.174   2.294  24.960  0.00  0.00    +0.149 HD
BRANCH   4  23
ATOM     23  C   UNL     1      -5.002   4.205  25.330  0.00  0.00    +0.131 C 
BRANCH  23  25
ATOM     25  C   UNL     1      -6.267   3.494  25.677  0.00  0.00    -0.016 C 
ATOM     26  C   UNL     1      -6.360   2.168  25.829  0.00  0.00    +0.005 C 
ENDBRANCH  23  25
ENDBRANCH   4  23
ENDBRANCH   8  16
BRANCH   5   9
ATOM      9  C   UNL     1      -3.292  -0.982  25.786  0.00  0.00    +0.026 C 
BRANCH   9  13
ATOM     13  C   UNL     1      -3.491  -1.593  24.396  0.00  0.00    -0.015 C 
ATOM     19  C   UNL     1      -4.758  -1.009  23.764  0.00  0.00    +0.007 C 
ATOM     20  C   UNL     1      -3.588  -3.118  24.431  0.00  0.00    +0.007 C 
ENDBRANCH   9  13
ENDBRANCH   5   9
BRANCH   3  21
ATOM     21  C   UNL     1       3.142   0.034  22.417  0.00  0.00    +0.148 C 
BRANCH  21  22
ATOM     22  C   UNL     1       4.328   0.685  23.063  0.00  0.00    -0.013 C 
ATOM     24  C   UNL     1       5.363   0.010  23.577  0.00  0.00    +0.005 C 
ENDBRANCH  21  22
ENDBRANCH   3  21
TORSDOF 7
ENDMDL
MODEL 4
REMARK VINA RESULT:      -2.5      1.627      5.362
REMARK  Name = 51138115
REMARK  9 active torsions:
REMARK  status: ('A' for Active; 'I' for Inactive)
REMARK    1  A    between atoms: N_3  and  C_21
REMARK    2  A    between atoms: N_4  and  C_23
REMARK    3  A    between atoms: C_5  and  C_9
REMARK    4  A    between atoms: C_8  and  C_16
REMARK    5  A    between atoms: C_9  and  C_13
REMARK    6  A    between atoms: C_13  and  C_19
REMARK    7  A    between atoms: C_13  and  C_20
REMARK    8  A    between atoms: C_21  and  C_22
REMARK    9  A    between atoms: C_23  and  C_25
REMARK                            x       y       z     vdW  Elec       q    Type
REMARK                         _______ _______ _______ _____ _____    ______ ____
ROOT
ATOM      2  N   UNL     1      -0.189   0.433  24.178  0.00  0.00    -0.299 NA
ATOM      3  N   UNL     1      -3.863   3.781  25.074  0.00  0.00    -0.343 N 
ATOM      5  C   UNL     1       0.492   1.687  24.527  0.00  0.00    +0.085 C 
ATOM      6  C   UNL     1      -0.407   2.919  24.669  0.00  0.00    -0.021 A 
ATOM      7  C   UNL     1      -1.823   2.890  24.824  0.00  0.00    +0.008 A 
ATOM      8  C   UNL     1      -1.130  -0.049  25.180  0.00  0.00    +0.145 C 
ATOM     10  C   UNL     1      -2.798   1.835  24.908  0.00  0.00    -0.020 A 
ATOM     11  C   UNL     1      -2.562   0.362  24.848  0.00  0.00    +0.065 C 
ATOM     12  C   UNL     1      -2.529   4.091  24.957  0.00  0.00    +0.050 A 
ATOM     14  C   UNL     1      -4.035   2.429  25.051  0.00  0.00    +0.090 A 
ATOM     15  C   UNL     1       0.201   4.199  24.729  0.00  0.00    +0.006 A 
ATOM     17  C   UNL     1      -1.915   5.344  24.967  0.00  0.00    +0.026 A 
ATOM     18  C   UNL     1      -0.530   5.378  24.864  0.00  0.00    +0.002 A 
ATOM     27  H   UNL     1      -0.631   0.501  23.261  0.00  0.00    +0.123 HD
ENDROOT
BRANCH   8  16
ATOM      1  O   UNL     1      -0.019  -2.134  25.514  0.00  0.00    -0.274 OA
ATOM      4  N   UNL     1      -2.159  -2.130  24.596  0.00  0.00    -0.310 N 
ATOM     16  C   UNL     1      -1.025  -1.543  25.131  0.00  0.00    +0.231 C 
ATOM     28  H   UNL     1      -2.946  -1.546  24.331  0.00  0.00    +0.149 HD
BRANCH   4  23
ATOM     23  C   UNL     1      -2.301  -3.558  24.419  0.00  0.00    +0.131 C 
BRANCH  23  25
ATOM     25  C   UNL     1      -3.692  -3.857  23.964  0.00  0.00    -0.016 C 
ATOM     26  C   UNL     1      -4.586  -2.917  23.634  0.00  0.00    +0.005 C 
ENDBRANCH  23  25
ENDBRANCH   4  23
ENDBRANCH   8  16
BRANCH   5   9
ATOM      9  C   UNL     1       1.567   1.862  23.441  0.00  0.00    +0.026 C 
BRANCH   9  13
ATOM     13  C   UNL     1       2.330   0.568  23.141  0.00  0.00    -0.015 C 
ATOM     19  C   UNL     1       3.792   0.904  22.835  0.00  0.00    +0.007 C 
ATOM     20  C   UNL     1       1.727  -0.216  21.976  0.00  0.00    +0.007 C 
ENDBRANCH   9  13
ENDBRANCH   5   9
BRANCH   3  21
ATOM     21  C   UNL     1      -4.940   4.736  25.220  0.00  0.00    +0.148 C 
BRANCH  21  22
ATOM     22  C   UNL     1      -6.204   4.103  25.720  0.00  0.00    -0.013 C 
ATOM     24  C   UNL     1      -6.323   2.803  26.013  0.00  0.00    +0.005 C 
ENDBRANCH  21  22
ENDBRANCH   3  21
TORSDOF 7
ENDMDL
MODEL 5
REMARK VINA RESULT:      -1.4      2.990      5.935
REMARK  Name = 51138115
REMARK  9 active torsions:
REMARK  status: ('A' for Active; 'I' for Inactive)
REMARK    1  A    between atoms: N_3  and  C_21
REMARK    2  A    between atoms: N_4  and  C_23
REMARK    3  A    between atoms: C_5  and  C_9
REMARK    4  A    between atoms: C_8  and  C_16
REMARK    5  A    between atoms: C_9  and  C_13
REMARK    6  A    between atoms: C_13  and  C_19
REMARK    7  A    between atoms: C_13  and  C_20
REMARK    8  A    between atoms: C_21  and  C_22
REMARK    9  A    between atoms: C_23  and  C_25
REMARK                            x       y       z     vdW  Elec       q    Type
REMARK                         _______ _______ _______ _____ _____    ______ ____
ROOT
ATOM      2  N   UNL     1      -1.558   3.407  25.950  0.00  0.00    -0.299 NA
ATOM      3  N   UNL     1      -3.909  -0.671  24.118  0.00  0.00    -0.343 N 
ATOM      5  C   UNL     1      -2.968   3.552  26.337  0.00  0.00    +0.085 C 
ATOM      6  C   UNL     1      -3.935   2.525  25.741  0.00  0.00    -0.021 A 
ATOM      7  C   UNL     1      -3.555   1.288  25.145  0.00  0.00    +0.008 A 
ATOM      8  C   UNL     1      -0.929   2.171  26.395  0.00  0.00    +0.145 C 
ATOM     10  C   UNL     1      -2.295   0.629  24.925  0.00  0.00    -0.020 A 
ATOM     11  C   UNL     1      -0.932   1.111  25.296  0.00  0.00    +0.065 C 
ATOM     12  C   UNL     1      -4.542   0.429  24.647  0.00  0.00    +0.050 A 
ATOM     14  C   UNL     1      -2.560  -0.564  24.285  0.00  0.00    +0.090 A 
ATOM     15  C   UNL     1      -5.329   2.766  25.845  0.00  0.00    +0.006 A 
ATOM     17  C   UNL     1      -5.907   0.706  24.718  0.00  0.00    +0.026 A 
ATOM     18  C   UNL     1      -6.287   1.888  25.340  0.00  0.00    +0.002 A 
ATOM     27  H   UNL     1      -1.441   3.537  24.945  0.00  0.00    +0.123 HD
ENDROOT
BRANCH   8  16
ATOM      1  O   UNL     1       1.263   2.938  25.845  0.00  0.00    -0.274 OA
ATOM      4  N   UNL     1       0.788   2.369  28.052  0.00  0.00    -0.310 N 
ATOM     16  C   UNL     1       0.488   2.545  26.712  0.00  0.00    +0.231 C 
ATOM     28  H   UNL     1       0.061   2.058  28.690  0.00  0.00    +0.149 HD
BRANCH   4  23
ATOM     23  C   UNL     1       2.094   2.637  28.612  0.00  0.00    +0.131 C 
BRANCH  23  25
ATOM     25  C   UNL     1       2.080   2.297  30.066  0.00  0.00    -0.016 C 
ATOM     26  C   UNL     1       0.978   2.311  30.824  0.00  0.00    +0.005 C 
ENDBRANCH  23  25
ENDBRANCH   4  23
ENDBRANCH   8  16
BRANCH   5   9
ATOM      9  C   UNL     1      -3.330   4.998  25.953  0.00  0.00    +0.026 C 
BRANCH   9  13
ATOM     13  C   UNL     1      -2.686   5.446  24.638  0.00  0.00    -0.015 C 
ATOM     19  C   UNL     1      -3.146   4.520  23.510  0.00  0.00    +0.007 C 
ATOM     20  C   UNL     1      -1.159   5.460  24.705  0.00  0.00    +0.007 C 
ENDBRANCH   9  13
ENDBRANCH   5   9
BRANCH   3  21
ATOM     21  C   UNL     1      -4.564  -1.798  23.489  0.00  0.00    +0.148 C 
BRANCH  21  22
ATOM     22  C   UNL     1      -4.060  -3.114  24.003  0.00  0.00    -0.013 C 
ATOM     24  C   UNL     1      -3.287  -3.246  25.087  0.00  0.00    +0.005 C 
ENDBRANCH  21  22
ENDBRANCH   3  21
TORSDOF 7
ENDMDL
MODEL 6
REMARK VINA RESULT:      -1.3      1.357      4.905
REMARK  Name = 51138115
REMARK  9 active torsions:
REMARK  status: ('A' for Active; 'I' for Inactive)
REMARK    1  A    between atoms: N_3  and  C_21
REMARK    2  A    between atoms: N_4  and  C_23
REMARK    3  A    between atoms: C_5  and  C_9
REMARK    4  A    between atoms: C_8  and  C_16
REMARK    5  A    between atoms: C_9  and  C_13
REMARK    6  A    between atoms: C_13  and  C_19
REMARK    7  A    between atoms: C_13  and  C_20
REMARK    8  A    between atoms: C_21  and  C_22
REMARK    9  A    between atoms: C_23  and  C_25
REMARK                            x       y       z     vdW  Elec       q    Type
REMARK                         _______ _______ _______ _____ _____    ______ ____
ROOT
ATOM      2  N   UNL     1       0.483   1.494  23.082  0.00  0.00    -0.299 NA
ATOM      3  N   UNL     1      -2.508  -2.269  24.631  0.00  0.00    -0.343 N 
ATOM      5  C   UNL     1      -0.385   2.076  24.114  0.00  0.00    +0.085 C 
ATOM      6  C   UNL     1      -1.517   1.176  24.620  0.00  0.00    -0.021 A 
ATOM      7  C   UNL     1      -1.590  -0.235  24.436  0.00  0.00    +0.008 A 
ATOM      8  C   UNL     1       1.250   0.334  23.514  0.00  0.00    +0.145 C 
ATOM     10  C   UNL     1      -0.737  -1.206  23.806  0.00  0.00    -0.020 A 
ATOM     11  C   UNL     1       0.566  -0.971  23.116  0.00  0.00    +0.065 C 
ATOM     12  C   UNL     1      -2.676  -0.945  24.962  0.00  0.00    +0.050 A 
ATOM     14  C   UNL     1      -1.344  -2.438  23.941  0.00  0.00    +0.090 A 
ATOM     15  C   UNL     1      -2.549   1.758  25.401  0.00  0.00    +0.006 A 
ATOM     17  C   UNL     1      -3.705  -0.346  25.688  0.00  0.00    +0.026 A 
ATOM     18  C   UNL     1      -3.616   1.022  25.912  0.00  0.00    +0.002 A 
ATOM     27  H   UNL     1      -0.045   1.291  22.234  0.00  0.00    +0.123 HD
ENDROOT
BRANCH   8  16
ATOM      1  O   UNL     1       2.681   0.118  21.616  0.00  0.00    -0.274 OA
ATOM      4  N   UNL     1       3.573   0.908  23.617  0.00  0.00    -0.310 N 
ATOM     16  C   UNL     1       2.561   0.440  22.796  0.00  0.00    +0.231 C 
ATOM     28  H   UNL     1       3.357   1.167  24.576  0.00  0.00    +0.149 HD
BRANCH   4  23
ATOM     23  C   UNL     1       4.937   1.080  23.172  0.00  0.00    +0.131 C 
BRANCH  23  25
ATOM     25  C   UNL     1       5.681  -0.198  23.377  0.00  0.00    -0.016 C 
ATOM     26  C   UNL     1       5.355  -1.111  24.300  0.00  0.00    +0.005 C 
ENDBRANCH  23  25
ENDBRANCH   4  23
ENDBRANCH   8  16
BRANCH   5   9
ATOM      9  C   UNL     1      -0.903   3.386  23.495  0.00  0.00    +0.026 C 
BRANCH   9  13
ATOM     13  C   UNL     1      -0.777   4.584  24.440  0.00  0.00    -0.015 C 
ATOM     19  C   UNL     1       0.065   4.183  25.654  0.00  0.00    +0.007 C 
ATOM     20  C   UNL     1      -2.133   5.114  24.905  0.00  0.00    +0.007 C 
ENDBRANCH   9  13
ENDBRANCH   5   9
BRANCH   3  21
ATOM     21  C   UNL     1      -3.415  -3.344  24.972  0.00  0.00    +0.148 C 
BRANCH  21  22
ATOM     22  C   UNL     1      -4.439  -3.591  23.906  0.00  0.00    -0.013 C 
ATOM     24  C   UNL     1      -5.128  -2.622  23.292  0.00  0.00    +0.005 C 
ENDBRANCH  21  22
ENDBRANCH   3  21
TORSDOF 7
ENDMDL
