MODEL 1
REMARK VINA RESULT:      21.8      0.000      0.000
REMARK  Name = 100630278
REMARK  3 active torsions:
REMARK  status: ('A' for Active; 'I' for Inactive)
REMARK    1  A    between atoms: N_9  and  C_29
REMARK    2  A    between atoms: C_10  and  C_15
REMARK    3  A    between atoms: C_15  and  C_17
REMARK                            x       y       z     vdW  Elec       q    Type
REMARK                         _______ _______ _______ _____ _____    ______ ____
ROOT
ATOM      2  O   UNL     1      -2.438  -3.820  23.952  0.00  0.00    -0.274 OA
ATOM      4  O   UNL     1      -0.645   1.100  24.807  0.00  0.00    -0.488 OA
ATOM      6  N   UNL     1      -3.598  -2.098  24.975  0.00  0.00    -0.300 N 
ATOM      8  N   UNL     1      -0.505  -1.698  25.591  0.00  0.00    -0.304 NA
ATOM     10  C   UNL     1      -4.731   0.379  23.935  0.00  0.00    +0.008 C 
ATOM     11  C   UNL     1      -3.561   0.337  24.963  0.00  0.00    +0.032 C 
ATOM     12  C   UNL     1      -4.747  -0.944  23.131  0.00  0.00    +0.023 C 
ATOM     13  C   UNL     1      -3.656  -0.921  25.848  0.00  0.00    +0.115 C 
ATOM     14  C   UNL     1      -4.716  -2.182  24.031  0.00  0.00    +0.108 C 
ATOM     16  C   UNL     1      -3.429   1.584  25.795  0.00  0.00    -0.023 C 
ATOM     18  C   UNL     1      -2.508  -2.955  24.834  0.00  0.00    +0.229 C 
ATOM     19  C   UNL     1      -2.384   2.424  25.894  0.00  0.00    +0.010 C 
ATOM     20  C   UNL     1      -1.366  -2.853  25.828  0.00  0.00    +0.178 C 
ATOM     23  C   UNL     1      -1.009   2.394  25.276  0.00  0.00    +0.256 C 
ATOM     26  C   UNL     1       0.022  -1.587  24.233  0.00  0.00    +0.120 C 
ATOM     27  C   UNL     1       1.007  -0.438  24.101  0.00  0.00    +0.010 A 
ATOM     28  C   UNL     1       0.645   0.901  24.382  0.00  0.00    +0.125 A 
ATOM     29  C   UNL     1       3.242   0.314  23.504  0.00  0.00    +0.030 A 
ATOM     30  C   UNL     1       2.312  -0.712  23.661  0.00  0.00    +0.031 A 
ATOM     33  C   UNL     1       1.586   1.923  24.214  0.00  0.00    +0.048 A 
ATOM     34  C   UNL     1       2.878   1.629  23.779  0.00  0.00    +0.027 A 
ATOM     37  H   UNL     1       0.270  -1.730  26.254  0.00  0.00    +0.123 HD
ENDROOT
BRANCH  29   9
ATOM      5  O   UNL     1       7.189  -0.285  22.183  0.00  0.00    -0.377 OA
ATOM      9  N   UNL     1       4.538   0.023  23.066  0.00  0.00    -0.326 N 
ATOM     31  C   UNL     1       5.661   0.356  23.954  0.00  0.00    +0.133 C 
ATOM     32  C   UNL     1       4.849   0.046  21.632  0.00  0.00    +0.133 C 
ATOM     35  C   UNL     1       6.885  -0.465  23.566  0.00  0.00    +0.178 C 
ATOM     36  C   UNL     1       6.117  -0.758  21.367  0.00  0.00    +0.178 C 
ENDBRANCH  29   9
BRANCH  10  15
ATOM     15  C   UNL     1      -6.110   0.654  24.546  0.00  0.00    +0.100 C 
BRANCH  15  17
ATOM      1  O   UNL     1      -6.523   1.927  26.503  0.00  0.00    -0.276 OA
ATOM      3  O   UNL     1      -3.725   5.056  23.886  0.00  0.00    -0.377 OA
ATOM      7  N   UNL     1      -5.495   3.036  24.741  0.00  0.00    -0.297 N 
ATOM     17  C   UNL     1      -6.066   1.924  25.357  0.00  0.00    +0.216 C 
ATOM     21  C   UNL     1      -5.408   4.307  25.459  0.00  0.00    +0.136 C 
ATOM     22  C   UNL     1      -5.060   3.103  23.341  0.00  0.00    +0.136 C 
ATOM     24  C   UNL     1      -4.029   4.926  25.278  0.00  0.00    +0.179 C 
ATOM     25  C   UNL     1      -3.696   3.777  23.246  0.00  0.00    +0.179 C 
ENDBRANCH  15  17
ENDBRANCH  10  15
TORSDOF 3
ENDMDL
MODEL 2
REMARK VINA RESULT:      22.0      2.008      4.589
REMARK  Name = 100630278
REMARK  3 active torsions:
REMARK  status: ('A' for Active; 'I' for Inactive)
REMARK    1  A    between atoms: N_9  and  C_29
REMARK    2  A    between atoms: C_10  and  C_15
REMARK    3  A    between atoms: C_15  and  C_17
REMARK                            x       y       z     vdW  Elec       q    Type
REMARK                         _______ _______ _______ _____ _____    ______ ____
ROOT
ATOM      2  O   UNL     1      -0.370   5.751  25.557  0.00  0.00    -0.274 OA
ATOM      4  O   UNL     1      -0.635   0.940  23.335  0.00  0.00    -0.488 OA
ATOM      6  N   UNL     1      -2.278   4.718  24.751  0.00  0.00    -0.300 N 
ATOM      8  N   UNL     1       0.189   3.712  23.017  0.00  0.00    -0.304 NA
ATOM     10  C   UNL     1      -3.813   2.433  25.712  0.00  0.00    +0.008 C 
ATOM     11  C   UNL     1      -3.046   2.442  24.355  0.00  0.00    +0.032 C 
ATOM     12  C   UNL     1      -3.156   3.456  26.671  0.00  0.00    +0.023 C 
ATOM     13  C   UNL     1      -2.972   3.868  23.778  0.00  0.00    +0.115 C 
ATOM     14  C   UNL     1      -2.980   4.835  26.032  0.00  0.00    +0.108 C 
ATOM     16  C   UNL     1      -3.581   1.468  23.341  0.00  0.00    -0.023 C 
ATOM     18  C   UNL     1      -0.974   5.198  24.631  0.00  0.00    +0.229 C 
ATOM     19  C   UNL     1      -2.949   0.443  22.742  0.00  0.00    +0.010 C 
ATOM     20  C   UNL     1      -0.270   5.070  23.292  0.00  0.00    +0.178 C 
ATOM     23  C   UNL     1      -1.525  -0.045  22.824  0.00  0.00    +0.256 C 
ATOM     26  C   UNL     1       1.019   3.116  24.061  0.00  0.00    +0.120 C 
ATOM     27  C   UNL     1       1.562   1.759  23.644  0.00  0.00    +0.010 A 
ATOM     28  C   UNL     1       0.712   0.682  23.299  0.00  0.00    +0.125 A 
ATOM     29  C   UNL     1       3.494   0.327  23.275  0.00  0.00    +0.030 A 
ATOM     30  C   UNL     1       2.953   1.562  23.628  0.00  0.00    +0.031 A 
ATOM     33  C   UNL     1       1.268  -0.555  22.953  0.00  0.00    +0.048 A 
ATOM     34  C   UNL     1       2.652  -0.729  22.939  0.00  0.00    +0.027 A 
ATOM     37  H   UNL     1       0.703   3.717  22.135  0.00  0.00    +0.123 HD
ENDROOT
BRANCH  29   9
ATOM      5  O   UNL     1       7.632  -0.398  23.441  0.00  0.00    -0.377 OA
ATOM      9  N   UNL     1       4.881   0.149  23.263  0.00  0.00    -0.326 N 
ATOM     31  C   UNL     1       5.409  -1.156  22.838  0.00  0.00    +0.133 C 
ATOM     32  C   UNL     1       5.722   0.881  24.216  0.00  0.00    +0.133 C 
ATOM     35  C   UNL     1       6.863  -1.007  22.405  0.00  0.00    +0.178 C 
ATOM     36  C   UNL     1       7.159   0.922  23.710  0.00  0.00    +0.178 C 
ENDBRANCH  29   9
BRANCH  10  15
ATOM     15  C   UNL     1      -5.319   2.693  25.597  0.00  0.00    +0.100 C 
BRANCH  15  17
ATOM      1  O   UNL     1      -6.937   1.768  24.131  0.00  0.00    -0.276 OA
ATOM      3  O   UNL     1      -4.030  -2.147  24.960  0.00  0.00    -0.377 OA
ATOM      7  N   UNL     1      -5.461   0.276  25.123  0.00  0.00    -0.297 N 
ATOM     17  C   UNL     1      -5.984   1.544  24.882  0.00  0.00    +0.216 C 
ATOM     21  C   UNL     1      -6.043  -0.894  24.467  0.00  0.00    +0.136 C 
ATOM     22  C   UNL     1      -4.415  -0.042  26.103  0.00  0.00    +0.136 C 
ATOM     24  C   UNL     1      -4.947  -1.797  23.919  0.00  0.00    +0.179 C 
ATOM     25  C   UNL     1      -3.387  -0.984  25.491  0.00  0.00    +0.179 C 
ENDBRANCH  15  17
ENDBRANCH  10  15
TORSDOF 3
ENDMDL
MODEL 3
REMARK VINA RESULT:      24.7      1.270      1.546
REMARK  Name = 100630278
REMARK  3 active torsions:
REMARK  status: ('A' for Active; 'I' for Inactive)
REMARK    1  A    between atoms: N_9  and  C_29
REMARK    2  A    between atoms: C_10  and  C_15
REMARK    3  A    between atoms: C_15  and  C_17
REMARK                            x       y       z     vdW  Elec       q    Type
REMARK                         _______ _______ _______ _____ _____    ______ ____
ROOT
ATOM      2  O   UNL     1      -1.842  -3.368  24.333  0.00  0.00    -0.274 OA
ATOM      4  O   UNL     1       0.347   1.454  23.989  0.00  0.00    -0.488 OA
ATOM      6  N   UNL     1      -2.882  -1.355  24.805  0.00  0.00    -0.300 N 
ATOM      8  N   UNL     1       0.209  -1.043  25.477  0.00  0.00    -0.304 NA
ATOM     10  C   UNL     1      -3.752   0.839  23.094  0.00  0.00    +0.008 C 
ATOM     11  C   UNL     1      -2.630   0.981  24.165  0.00  0.00    +0.032 C 
ATOM     12  C   UNL     1      -3.855  -0.643  22.661  0.00  0.00    +0.023 C 
ATOM     13  C   UNL     1      -2.868   0.011  25.338  0.00  0.00    +0.115 C 
ATOM     14  C   UNL     1      -3.967  -1.599  23.851  0.00  0.00    +0.108 C 
ATOM     16  C   UNL     1      -2.418   2.389  24.653  0.00  0.00    -0.023 C 
ATOM     18  C   UNL     1      -1.868  -2.300  24.955  0.00  0.00    +0.229 C 
ATOM     19  C   UNL     1      -1.307   3.144  24.591  0.00  0.00    +0.010 C 
ATOM     20  C   UNL     1      -0.758  -2.026  25.954  0.00  0.00    +0.178 C 
ATOM     23  C   UNL     1       0.081   2.848  24.085  0.00  0.00    +0.256 C 
ATOM     26  C   UNL     1       0.794  -1.333  24.170  0.00  0.00    +0.120 C 
ATOM     27  C   UNL     1       1.881  -0.336  23.804  0.00  0.00    +0.010 A 
ATOM     28  C   UNL     1       1.628   1.052  23.707  0.00  0.00    +0.125 A 
ATOM     29  C   UNL     1       4.195   0.060  23.165  0.00  0.00    +0.030 A 
ATOM     30  C   UNL     1       3.172  -0.815  23.527  0.00  0.00    +0.031 A 
ATOM     33  C   UNL     1       2.662   1.920  23.336  0.00  0.00    +0.048 A 
ATOM     34  C   UNL     1       3.938   1.425  23.069  0.00  0.00    +0.027 A 
ATOM     37  H   UNL     1       0.953  -0.958  26.171  0.00  0.00    +0.123 HD
ENDROOT
BRANCH  29   9
ATOM      5  O   UNL     1       8.037  -1.551  22.601  0.00  0.00    -0.377 OA
ATOM      9  N   UNL     1       5.475  -0.432  22.895  0.00  0.00    -0.326 N 
ATOM     31  C   UNL     1       5.637  -1.882  22.714  0.00  0.00    +0.133 C 
ATOM     32  C   UNL     1       6.654   0.266  23.421  0.00  0.00    +0.133 C 
ATOM     35  C   UNL     1       6.925  -2.164  21.949  0.00  0.00    +0.178 C 
ATOM     36  C   UNL     1       7.888  -0.131  22.620  0.00  0.00    +0.178 C 
ENDBRANCH  29   9
BRANCH  10  15
ATOM     15  C   UNL     1      -5.123   1.369  23.530  0.00  0.00    +0.100 C 
BRANCH  15  17
ATOM      1  O   UNL     1      -5.311   0.722  25.803  0.00  0.00    -0.276 OA
ATOM      3  O   UNL     1      -3.693   5.374  26.252  0.00  0.00    -0.377 OA
ATOM      7  N   UNL     1      -4.881   2.967  25.395  0.00  0.00    -0.297 N 
ATOM     17  C   UNL     1      -5.116   1.648  25.012  0.00  0.00    +0.216 C 
ATOM     21  C   UNL     1      -4.853   3.324  26.814  0.00  0.00    +0.136 C 
ATOM     22  C   UNL     1      -4.773   4.112  24.484  0.00  0.00    +0.136 C 
ATOM     24  C   UNL     1      -3.666   4.230  27.109  0.00  0.00    +0.179 C 
ATOM     25  C   UNL     1      -3.592   4.990  24.878  0.00  0.00    +0.179 C 
ENDBRANCH  15  17
ENDBRANCH  10  15
TORSDOF 3
ENDMDL
