MODEL 1
REMARK VINA RESULT:      27.4      0.000      0.000
REMARK  Name = 7135498
REMARK  2 active torsions:
REMARK  status: ('A' for Active; 'I' for Inactive)
REMARK    1  A    between atoms: C_18  and  C_22
REMARK    2  A    between atoms: C_21  and  C_24
REMARK                            x       y       z     vdW  Elec       q    Type
REMARK                         _______ _______ _______ _____ _____    ______ ____
ROOT
ATOM      2  O   UNL     1      -2.252  -0.483  22.832  0.00  0.00    -0.273 OA
ATOM      3  O   UNL     1       1.502   2.973  24.213  0.00  0.00    -0.270 OA
ATOM      4  O   UNL     1      -4.684  -0.406  26.086  0.00  0.00    -0.269 OA
ATOM      7  N   UNL     1      -0.286   1.541  24.533  0.00  0.00    -0.283 N 
ATOM      8  N   UNL     1      -3.041   1.024  25.309  0.00  0.00    -0.293 N 
ATOM      9  N   UNL     1      -0.023  -0.458  22.371  0.00  0.00    -0.283 N 
ATOM     10  C   UNL     1      -0.781   0.176  24.629  0.00  0.00    +0.180 C 
ATOM     11  C   UNL     1      -1.982   0.044  25.573  0.00  0.00    +0.140 C 
ATOM     12  C   UNL     1      -1.144   2.604  25.060  0.00  0.00    +0.128 C 
ATOM     13  C   UNL     1      -2.615   2.328  24.785  0.00  0.00    +0.127 C 
ATOM     14  C   UNL     1      -1.100  -0.251  23.205  0.00  0.00    +0.239 C 
ATOM     15  C   UNL     1       1.006   1.849  24.120  0.00  0.00    +0.249 C 
ATOM     16  C   UNL     1       1.836   0.782  23.500  0.00  0.00    +0.059 A 
ATOM     17  C   UNL     1       1.340  -0.198  22.624  0.00  0.00    +0.046 A 
ATOM     18  C   UNL     1      -4.370   0.702  25.648  0.00  0.00    +0.253 C 
ATOM     19  C   UNL     1       3.226   0.901  23.686  0.00  0.00    +0.023 A 
ATOM     20  C   UNL     1       2.252  -0.986  21.899  0.00  0.00    +0.024 A 
ATOM     21  C   UNL     1       4.114   0.077  22.996  0.00  0.00    -0.017 A 
ATOM     23  C   UNL     1       3.627  -0.858  22.092  0.00  0.00    +0.010 A 
ATOM     34  H   UNL     1      -0.229  -0.949  21.504  0.00  0.00    +0.155 HD
ENDROOT
BRANCH  21  24
ATOM      5  O   UNL     1       8.773  -1.208  22.203  0.00  0.00    -0.453 OA
ATOM      6  O   UNL     1       9.605   0.486  23.703  0.00  0.00    -0.453 OA
ATOM     24  C   UNL     1       5.539   0.211  23.203  0.00  0.00    -0.014 A 
ATOM     26  C   UNL     1       6.421  -0.641  22.532  0.00  0.00    +0.058 A 
ATOM     27  C   UNL     1       6.026   1.199  24.078  0.00  0.00    +0.012 A 
ATOM     28  C   UNL     1       7.772  -0.474  22.762  0.00  0.00    +0.167 A 
ATOM     29  C   UNL     1       8.247   0.492  23.619  0.00  0.00    +0.166 A 
ATOM     30  C   UNL     1       7.399   1.346  24.292  0.00  0.00    +0.050 A 
ATOM     33  C   UNL     1       9.932  -0.593  22.803  0.00  0.00    +0.466 C 
ENDBRANCH  21  24
BRANCH  18  22
ATOM      1  S   UNL     1      -5.046   3.321  26.034  0.00  0.00    -0.092 S 
ATOM     22  C   UNL     1      -5.378   1.743  25.470  0.00  0.00    +0.074 A 
ATOM     25  C   UNL     1      -6.617   1.643  24.886  0.00  0.00    +0.021 A 
ATOM     31  C   UNL     1      -7.311   2.888  24.902  0.00  0.00    +0.008 A 
ATOM     32  C   UNL     1      -6.570   3.885  25.497  0.00  0.00    +0.046 A 
ENDBRANCH  18  22
TORSDOF 2
ENDMDL
MODEL 2
REMARK VINA RESULT:      30.4      0.621      1.237
REMARK  Name = 7135498
REMARK  2 active torsions:
REMARK  status: ('A' for Active; 'I' for Inactive)
REMARK    1  A    between atoms: C_18  and  C_22
REMARK    2  A    between atoms: C_21  and  C_24
REMARK                            x       y       z     vdW  Elec       q    Type
REMARK                         _______ _______ _______ _____ _____    ______ ____
ROOT
ATOM      2  O   UNL     1      -2.264  -0.004  22.580  0.00  0.00    -0.273 OA
ATOM      3  O   UNL     1       1.700   2.957  24.442  0.00  0.00    -0.270 OA
ATOM      4  O   UNL     1      -4.697  -0.263  25.823  0.00  0.00    -0.269 OA
ATOM      7  N   UNL     1      -0.178   1.611  24.554  0.00  0.00    -0.283 N 
ATOM      8  N   UNL     1      -2.962   1.160  25.261  0.00  0.00    -0.293 N 
ATOM      9  N   UNL     1      -0.036  -0.052  22.113  0.00  0.00    -0.283 N 
ATOM     10  C   UNL     1      -0.759   0.281  24.447  0.00  0.00    +0.180 C 
ATOM     11  C   UNL     1      -1.970   0.085  25.367  0.00  0.00    +0.140 C 
ATOM     12  C   UNL     1      -0.967   2.634  25.241  0.00  0.00    +0.128 C 
ATOM     13  C   UNL     1      -2.452   2.498  24.937  0.00  0.00    +0.127 C 
ATOM     14  C   UNL     1      -1.100   0.095  22.976  0.00  0.00    +0.239 C 
ATOM     15  C   UNL     1       1.133   1.894  24.184  0.00  0.00    +0.249 C 
ATOM     16  C   UNL     1       1.895   0.881  23.405  0.00  0.00    +0.059 A 
ATOM     17  C   UNL     1       1.340   0.079  22.394  0.00  0.00    +0.046 A 
ATOM     18  C   UNL     1      -4.310   0.875  25.556  0.00  0.00    +0.253 C 
ATOM     19  C   UNL     1       3.289   0.882  23.598  0.00  0.00    +0.023 A 
ATOM     20  C   UNL     1       2.202  -0.647  21.553  0.00  0.00    +0.024 A 
ATOM     21  C   UNL     1       4.124   0.117  22.785  0.00  0.00    -0.017 A 
ATOM     23  C   UNL     1       3.581  -0.639  21.754  0.00  0.00    +0.010 A 
ATOM     34  H   UNL     1      -0.271  -0.393  21.184  0.00  0.00    +0.155 HD
ENDROOT
BRANCH  21  24
ATOM      5  O   UNL     1       8.264   2.129  24.457  0.00  0.00    -0.453 OA
ATOM      6  O   UNL     1       9.602   0.281  23.677  0.00  0.00    -0.453 OA
ATOM     24  C   UNL     1       5.555   0.127  23.001  0.00  0.00    -0.014 A 
ATOM     26  C   UNL     1       6.149   1.207  23.660  0.00  0.00    +0.058 A 
ATOM     27  C   UNL     1       6.336  -0.951  22.546  0.00  0.00    +0.012 A 
ATOM     28  C   UNL     1       7.516   1.171  23.843  0.00  0.00    +0.167 A 
ATOM     29  C   UNL     1       8.280   0.117  23.397  0.00  0.00    +0.166 A 
ATOM     30  C   UNL     1       7.719  -0.961  22.744  0.00  0.00    +0.050 A 
ATOM     33  C   UNL     1       9.585   1.557  24.349  0.00  0.00    +0.466 C 
ENDBRANCH  21  24
BRANCH  18  22
ATOM      1  S   UNL     1      -4.679   3.557  25.931  0.00  0.00    -0.092 S 
ATOM     22  C   UNL     1      -5.250   1.994  25.543  0.00  0.00    +0.074 A 
ATOM     25  C   UNL     1      -6.591   1.982  25.251  0.00  0.00    +0.021 A 
ATOM     31  C   UNL     1      -7.165   3.283  25.346  0.00  0.00    +0.008 A 
ATOM     32  C   UNL     1      -6.236   4.233  25.708  0.00  0.00    +0.046 A 
ENDBRANCH  18  22
TORSDOF 2
ENDMDL
