MODEL 1
REMARK VINA RESULT:      -5.9      0.000      0.000
REMARK  Name = 26743672
REMARK  7 active torsions:
REMARK  status: ('A' for Active; 'I' for Inactive)
REMARK    1  A    between atoms: O_1  and  C_11
REMARK    2  A    between atoms: O_4  and  C_21
REMARK    3  A    between atoms: N_5  and  C_13
REMARK    4  A    between atoms: C_9  and  C_14
REMARK    5  A    between atoms: C_13  and  C_15
REMARK    6  A    between atoms: C_17  and  C_20
REMARK    7  A    between atoms: C_18  and  C_21
REMARK                            x       y       z     vdW  Elec       q    Type
REMARK                         _______ _______ _______ _____ _____    ______ ____
ROOT
ATOM      5  N   UNL     1      -4.641   1.355  24.796  0.00  0.00    -0.282 NA
ATOM      9  C   UNL     1      -3.795   2.363  24.123  0.00  0.00    +0.149 C 
ATOM     10  C   UNL     1      -4.167   3.698  24.795  0.00  0.00    +0.061 C 
ATOM     11  C   UNL     1      -5.259   3.346  25.797  0.00  0.00    +0.130 C 
ATOM     12  C   UNL     1      -5.841   2.055  25.249  0.00  0.00    +0.117 C 
ENDROOT
BRANCH   9  14
ATOM      2  O   UNL     1      -1.726   2.304  25.421  0.00  0.00    -0.336 OA
ATOM      6  N   UNL     1      -1.510   1.553  23.322  0.00  0.00    -0.189 NA
ATOM      7  N   UNL     1      -0.382   1.937  25.275  0.00  0.00    -0.054 NA
ATOM     14  C   UNL     1      -2.318   2.046  24.226  0.00  0.00    +0.245 A 
ATOM     17  C   UNL     1      -0.333   1.504  24.012  0.00  0.00    +0.220 A 
BRANCH  17  20
ATOM      8  N   UNL     1       1.988   1.739  23.661  0.00  0.00    -0.252 NA
ATOM     20  C   UNL     1       0.874   1.016  23.410  0.00  0.00    +0.111 A 
ATOM     22  C   UNL     1       0.850  -0.127  22.627  0.00  0.00    +0.031 A 
ATOM     23  C   UNL     1       2.048  -0.556  22.066  0.00  0.00    +0.004 A 
ATOM     24  C   UNL     1       3.133   1.291  23.099  0.00  0.00    +0.111 A 
ATOM     25  C   UNL     1       3.216   0.161  22.302  0.00  0.00    +0.020 A 
ENDBRANCH  17  20
ENDBRANCH   9  14
BRANCH  11   1
ATOM      1  O   UNL     1      -6.231   4.371  25.861  0.00  0.00    -0.390 OA
ATOM     26  H   UNL     1      -6.466   4.609  24.948  0.00  0.00    +0.210 HD
ENDBRANCH  11   1
BRANCH   5  13
ATOM     13  C   UNL     1      -4.959   0.214  23.946  0.00  0.00    +0.159 C 
BRANCH  13  15
ATOM      3  O   UNL     1      -2.857  -0.669  24.797  0.00  0.00    -0.461 OA
ATOM     15  C   UNL     1      -4.049  -0.956  24.212  0.00  0.00    +0.119 A 
ATOM     16  C   UNL     1      -4.163  -2.307  23.982  0.00  0.00    +0.046 A 
ATOM     18  C   UNL     1      -2.202  -1.851  24.943  0.00  0.00    +0.131 A 
ATOM     19  C   UNL     1      -2.962  -2.889  24.457  0.00  0.00    +0.047 A 
BRANCH  18  21
ATOM     21  C   UNL     1      -0.871  -1.785  25.563  0.00  0.00    +0.230 C 
BRANCH  21   4
ATOM      4  O   UNL     1      -0.799  -0.673  26.459  0.00  0.00    -0.387 OA
ATOM     27  H   UNL     1      -0.999   0.124  25.939  0.00  0.00    +0.210 HD
ENDBRANCH  21   4
ENDBRANCH  18  21
ENDBRANCH  13  15
ENDBRANCH   5  13
TORSDOF 7
ENDMDL
MODEL 2
REMARK VINA RESULT:      -4.1      2.783      3.383
REMARK  Name = 26743672
REMARK  7 active torsions:
REMARK  status: ('A' for Active; 'I' for Inactive)
REMARK    1  A    between atoms: O_1  and  C_11
REMARK    2  A    between atoms: O_4  and  C_21
REMARK    3  A    between atoms: N_5  and  C_13
REMARK    4  A    between atoms: C_9  and  C_14
REMARK    5  A    between atoms: C_13  and  C_15
REMARK    6  A    between atoms: C_17  and  C_20
REMARK    7  A    between atoms: C_18  and  C_21
REMARK                            x       y       z     vdW  Elec       q    Type
REMARK                         _______ _______ _______ _____ _____    ______ ____
ROOT
ATOM      5  N   UNL     1      -3.938   1.867  24.696  0.00  0.00    -0.282 NA
ATOM      9  C   UNL     1      -3.086   3.073  24.701  0.00  0.00    +0.149 C 
ATOM     10  C   UNL     1      -3.912   4.135  25.451  0.00  0.00    +0.061 C 
ATOM     11  C   UNL     1      -5.228   3.445  25.788  0.00  0.00    +0.130 C 
ATOM     12  C   UNL     1      -5.321   2.335  24.757  0.00  0.00    +0.117 C 
ENDROOT
BRANCH   9  14
ATOM      2  O   UNL     1      -0.748   2.387  24.509  0.00  0.00    -0.336 OA
ATOM      6  N   UNL     1      -1.360   2.981  26.580  0.00  0.00    -0.189 NA
ATOM      7  N   UNL     1       0.391   2.235  25.310  0.00  0.00    -0.054 NA
ATOM     14  C   UNL     1      -1.733   2.828  25.335  0.00  0.00    +0.245 A 
ATOM     17  C   UNL     1      -0.049   2.604  26.516  0.00  0.00    +0.220 A 
BRANCH  17  20
ATOM      8  N   UNL     1       2.088   2.937  27.458  0.00  0.00    -0.252 NA
ATOM     20  C   UNL     1       0.794   2.610  27.677  0.00  0.00    +0.111 A 
ATOM     22  C   UNL     1       0.273   2.292  28.920  0.00  0.00    +0.031 A 
ATOM     23  C   UNL     1       1.134   2.312  30.011  0.00  0.00    +0.004 A 
ATOM     24  C   UNL     1       2.895   2.945  28.543  0.00  0.00    +0.111 A 
ATOM     25  C   UNL     1       2.472   2.644  29.827  0.00  0.00    +0.020 A 
ENDBRANCH  17  20
ENDBRANCH   9  14
BRANCH  11   1
ATOM      1  O   UNL     1      -6.310   4.350  25.681  0.00  0.00    -0.390 OA
ATOM     26  H   UNL     1      -6.039   5.180  26.110  0.00  0.00    +0.210 HD
ENDBRANCH  11   1
BRANCH   5  13
ATOM     13  C   UNL     1      -3.702   1.002  23.547  0.00  0.00    +0.159 C 
BRANCH  13  15
ATOM      3  O   UNL     1      -2.156  -0.676  24.394  0.00  0.00    -0.461 OA
ATOM     15  C   UNL     1      -3.418  -0.417  23.960  0.00  0.00    +0.119 A 
ATOM     16  C   UNL     1      -4.185  -1.558  23.997  0.00  0.00    +0.046 A 
ATOM     18  C   UNL     1      -2.118  -1.997  24.710  0.00  0.00    +0.131 A 
ATOM     19  C   UNL     1      -3.341  -2.585  24.485  0.00  0.00    +0.047 A 
BRANCH  18  21
ATOM     21  C   UNL     1      -0.833  -2.509  25.210  0.00  0.00    +0.230 C 
BRANCH  21   4
ATOM      4  O   UNL     1       0.044  -1.424  25.521  0.00  0.00    -0.387 OA
ATOM     27  H   UNL     1      -0.473  -0.605  25.423  0.00  0.00    +0.210 HD
ENDBRANCH  21   4
ENDBRANCH  18  21
ENDBRANCH  13  15
ENDBRANCH   5  13
TORSDOF 7
ENDMDL
MODEL 3
REMARK VINA RESULT:      -3.9      1.788      2.469
REMARK  Name = 26743672
REMARK  7 active torsions:
REMARK  status: ('A' for Active; 'I' for Inactive)
REMARK    1  A    between atoms: O_1  and  C_11
REMARK    2  A    between atoms: O_4  and  C_21
REMARK    3  A    between atoms: N_5  and  C_13
REMARK    4  A    between atoms: C_9  and  C_14
REMARK    5  A    between atoms: C_13  and  C_15
REMARK    6  A    between atoms: C_17  and  C_20
REMARK    7  A    between atoms: C_18  and  C_21
REMARK                            x       y       z     vdW  Elec       q    Type
REMARK                         _______ _______ _______ _____ _____    ______ ____
ROOT
ATOM      5  N   UNL     1      -2.588   1.851  24.674  0.00  0.00    -0.282 NA
ATOM      9  C   UNL     1      -1.614   2.459  23.744  0.00  0.00    +0.149 C 
ATOM     10  C   UNL     1      -1.157   3.753  24.445  0.00  0.00    +0.061 C 
ATOM     11  C   UNL     1      -1.962   3.807  25.737  0.00  0.00    +0.130 C 
ATOM     12  C   UNL     1      -3.178   2.951  25.434  0.00  0.00    +0.117 C 
ENDROOT
BRANCH   9  14
ATOM      2  O   UNL     1      -0.752   0.457  22.639  0.00  0.00    -0.336 OA
ATOM      6  N   UNL     1       0.794   1.610  23.778  0.00  0.00    -0.189 NA
ATOM      7  N   UNL     1       0.451  -0.241  22.477  0.00  0.00    -0.054 NA
ATOM     14  C   UNL     1      -0.462   1.532  23.418  0.00  0.00    +0.245 A 
ATOM     17  C   UNL     1       1.315   0.500  23.177  0.00  0.00    +0.220 A 
BRANCH  17  20
ATOM      8  N   UNL     1       2.966  -1.106  23.688  0.00  0.00    -0.252 NA
ATOM     20  C   UNL     1       2.704   0.161  23.295  0.00  0.00    +0.111 A 
ATOM     22  C   UNL     1       3.679   1.105  23.016  0.00  0.00    +0.031 A 
ATOM     23  C   UNL     1       5.009   0.724  23.147  0.00  0.00    +0.004 A 
ATOM     24  C   UNL     1       4.271  -1.439  23.804  0.00  0.00    +0.111 A 
ATOM     25  C   UNL     1       5.320  -0.571  23.548  0.00  0.00    +0.020 A 
ENDBRANCH  17  20
ENDBRANCH   9  14
BRANCH  11   1
ATOM      1  O   UNL     1      -2.323   5.139  26.047  0.00  0.00    -0.390 OA
ATOM     26  H   UNL     1      -1.656   5.723  25.648  0.00  0.00    +0.210 HD
ENDBRANCH  11   1
BRANCH   5  13
ATOM     13  C   UNL     1      -3.598   1.046  24.000  0.00  0.00    +0.159 C 
BRANCH  13  15
ATOM      3  O   UNL     1      -2.143  -0.793  24.651  0.00  0.00    -0.461 OA
ATOM     15  C   UNL     1      -3.376  -0.428  24.212  0.00  0.00    +0.119 A 
ATOM     16  C   UNL     1      -4.178  -1.533  24.051  0.00  0.00    +0.046 A 
ATOM     18  C   UNL     1      -2.158  -2.146  24.773  0.00  0.00    +0.131 A 
ATOM     19  C   UNL     1      -3.388  -2.650  24.416  0.00  0.00    +0.047 A 
BRANCH  18  21
ATOM     21  C   UNL     1      -0.913  -2.772  25.241  0.00  0.00    +0.230 C 
BRANCH  21   4
ATOM      4  O   UNL     1       0.109  -1.784  25.391  0.00  0.00    -0.387 OA
ATOM     27  H   UNL     1      -0.114  -1.263  26.182  0.00  0.00    +0.210 HD
ENDBRANCH  21   4
ENDBRANCH  18  21
ENDBRANCH  13  15
ENDBRANCH   5  13
TORSDOF 7
ENDMDL
MODEL 4
REMARK VINA RESULT:      -3.3      1.975      6.020
REMARK  Name = 26743672
REMARK  7 active torsions:
REMARK  status: ('A' for Active; 'I' for Inactive)
REMARK    1  A    between atoms: O_1  and  C_11
REMARK    2  A    between atoms: O_4  and  C_21
REMARK    3  A    between atoms: N_5  and  C_13
REMARK    4  A    between atoms: C_9  and  C_14
REMARK    5  A    between atoms: C_13  and  C_15
REMARK    6  A    between atoms: C_17  and  C_20
REMARK    7  A    between atoms: C_18  and  C_21
REMARK                            x       y       z     vdW  Elec       q    Type
REMARK                         _______ _______ _______ _____ _____    ______ ____
ROOT
ATOM      5  N   UNL     1       0.686  -0.598  23.705  0.00  0.00    -0.282 NA
ATOM      9  C   UNL     1       0.536   0.799  24.162  0.00  0.00    +0.149 C 
ATOM     10  C   UNL     1       1.577   1.592  23.348  0.00  0.00    +0.061 C 
ATOM     11  C   UNL     1       2.290   0.549  22.498  0.00  0.00    +0.130 C 
ATOM     12  C   UNL     1       2.071  -0.743  23.262  0.00  0.00    +0.117 C 
ENDROOT
BRANCH   9  14
ATOM      2  O   UNL     1      -1.319   1.432  22.703  0.00  0.00    -0.336 OA
ATOM      6  N   UNL     1      -1.742   1.694  24.887  0.00  0.00    -0.189 NA
ATOM      7  N   UNL     1      -2.625   1.930  22.790  0.00  0.00    -0.054 NA
ATOM     14  C   UNL     1      -0.872   1.323  23.982  0.00  0.00    +0.245 A 
ATOM     17  C   UNL     1      -2.802   2.059  24.108  0.00  0.00    +0.220 A 
BRANCH  17  20
ATOM      8  N   UNL     1      -4.059   3.871  24.945  0.00  0.00    -0.252 NA
ATOM     20  C   UNL     1      -4.025   2.546  24.678  0.00  0.00    +0.111 A 
ATOM     22  C   UNL     1      -5.076   1.677  24.924  0.00  0.00    +0.031 A 
ATOM     23  C   UNL     1      -6.237   2.202  25.479  0.00  0.00    +0.004 A 
ATOM     24  C   UNL     1      -5.204   4.344  25.484  0.00  0.00    +0.111 A 
ATOM     25  C   UNL     1      -6.311   3.560  25.768  0.00  0.00    +0.020 A 
ENDBRANCH  17  20
ENDBRANCH   9  14
BRANCH  11   1
ATOM      1  O   UNL     1       3.665   0.858  22.375  0.00  0.00    -0.390 OA
ATOM     26  H   UNL     1       3.836   1.061  21.439  0.00  0.00    +0.210 HD
ENDBRANCH  11   1
BRANCH   5  13
ATOM     13  C   UNL     1       0.332  -1.576  24.726  0.00  0.00    +0.159 C 
BRANCH  13  15
ATOM      3  O   UNL     1      -2.027  -1.730  24.144  0.00  0.00    -0.461 OA
ATOM     15  C   UNL     1      -1.118  -1.475  25.121  0.00  0.00    +0.119 A 
ATOM     16  C   UNL     1      -1.752  -1.168  26.303  0.00  0.00    +0.046 A 
ATOM     18  C   UNL     1      -3.255  -1.584  24.707  0.00  0.00    +0.131 A 
ATOM     19  C   UNL     1      -3.140  -1.239  26.034  0.00  0.00    +0.047 A 
BRANCH  18  21
ATOM     21  C   UNL     1      -4.408  -1.815  23.825  0.00  0.00    +0.230 C 
BRANCH  21   4
ATOM      4  O   UNL     1      -4.494  -3.199  23.477  0.00  0.00    -0.387 OA
ATOM     27  H   UNL     1      -5.391  -3.349  23.130  0.00  0.00    +0.210 HD
ENDBRANCH  21   4
ENDBRANCH  18  21
ENDBRANCH  13  15
ENDBRANCH   5  13
TORSDOF 7
ENDMDL
MODEL 5
REMARK VINA RESULT:      -3.2      1.968      4.444
REMARK  Name = 26743672
REMARK  7 active torsions:
REMARK  status: ('A' for Active; 'I' for Inactive)
REMARK    1  A    between atoms: O_1  and  C_11
REMARK    2  A    between atoms: O_4  and  C_21
REMARK    3  A    between atoms: N_5  and  C_13
REMARK    4  A    between atoms: C_9  and  C_14
REMARK    5  A    between atoms: C_13  and  C_15
REMARK    6  A    between atoms: C_17  and  C_20
REMARK    7  A    between atoms: C_18  and  C_21
REMARK                            x       y       z     vdW  Elec       q    Type
REMARK                         _______ _______ _______ _____ _____    ______ ____
ROOT
ATOM      5  N   UNL     1      -3.151  -0.378  24.597  0.00  0.00    -0.282 NA
ATOM      9  C   UNL     1      -1.960  -1.231  24.788  0.00  0.00    +0.149 C 
ATOM     10  C   UNL     1      -2.332  -2.577  24.137  0.00  0.00    +0.061 C 
ATOM     11  C   UNL     1      -3.764  -2.397  23.650  0.00  0.00    +0.130 C 
ATOM     12  C   UNL     1      -4.299  -1.279  24.526  0.00  0.00    +0.117 C 
ENDROOT
BRANCH   9  14
ATOM      2  O   UNL     1      -0.874   0.489  23.434  0.00  0.00    -0.336 OA
ATOM      6  N   UNL     1       0.539  -1.009  24.315  0.00  0.00    -0.189 NA
ATOM      7  N   UNL     1       0.406   0.863  23.007  0.00  0.00    -0.054 NA
ATOM     14  C   UNL     1      -0.706  -0.622  24.198  0.00  0.00    +0.245 A 
ATOM     17  C   UNL     1       1.185  -0.067  23.566  0.00  0.00    +0.220 A 
BRANCH  17  20
ATOM      8  N   UNL     1       3.236  -1.201  23.832  0.00  0.00    -0.252 NA
ATOM     20  C   UNL     1       2.609  -0.084  23.399  0.00  0.00    +0.111 A 
ATOM     22  C   UNL     1       3.258   0.998  22.828  0.00  0.00    +0.031 A 
ATOM     23  C   UNL     1       4.640   0.930  22.691  0.00  0.00    +0.004 A 
ATOM     24  C   UNL     1       4.579  -1.231  23.682  0.00  0.00    +0.111 A 
ATOM     25  C   UNL     1       5.321  -0.202  23.124  0.00  0.00    +0.020 A 
ENDBRANCH  17  20
ENDBRANCH   9  14
BRANCH  11   1
ATOM      1  O   UNL     1      -4.503  -3.591  23.815  0.00  0.00    -0.390 OA
ATOM     26  H   UNL     1      -5.197  -3.602  23.134  0.00  0.00    +0.210 HD
ENDBRANCH  11   1
BRANCH   5  13
ATOM     13  C   UNL     1      -3.308   0.629  25.638  0.00  0.00    +0.159 C 
BRANCH  13  15
ATOM      3  O   UNL     1      -2.395   2.879  25.464  0.00  0.00    -0.461 OA
ATOM     15  C   UNL     1      -3.372   2.021  25.067  0.00  0.00    +0.119 A 
ATOM     16  C   UNL     1      -4.236   2.643  24.197  0.00  0.00    +0.046 A 
ATOM     18  C   UNL     1      -2.639   4.062  24.841  0.00  0.00    +0.131 A 
ATOM     19  C   UNL     1      -3.761   3.969  24.049  0.00  0.00    +0.047 A 
BRANCH  18  21
ATOM     21  C   UNL     1      -1.697   5.154  25.124  0.00  0.00    +0.230 C 
BRANCH  21   4
ATOM      4  O   UNL     1      -0.362   4.747  24.812  0.00  0.00    -0.387 OA
ATOM     27  H   UNL     1       0.144   5.556  24.623  0.00  0.00    +0.210 HD
ENDBRANCH  21   4
ENDBRANCH  18  21
ENDBRANCH  13  15
ENDBRANCH   5  13
TORSDOF 7
ENDMDL
MODEL 6
REMARK VINA RESULT:      -3.1      2.024      4.578
REMARK  Name = 26743672
REMARK  7 active torsions:
REMARK  status: ('A' for Active; 'I' for Inactive)
REMARK    1  A    between atoms: O_1  and  C_11
REMARK    2  A    between atoms: O_4  and  C_21
REMARK    3  A    between atoms: N_5  and  C_13
REMARK    4  A    between atoms: C_9  and  C_14
REMARK    5  A    between atoms: C_13  and  C_15
REMARK    6  A    between atoms: C_17  and  C_20
REMARK    7  A    between atoms: C_18  and  C_21
REMARK                            x       y       z     vdW  Elec       q    Type
REMARK                         _______ _______ _______ _____ _____    ______ ____
ROOT
ATOM      5  N   UNL     1      -2.488   0.254  23.248  0.00  0.00    -0.282 NA
ATOM      9  C   UNL     1      -1.421   0.135  24.263  0.00  0.00    +0.149 C 
ATOM     10  C   UNL     1      -1.821  -1.088  25.110  0.00  0.00    +0.061 C 
ATOM     11  C   UNL     1      -3.145  -1.559  24.524  0.00  0.00    +0.130 C 
ATOM     12  C   UNL     1      -3.694  -0.319  23.844  0.00  0.00    +0.117 C 
ENDROOT
BRANCH   9  14
ATOM      2  O   UNL     1       0.004  -0.128  22.295  0.00  0.00    -0.336 OA
ATOM      6  N   UNL     1       1.127  -0.019  24.231  0.00  0.00    -0.189 NA
ATOM      7  N   UNL     1       1.361  -0.238  21.965  0.00  0.00    -0.054 NA
ATOM     14  C   UNL     1      -0.045  -0.003  23.647  0.00  0.00    +0.245 A 
ATOM     17  C   UNL     1       1.959  -0.166  23.158  0.00  0.00    +0.220 A 
BRANCH  17  20
ATOM      8  N   UNL     1       3.869  -1.422  23.740  0.00  0.00    -0.252 NA
ATOM     20  C   UNL     1       3.383  -0.235  23.313  0.00  0.00    +0.111 A 
ATOM     22  C   UNL     1       4.170   0.871  23.033  0.00  0.00    +0.031 A 
ATOM     23  C   UNL     1       5.545   0.750  23.201  0.00  0.00    +0.004 A 
ATOM     24  C   UNL     1       5.209  -1.501  23.891  0.00  0.00    +0.111 A 
ATOM     25  C   UNL     1       6.083  -0.456  23.639  0.00  0.00    +0.020 A 
ENDBRANCH  17  20
ENDBRANCH   9  14
BRANCH  11   1
ATOM      1  O   UNL     1      -4.008  -2.022  25.544  0.00  0.00    -0.390 OA
ATOM     26  H   UNL     1      -3.732  -2.926  25.773  0.00  0.00    +0.210 HD
ENDBRANCH  11   1
BRANCH   5  13
ATOM     13  C   UNL     1      -2.698   1.623  22.794  0.00  0.00    +0.159 C 
BRANCH  13  15
ATOM      3  O   UNL     1      -4.337   2.661  24.265  0.00  0.00    -0.461 OA
ATOM     15  C   UNL     1      -3.023   2.549  23.936  0.00  0.00    +0.119 A 
ATOM     16  C   UNL     1      -2.251   3.342  24.753  0.00  0.00    +0.046 A 
ATOM     18  C   UNL     1      -4.404   3.534  25.304  0.00  0.00    +0.131 A 
ATOM     19  C   UNL     1      -3.149   3.982  25.642  0.00  0.00    +0.047 A 
BRANCH  18  21
ATOM     21  C   UNL     1      -5.747   3.811  25.834  0.00  0.00    +0.230 C 
BRANCH  21   4
ATOM      4  O   UNL     1      -6.247   2.669  26.534  0.00  0.00    -0.387 OA
ATOM     27  H   UNL     1      -5.524   2.020  26.571  0.00  0.00    +0.210 HD
ENDBRANCH  21   4
ENDBRANCH  18  21
ENDBRANCH  13  15
ENDBRANCH   5  13
TORSDOF 7
ENDMDL
MODEL 7
REMARK VINA RESULT:      -2.3      2.435      5.285
REMARK  Name = 26743672
REMARK  7 active torsions:
REMARK  status: ('A' for Active; 'I' for Inactive)
REMARK    1  A    between atoms: O_1  and  C_11
REMARK    2  A    between atoms: O_4  and  C_21
REMARK    3  A    between atoms: N_5  and  C_13
REMARK    4  A    between atoms: C_9  and  C_14
REMARK    5  A    between atoms: C_13  and  C_15
REMARK    6  A    between atoms: C_17  and  C_20
REMARK    7  A    between atoms: C_18  and  C_21
REMARK                            x       y       z     vdW  Elec       q    Type
REMARK                         _______ _______ _______ _____ _____    ______ ____
ROOT
ATOM      5  N   UNL     1      -0.810   3.419  24.903  0.00  0.00    -0.282 NA
ATOM      9  C   UNL     1      -1.982   3.287  25.794  0.00  0.00    +0.149 C 
ATOM     10  C   UNL     1      -2.733   4.624  25.655  0.00  0.00    +0.061 C 
ATOM     11  C   UNL     1      -1.885   5.457  24.702  0.00  0.00    +0.130 C 
ATOM     12  C   UNL     1      -0.502   4.846  24.833  0.00  0.00    +0.117 C 
ENDROOT
BRANCH   9  14
ATOM      2  O   UNL     1      -4.179   2.319  25.338  0.00  0.00    -0.336 OA
ATOM      6  N   UNL     1      -2.493   0.848  25.237  0.00  0.00    -0.189 NA
ATOM      7  N   UNL     1      -4.758   1.085  25.019  0.00  0.00    -0.054 NA
ATOM     14  C   UNL     1      -2.844   2.091  25.449  0.00  0.00    +0.245 A 
ATOM     17  C   UNL     1      -3.701   0.268  24.977  0.00  0.00    +0.220 A 
BRANCH  17  20
ATOM      8  N   UNL     1      -3.157  -1.964  25.511  0.00  0.00    -0.252 NA
ATOM     20  C   UNL     1      -3.817  -1.130  24.677  0.00  0.00    +0.111 A 
ATOM     22  C   UNL     1      -4.567  -1.551  23.591  0.00  0.00    +0.031 A 
ATOM     23  C   UNL     1      -4.645  -2.917  23.345  0.00  0.00    +0.004 A 
ATOM     24  C   UNL     1      -3.256  -3.284  25.240  0.00  0.00    +0.111 A 
ATOM     25  C   UNL     1      -3.980  -3.807  24.181  0.00  0.00    +0.020 A 
ENDBRANCH  17  20
ENDBRANCH   9  14
BRANCH  11   1
ATOM      1  O   UNL     1      -1.893   6.819  25.084  0.00  0.00    -0.390 OA
ATOM     26  H   UNL     1      -1.735   6.855  26.043  0.00  0.00    +0.210 HD
ENDBRANCH  11   1
BRANCH   5  13
ATOM     13  C   UNL     1       0.335   2.632  25.342  0.00  0.00    +0.159 C 
BRANCH  13  15
ATOM      3  O   UNL     1       2.023   1.619  23.910  0.00  0.00    -0.461 OA
ATOM     15  C   UNL     1       0.728   1.596  24.321  0.00  0.00    +0.119 A 
ATOM     16  C   UNL     1       0.037   0.591  23.686  0.00  0.00    +0.046 A 
ATOM     18  C   UNL     1       2.160   0.617  23.002  0.00  0.00    +0.131 A 
ATOM     19  C   UNL     1       0.967  -0.046  22.829  0.00  0.00    +0.047 A 
BRANCH  18  21
ATOM     21  C   UNL     1       3.497   0.451  22.414  0.00  0.00    +0.230 C 
BRANCH  21   4
ATOM      4  O   UNL     1       4.504   0.743  23.386  0.00  0.00    -0.387 OA
ATOM     27  H   UNL     1       4.115   1.374  24.016  0.00  0.00    +0.210 HD
ENDBRANCH  21   4
ENDBRANCH  18  21
ENDBRANCH  13  15
ENDBRANCH   5  13
TORSDOF 7
ENDMDL
MODEL 8
REMARK VINA RESULT:      -2.0      1.772      5.871
REMARK  Name = 26743672
REMARK  7 active torsions:
REMARK  status: ('A' for Active; 'I' for Inactive)
REMARK    1  A    between atoms: O_1  and  C_11
REMARK    2  A    between atoms: O_4  and  C_21
REMARK    3  A    between atoms: N_5  and  C_13
REMARK    4  A    between atoms: C_9  and  C_14
REMARK    5  A    between atoms: C_13  and  C_15
REMARK    6  A    between atoms: C_17  and  C_20
REMARK    7  A    between atoms: C_18  and  C_21
REMARK                            x       y       z     vdW  Elec       q    Type
REMARK                         _______ _______ _______ _____ _____    ______ ____
ROOT
ATOM      5  N   UNL     1       0.135  -0.313  23.954  0.00  0.00    -0.282 NA
ATOM      9  C   UNL     1       0.672   0.940  24.525  0.00  0.00    +0.149 C 
ATOM     10  C   UNL     1       1.674   1.453  23.473  0.00  0.00    +0.061 C 
ATOM     11  C   UNL     1       1.664   0.400  22.373  0.00  0.00    +0.130 C 
ATOM     12  C   UNL     1       1.177  -0.850  23.081  0.00  0.00    +0.117 C 
ENDROOT
BRANCH   9  14
ATOM      2  O   UNL     1      -0.000   3.200  25.167  0.00  0.00    -0.336 OA
ATOM      6  N   UNL     1      -1.713   1.793  24.847  0.00  0.00    -0.189 NA
ATOM      7  N   UNL     1      -1.163   3.940  25.413  0.00  0.00    -0.054 NA
ATOM     14  C   UNL     1      -0.413   1.947  24.841  0.00  0.00    +0.245 A 
ATOM     17  C   UNL     1      -2.131   3.043  25.205  0.00  0.00    +0.220 A 
BRANCH  17  20
ATOM      8  N   UNL     1      -4.287   2.407  25.918  0.00  0.00    -0.252 NA
ATOM     20  C   UNL     1      -3.522   3.362  25.343  0.00  0.00    +0.111 A 
ATOM     22  C   UNL     1      -4.007   4.581  24.898  0.00  0.00    +0.031 A 
ATOM     23  C   UNL     1      -5.364   4.838  25.055  0.00  0.00    +0.004 A 
ATOM     24  C   UNL     1      -5.601   2.693  26.054  0.00  0.00    +0.111 A 
ATOM     25  C   UNL     1      -6.184   3.881  25.643  0.00  0.00    +0.020 A 
ENDBRANCH  17  20
ENDBRANCH   9  14
BRANCH  11   1
ATOM      1  O   UNL     1       2.961   0.226  21.835  0.00  0.00    -0.390 OA
ATOM     26  H   UNL     1       3.448  -0.367  22.433  0.00  0.00    +0.210 HD
ENDBRANCH  11   1
BRANCH   5  13
ATOM     13  C   UNL     1      -0.280  -1.274  24.968  0.00  0.00    +0.159 C 
BRANCH  13  15
ATOM      3  O   UNL     1      -2.642  -0.826  24.588  0.00  0.00    -0.461 OA
ATOM     15  C   UNL     1      -1.679  -1.775  24.728  0.00  0.00    +0.119 A 
ATOM     16  C   UNL     1      -2.222  -3.034  24.615  0.00  0.00    +0.046 A 
ATOM     18  C   UNL     1      -3.812  -1.487  24.384  0.00  0.00    +0.131 A 
ATOM     19  C   UNL     1      -3.607  -2.847  24.391  0.00  0.00    +0.047 A 
BRANCH  18  21
ATOM     21  C   UNL     1      -5.008  -0.651  24.202  0.00  0.00    +0.230 C 
BRANCH  21   4
ATOM      4  O   UNL     1      -4.634   0.658  23.766  0.00  0.00    -0.387 OA
ATOM     27  H   UNL     1      -4.396   0.587  22.826  0.00  0.00    +0.210 HD
ENDBRANCH  21   4
ENDBRANCH  18  21
ENDBRANCH  13  15
ENDBRANCH   5  13
TORSDOF 7
ENDMDL
