MODEL 1
REMARK VINA RESULT:      -5.8      0.000      0.000
REMARK  Name = 56775530
REMARK  10 active torsions:
REMARK  status: ('A' for Active; 'I' for Inactive)
REMARK    1  A    between atoms: O_3  and  C_17
REMARK    2  A    between atoms: O_3  and  C_18
REMARK    3  A    between atoms: N_4  and  C_6
REMARK    4  A    between atoms: N_4  and  C_10
REMARK    5  A    between atoms: N_4  and  C_11
REMARK    6  A    between atoms: C_6  and  C_9
REMARK    7  A    between atoms: C_9  and  C_12
REMARK    8  A    between atoms: C_10  and  C_13
REMARK    9  A    between atoms: C_11  and  C_14
REMARK   10  A    between atoms: C_16  and  C_17
REMARK                            x       y       z     vdW  Elec       q    Type
REMARK                         _______ _______ _______ _____ _____    ______ ____
ROOT
ATOM      1  O   UNL     1      -3.030   3.062  23.363  0.00  0.00    -0.376 OA
ATOM      6  C   UNL     1      -2.903   1.269  24.513  0.00  0.00    +0.074 C 
ATOM      7  C   UNL     1      -2.662   1.694  23.069  0.00  0.00    +0.184 C 
ATOM      8  C   UNL     1      -3.184   2.746  24.765  0.00  0.00    +0.184 C 
ENDROOT
BRANCH   6   4
ATOM      4  N   UNL     1      -4.173   0.525  24.584  0.00  0.00    -0.293 NA
BRANCH   4  10
ATOM     10  C   UNL     1      -3.899  -0.855  24.982  0.00  0.00    +0.082 C 
ATOM     13  C   UNL     1      -4.212  -1.824  23.854  0.00  0.00    +0.020 C 
ENDBRANCH   4  10
BRANCH   4  11
ATOM     11  C   UNL     1      -5.056   1.174  25.551  0.00  0.00    +0.082 C 
ATOM     14  C   UNL     1      -6.290   1.744  24.871  0.00  0.00    +0.020 C 
ENDBRANCH   4  11
ENDBRANCH   6   4
BRANCH   6   9
ATOM      9  C   UNL     1      -1.795   0.603  25.270  0.00  0.00    +0.085 C 
BRANCH   9  12
ATOM      2  O   UNL     1       1.353   1.700  23.876  0.00  0.00    -0.357 OA
ATOM      5  N   UNL     1       0.218   1.892  24.654  0.00  0.00    -0.083 NA
ATOM     12  C   UNL     1      -0.476   0.756  24.540  0.00  0.00    +0.086 A 
ATOM     15  C   UNL     1       0.164  -0.179  23.710  0.00  0.00    +0.073 A 
ATOM     16  C   UNL     1       1.309   0.463  23.318  0.00  0.00    +0.163 A 
BRANCH  16  17
ATOM     17  C   UNL     1       2.438   0.091  22.458  0.00  0.00    +0.236 C 
BRANCH  17   3
ATOM      3  O   UNL     1       3.537   0.982  22.669  0.00  0.00    -0.375 OA
ATOM     18  C   UNL     1       4.676   0.286  23.150  0.00  0.00    +0.194 C 
ENDBRANCH  17   3
ENDBRANCH  16  17
ENDBRANCH   9  12
ENDBRANCH   6   9
TORSDOF 7
ENDMDL
MODEL 2
REMARK VINA RESULT:      -5.5      1.713      2.837
REMARK  Name = 56775530
REMARK  10 active torsions:
REMARK  status: ('A' for Active; 'I' for Inactive)
REMARK    1  A    between atoms: O_3  and  C_17
REMARK    2  A    between atoms: O_3  and  C_18
REMARK    3  A    between atoms: N_4  and  C_6
REMARK    4  A    between atoms: N_4  and  C_10
REMARK    5  A    between atoms: N_4  and  C_11
REMARK    6  A    between atoms: C_6  and  C_9
REMARK    7  A    between atoms: C_9  and  C_12
REMARK    8  A    between atoms: C_10  and  C_13
REMARK    9  A    between atoms: C_11  and  C_14
REMARK   10  A    between atoms: C_16  and  C_17
REMARK                            x       y       z     vdW  Elec       q    Type
REMARK                         _______ _______ _______ _____ _____    ______ ____
ROOT
ATOM      1  O   UNL     1      -3.570   1.151  23.052  0.00  0.00    -0.376 OA
ATOM      6  C   UNL     1      -2.499   2.048  24.666  0.00  0.00    +0.074 C 
ATOM      7  C   UNL     1      -3.634   1.045  24.494  0.00  0.00    +0.184 C 
ATOM      8  C   UNL     1      -2.428   2.033  23.144  0.00  0.00    +0.184 C 
ENDROOT
BRANCH   6   4
ATOM      4  N   UNL     1      -3.065   3.336  25.103  0.00  0.00    -0.293 NA
BRANCH   4  10
ATOM     10  C   UNL     1      -4.251   3.086  25.923  0.00  0.00    +0.082 C 
ATOM     13  C   UNL     1      -5.429   3.922  25.453  0.00  0.00    +0.020 C 
ENDBRANCH   4  10
BRANCH   4  11
ATOM     11  C   UNL     1      -2.057   4.069  25.866  0.00  0.00    +0.082 C 
ATOM     14  C   UNL     1      -1.412   5.155  25.021  0.00  0.00    +0.020 C 
ENDBRANCH   4  11
ENDBRANCH   6   4
BRANCH   6   9
ATOM      9  C   UNL     1      -1.288   1.647  25.452  0.00  0.00    +0.085 C 
BRANCH   9  12
ATOM      2  O   UNL     1       0.607  -0.729  23.498  0.00  0.00    -0.357 OA
ATOM      5  N   UNL     1      -0.459  -0.384  24.320  0.00  0.00    -0.083 NA
ATOM     12  C   UNL     1      -0.293   0.918  24.573  0.00  0.00    +0.086 A 
ATOM     15  C   UNL     1       0.850   1.442  23.945  0.00  0.00    +0.073 A 
ATOM     16  C   UNL     1       1.379   0.366  23.283  0.00  0.00    +0.163 A 
BRANCH  16  17
ATOM     17  C   UNL     1       2.559   0.180  22.429  0.00  0.00    +0.236 C 
BRANCH  17   3
ATOM      3  O   UNL     1       3.601   1.077  22.820  0.00  0.00    -0.375 OA
ATOM     18  C   UNL     1       4.772   0.370  23.195  0.00  0.00    +0.194 C 
ENDBRANCH  17   3
ENDBRANCH  16  17
ENDBRANCH   9  12
ENDBRANCH   6   9
TORSDOF 7
ENDMDL
MODEL 3
REMARK VINA RESULT:      -5.2      2.696      4.231
REMARK  Name = 56775530
REMARK  10 active torsions:
REMARK  status: ('A' for Active; 'I' for Inactive)
REMARK    1  A    between atoms: O_3  and  C_17
REMARK    2  A    between atoms: O_3  and  C_18
REMARK    3  A    between atoms: N_4  and  C_6
REMARK    4  A    between atoms: N_4  and  C_10
REMARK    5  A    between atoms: N_4  and  C_11
REMARK    6  A    between atoms: C_6  and  C_9
REMARK    7  A    between atoms: C_9  and  C_12
REMARK    8  A    between atoms: C_10  and  C_13
REMARK    9  A    between atoms: C_11  and  C_14
REMARK   10  A    between atoms: C_16  and  C_17
REMARK                            x       y       z     vdW  Elec       q    Type
REMARK                         _______ _______ _______ _____ _____    ______ ____
ROOT
ATOM      1  O   UNL     1      -1.729   5.192  25.411  0.00  0.00    -0.376 OA
ATOM      6  C   UNL     1      -1.612   3.062  25.361  0.00  0.00    +0.074 C 
ATOM      7  C   UNL     1      -1.012   4.236  24.596  0.00  0.00    +0.184 C 
ATOM      8  C   UNL     1      -2.257   4.130  26.237  0.00  0.00    +0.184 C 
ENDROOT
BRANCH   6   4
ATOM      4  N   UNL     1      -2.656   2.436  24.529  0.00  0.00    -0.293 NA
BRANCH   4  10
ATOM     10  C   UNL     1      -3.970   2.769  25.079  0.00  0.00    +0.082 C 
ATOM     13  C   UNL     1      -4.880   1.552  25.099  0.00  0.00    +0.020 C 
ENDBRANCH   4  10
BRANCH   4  11
ATOM     11  C   UNL     1      -2.533   2.924  23.157  0.00  0.00    +0.082 C 
ATOM     14  C   UNL     1      -2.598   1.779  22.160  0.00  0.00    +0.020 C 
ENDBRANCH   4  11
ENDBRANCH   6   4
BRANCH   6   9
ATOM      9  C   UNL     1      -0.694   2.062  25.995  0.00  0.00    +0.085 C 
BRANCH   9  12
ATOM      2  O   UNL     1      -0.434  -0.921  23.973  0.00  0.00    -0.357 OA
ATOM      5  N   UNL     1      -0.037   0.362  24.331  0.00  0.00    -0.083 NA
ATOM     12  C   UNL     1      -0.842   0.704  25.340  0.00  0.00    +0.086 A 
ATOM     15  C   UNL     1      -1.759  -0.312  25.659  0.00  0.00    +0.073 A 
ATOM     16  C   UNL     1      -1.460  -1.311  24.771  0.00  0.00    +0.163 A 
BRANCH  16  17
ATOM     17  C   UNL     1      -2.007  -2.651  24.529  0.00  0.00    +0.236 C 
BRANCH  17   3
ATOM      3  O   UNL     1      -3.391  -2.694  24.887  0.00  0.00    -0.375 OA
ATOM     18  C   UNL     1      -4.206  -2.187  23.843  0.00  0.00    +0.194 C 
ENDBRANCH  17   3
ENDBRANCH  16  17
ENDBRANCH   9  12
ENDBRANCH   6   9
TORSDOF 7
ENDMDL
MODEL 4
REMARK VINA RESULT:      -5.1      1.453      2.517
REMARK  Name = 56775530
REMARK  10 active torsions:
REMARK  status: ('A' for Active; 'I' for Inactive)
REMARK    1  A    between atoms: O_3  and  C_17
REMARK    2  A    between atoms: O_3  and  C_18
REMARK    3  A    between atoms: N_4  and  C_6
REMARK    4  A    between atoms: N_4  and  C_10
REMARK    5  A    between atoms: N_4  and  C_11
REMARK    6  A    between atoms: C_6  and  C_9
REMARK    7  A    between atoms: C_9  and  C_12
REMARK    8  A    between atoms: C_10  and  C_13
REMARK    9  A    between atoms: C_11  and  C_14
REMARK   10  A    between atoms: C_16  and  C_17
REMARK                            x       y       z     vdW  Elec       q    Type
REMARK                         _______ _______ _______ _____ _____    ______ ____
ROOT
ATOM      1  O   UNL     1      -2.276  -1.095  25.772  0.00  0.00    -0.376 OA
ATOM      6  C   UNL     1      -2.485   0.704  24.643  0.00  0.00    +0.074 C 
ATOM      7  C   UNL     1      -1.563   0.164  25.729  0.00  0.00    +0.184 C 
ATOM      8  C   UNL     1      -3.124  -0.680  24.678  0.00  0.00    +0.184 C 
ENDROOT
BRANCH   6   4
ATOM      4  N   UNL     1      -3.417   1.673  25.247  0.00  0.00    -0.293 NA
BRANCH   4  10
ATOM     10  C   UNL     1      -3.068   3.019  24.795  0.00  0.00    +0.082 C 
ATOM     13  C   UNL     1      -2.397   3.814  25.903  0.00  0.00    +0.020 C 
ENDBRANCH   4  10
BRANCH   4  11
ATOM     11  C   UNL     1      -4.783   1.334  24.854  0.00  0.00    +0.082 C 
ATOM     14  C   UNL     1      -5.774   2.364  25.370  0.00  0.00    +0.020 C 
ENDBRANCH   4  11
ENDBRANCH   6   4
BRANCH   6   9
ATOM      9  C   UNL     1      -1.888   1.193  23.359  0.00  0.00    +0.085 C 
BRANCH   9  12
ATOM      2  O   UNL     1       1.664   1.624  23.866  0.00  0.00    -0.357 OA
ATOM      5  N   UNL     1       0.341   2.021  24.023  0.00  0.00    -0.083 NA
ATOM     12  C   UNL     1      -0.377   1.087  23.393  0.00  0.00    +0.086 A 
ATOM     15  C   UNL     1       0.430   0.087  22.824  0.00  0.00    +0.073 A 
ATOM     16  C   UNL     1       1.703   0.472  23.150  0.00  0.00    +0.163 A 
BRANCH  16  17
ATOM     17  C   UNL     1       3.033  -0.093  22.889  0.00  0.00    +0.236 C 
BRANCH  17   3
ATOM      3  O   UNL     1       4.046   0.881  23.155  0.00  0.00    -0.375 OA
ATOM     18  C   UNL     1       5.281   0.263  23.474  0.00  0.00    +0.194 C 
ENDBRANCH  17   3
ENDBRANCH  16  17
ENDBRANCH   9  12
ENDBRANCH   6   9
TORSDOF 7
ENDMDL
MODEL 5
REMARK VINA RESULT:      -4.5      2.854      4.736
REMARK  Name = 56775530
REMARK  10 active torsions:
REMARK  status: ('A' for Active; 'I' for Inactive)
REMARK    1  A    between atoms: O_3  and  C_17
REMARK    2  A    between atoms: O_3  and  C_18
REMARK    3  A    between atoms: N_4  and  C_6
REMARK    4  A    between atoms: N_4  and  C_10
REMARK    5  A    between atoms: N_4  and  C_11
REMARK    6  A    between atoms: C_6  and  C_9
REMARK    7  A    between atoms: C_9  and  C_12
REMARK    8  A    between atoms: C_10  and  C_13
REMARK    9  A    between atoms: C_11  and  C_14
REMARK   10  A    between atoms: C_16  and  C_17
REMARK                            x       y       z     vdW  Elec       q    Type
REMARK                         _______ _______ _______ _____ _____    ______ ____
ROOT
ATOM      1  O   UNL     1      -4.895   3.243  25.078  0.00  0.00    -0.376 OA
ATOM      6  C   UNL     1      -2.844   2.997  24.539  0.00  0.00    +0.074 C 
ATOM      7  C   UNL     1      -3.895   2.228  25.332  0.00  0.00    +0.184 C 
ATOM      8  C   UNL     1      -3.975   3.972  24.234  0.00  0.00    +0.184 C 
ENDROOT
BRANCH   6   4
ATOM      4  N   UNL     1      -1.908   3.634  25.482  0.00  0.00    -0.293 NA
BRANCH   4  10
ATOM     10  C   UNL     1      -1.360   2.614  26.377  0.00  0.00    +0.082 C 
ATOM     13  C   UNL     1       0.159   2.627  26.358  0.00  0.00    +0.020 C 
ENDBRANCH   4  10
BRANCH   4  11
ATOM     11  C   UNL     1      -0.839   4.287  24.730  0.00  0.00    +0.082 C 
ATOM     14  C   UNL     1      -0.965   5.799  24.798  0.00  0.00    +0.020 C 
ENDBRANCH   4  11
ENDBRANCH   6   4
BRANCH   6   9
ATOM      9  C   UNL     1      -2.150   2.314  23.400  0.00  0.00    +0.085 C 
BRANCH   9  12
ATOM      2  O   UNL     1      -0.494  -0.820  24.098  0.00  0.00    -0.357 OA
ATOM      5  N   UNL     1      -0.492   0.508  23.689  0.00  0.00    -0.083 NA
ATOM     12  C   UNL     1      -1.768   0.897  23.773  0.00  0.00    +0.086 A 
ATOM     15  C   UNL     1      -2.611  -0.133  24.224  0.00  0.00    +0.073 A 
ATOM     16  C   UNL     1      -1.761  -1.190  24.414  0.00  0.00    +0.163 A 
BRANCH  16  17
ATOM     17  C   UNL     1      -1.946  -2.573  24.869  0.00  0.00    +0.236 C 
BRANCH  17   3
ATOM      3  O   UNL     1      -3.324  -2.819  25.160  0.00  0.00    -0.375 OA
ATOM     18  C   UNL     1      -4.096  -2.877  23.972  0.00  0.00    +0.194 C 
ENDBRANCH  17   3
ENDBRANCH  16  17
ENDBRANCH   9  12
ENDBRANCH   6   9
TORSDOF 7
ENDMDL
MODEL 6
REMARK VINA RESULT:      -4.3      3.134      4.785
REMARK  Name = 56775530
REMARK  10 active torsions:
REMARK  status: ('A' for Active; 'I' for Inactive)
REMARK    1  A    between atoms: O_3  and  C_17
REMARK    2  A    between atoms: O_3  and  C_18
REMARK    3  A    between atoms: N_4  and  C_6
REMARK    4  A    between atoms: N_4  and  C_10
REMARK    5  A    between atoms: N_4  and  C_11
REMARK    6  A    between atoms: C_6  and  C_9
REMARK    7  A    between atoms: C_9  and  C_12
REMARK    8  A    between atoms: C_10  and  C_13
REMARK    9  A    between atoms: C_11  and  C_14
REMARK   10  A    between atoms: C_16  and  C_17
REMARK                            x       y       z     vdW  Elec       q    Type
REMARK                         _______ _______ _______ _____ _____    ______ ____
ROOT
ATOM      1  O   UNL     1      -2.626   2.114  22.279  0.00  0.00    -0.376 OA
ATOM      6  C   UNL     1      -2.253   2.360  24.366  0.00  0.00    +0.074 C 
ATOM      7  C   UNL     1      -3.252   1.618  23.485  0.00  0.00    +0.184 C 
ATOM      8  C   UNL     1      -1.592   2.763  23.053  0.00  0.00    +0.184 C 
ENDROOT
BRANCH   6   4
ATOM      4  N   UNL     1      -2.917   3.541  24.946  0.00  0.00    -0.293 NA
BRANCH   4  10
ATOM     10  C   UNL     1      -4.056   3.103  25.753  0.00  0.00    +0.082 C 
ATOM     13  C   UNL     1      -5.314   3.874  25.390  0.00  0.00    +0.020 C 
ENDBRANCH   4  10
BRANCH   4  11
ATOM     11  C   UNL     1      -1.956   4.275  25.767  0.00  0.00    +0.082 C 
ATOM     14  C   UNL     1      -1.310   5.402  24.980  0.00  0.00    +0.020 C 
ENDBRANCH   4  11
ENDBRANCH   6   4
BRANCH   6   9
ATOM      9  C   UNL     1      -1.456   1.586  25.371  0.00  0.00    +0.085 C 
BRANCH   9  12
ATOM      2  O   UNL     1      -1.172  -1.934  24.608  0.00  0.00    -0.357 OA
ATOM      5  N   UNL     1      -0.676  -0.636  24.631  0.00  0.00    -0.083 NA
ATOM     12  C   UNL     1      -1.650   0.096  25.181  0.00  0.00    +0.086 A 
ATOM     15  C   UNL     1      -2.772  -0.678  25.521  0.00  0.00    +0.073 A 
ATOM     16  C   UNL     1      -2.420  -1.946  25.140  0.00  0.00    +0.163 A 
BRANCH  16  17
ATOM     17  C   UNL     1      -3.098  -3.247  25.194  0.00  0.00    +0.236 C 
BRANCH  17   3
ATOM      3  O   UNL     1      -4.114  -3.319  24.191  0.00  0.00    -0.375 OA
ATOM     18  C   UNL     1      -4.355  -2.046  23.612  0.00  0.00    +0.194 C 
ENDBRANCH  17   3
ENDBRANCH  16  17
ENDBRANCH   9  12
ENDBRANCH   6   9
TORSDOF 7
ENDMDL
MODEL 7
REMARK VINA RESULT:      -4.2      2.791      5.605
REMARK  Name = 56775530
REMARK  10 active torsions:
REMARK  status: ('A' for Active; 'I' for Inactive)
REMARK    1  A    between atoms: O_3  and  C_17
REMARK    2  A    between atoms: O_3  and  C_18
REMARK    3  A    between atoms: N_4  and  C_6
REMARK    4  A    between atoms: N_4  and  C_10
REMARK    5  A    between atoms: N_4  and  C_11
REMARK    6  A    between atoms: C_6  and  C_9
REMARK    7  A    between atoms: C_9  and  C_12
REMARK    8  A    between atoms: C_10  and  C_13
REMARK    9  A    between atoms: C_11  and  C_14
REMARK   10  A    between atoms: C_16  and  C_17
REMARK                            x       y       z     vdW  Elec       q    Type
REMARK                         _______ _______ _______ _____ _____    ______ ____
ROOT
ATOM      1  O   UNL     1      -3.005  -2.582  25.630  0.00  0.00    -0.376 OA
ATOM      6  C   UNL     1      -2.360  -0.983  24.373  0.00  0.00    +0.074 C 
ATOM      7  C   UNL     1      -2.311  -2.506  24.363  0.00  0.00    +0.184 C 
ATOM      8  C   UNL     1      -3.170  -1.146  25.654  0.00  0.00    +0.184 C 
ENDROOT
BRANCH   6   4
ATOM      4  N   UNL     1      -1.023  -0.466  24.719  0.00  0.00    -0.293 NA
BRANCH   4  10
ATOM     10  C   UNL     1      -0.480   0.264  23.574  0.00  0.00    +0.082 C 
ATOM     13  C   UNL     1       0.846  -0.327  23.126  0.00  0.00    +0.020 C 
ENDBRANCH   4  10
BRANCH   4  11
ATOM     11  C   UNL     1      -1.135   0.410  25.883  0.00  0.00    +0.082 C 
ATOM     14  C   UNL     1      -0.516   1.770  25.608  0.00  0.00    +0.020 C 
ENDBRANCH   4  11
ENDBRANCH   6   4
BRANCH   6   9
ATOM      9  C   UNL     1      -2.978  -0.267  23.211  0.00  0.00    +0.085 C 
BRANCH   9  12
ATOM      2  O   UNL     1      -3.823   3.228  23.570  0.00  0.00    -0.357 OA
ATOM      5  N   UNL     1      -3.185   2.176  22.924  0.00  0.00    -0.083 NA
ATOM     12  C   UNL     1      -3.505   1.089  23.633  0.00  0.00    +0.086 A 
ATOM     15  C   UNL     1      -4.333   1.391  24.727  0.00  0.00    +0.073 A 
ATOM     16  C   UNL     1      -4.503   2.747  24.642  0.00  0.00    +0.163 A 
BRANCH  16  17
ATOM     17  C   UNL     1      -5.240   3.731  25.445  0.00  0.00    +0.236 C 
BRANCH  17   3
ATOM      3  O   UNL     1      -4.518   4.035  26.642  0.00  0.00    -0.375 OA
ATOM     18  C   UNL     1      -3.151   4.289  26.365  0.00  0.00    +0.194 C 
ENDBRANCH  17   3
ENDBRANCH  16  17
ENDBRANCH   9  12
ENDBRANCH   6   9
TORSDOF 7
ENDMDL
MODEL 8
REMARK VINA RESULT:      -4.1      2.124      6.087
REMARK  Name = 56775530
REMARK  10 active torsions:
REMARK  status: ('A' for Active; 'I' for Inactive)
REMARK    1  A    between atoms: O_3  and  C_17
REMARK    2  A    between atoms: O_3  and  C_18
REMARK    3  A    between atoms: N_4  and  C_6
REMARK    4  A    between atoms: N_4  and  C_10
REMARK    5  A    between atoms: N_4  and  C_11
REMARK    6  A    between atoms: C_6  and  C_9
REMARK    7  A    between atoms: C_9  and  C_12
REMARK    8  A    between atoms: C_10  and  C_13
REMARK    9  A    between atoms: C_11  and  C_14
REMARK   10  A    between atoms: C_16  and  C_17
REMARK                            x       y       z     vdW  Elec       q    Type
REMARK                         _______ _______ _______ _____ _____    ______ ____
ROOT
ATOM      1  O   UNL     1       0.150   2.724  25.902  0.00  0.00    -0.376 OA
ATOM      6  C   UNL     1      -0.582   1.397  24.399  0.00  0.00    +0.074 C 
ATOM      7  C   UNL     1      -0.995   1.845  25.796  0.00  0.00    +0.184 C 
ATOM      8  C   UNL     1       0.543   2.415  24.546  0.00  0.00    +0.184 C 
ENDROOT
BRANCH   6   4
ATOM      4  N   UNL     1      -0.010   0.042  24.483  0.00  0.00    -0.293 NA
BRANCH   4  10
ATOM     10  C   UNL     1      -0.919  -0.816  25.242  0.00  0.00    +0.082 C 
ATOM     13  C   UNL     1      -1.389  -1.994  24.406  0.00  0.00    +0.020 C 
ENDBRANCH   4  10
BRANCH   4  11
ATOM     11  C   UNL     1       0.184  -0.482  23.132  0.00  0.00    +0.082 C 
ATOM     14  C   UNL     1       1.592  -0.206  22.633  0.00  0.00    +0.020 C 
ENDBRANCH   4  11
ENDBRANCH   6   4
BRANCH   6   9
ATOM      9  C   UNL     1      -1.554   1.551  23.269  0.00  0.00    +0.085 C 
BRANCH   9  12
ATOM      2  O   UNL     1      -4.505   3.387  24.256  0.00  0.00    -0.357 OA
ATOM      5  N   UNL     1      -3.226   3.310  23.718  0.00  0.00    -0.083 NA
ATOM     12  C   UNL     1      -2.903   2.015  23.779  0.00  0.00    +0.086 A 
ATOM     15  C   UNL     1      -3.928   1.235  24.340  0.00  0.00    +0.073 A 
ATOM     16  C   UNL     1      -4.912   2.145  24.622  0.00  0.00    +0.163 A 
BRANCH  16  17
ATOM     17  C   UNL     1      -6.252   2.042  25.213  0.00  0.00    +0.236 C 
BRANCH  17   3
ATOM      3  O   UNL     1      -6.208   2.381  26.602  0.00  0.00    -0.375 OA
ATOM     18  C   UNL     1      -6.844   1.390  27.392  0.00  0.00    +0.194 C 
ENDBRANCH  17   3
ENDBRANCH  16  17
ENDBRANCH   9  12
ENDBRANCH   6   9
TORSDOF 7
ENDMDL
MODEL 9
REMARK VINA RESULT:      -4.0      3.001      5.088
REMARK  Name = 56775530
REMARK  10 active torsions:
REMARK  status: ('A' for Active; 'I' for Inactive)
REMARK    1  A    between atoms: O_3  and  C_17
REMARK    2  A    between atoms: O_3  and  C_18
REMARK    3  A    between atoms: N_4  and  C_6
REMARK    4  A    between atoms: N_4  and  C_10
REMARK    5  A    between atoms: N_4  and  C_11
REMARK    6  A    between atoms: C_6  and  C_9
REMARK    7  A    between atoms: C_9  and  C_12
REMARK    8  A    between atoms: C_10  and  C_13
REMARK    9  A    between atoms: C_11  and  C_14
REMARK   10  A    between atoms: C_16  and  C_17
REMARK                            x       y       z     vdW  Elec       q    Type
REMARK                         _______ _______ _______ _____ _____    ______ ____
ROOT
ATOM      1  O   UNL     1      -3.438   3.055  22.221  0.00  0.00    -0.376 OA
ATOM      6  C   UNL     1      -3.072   2.693  24.292  0.00  0.00    +0.074 C 
ATOM      7  C   UNL     1      -3.814   3.723  23.449  0.00  0.00    +0.184 C 
ATOM      8  C   UNL     1      -2.797   1.994  22.966  0.00  0.00    +0.184 C 
ENDROOT
BRANCH   6   4
ATOM      4  N   UNL     1      -1.818   3.294  24.781  0.00  0.00    -0.293 NA
BRANCH   4  10
ATOM     10  C   UNL     1      -2.123   4.548  25.469  0.00  0.00    +0.082 C 
ATOM     13  C   UNL     1      -1.206   5.667  25.003  0.00  0.00    +0.020 C 
ENDBRANCH   4  10
BRANCH   4  11
ATOM     11  C   UNL     1      -1.159   2.357  25.688  0.00  0.00    +0.082 C 
ATOM     14  C   UNL     1       0.209   1.954  25.163  0.00  0.00    +0.020 C 
ENDBRANCH   4  11
ENDBRANCH   6   4
BRANCH   6   9
ATOM      9  C   UNL     1      -3.818   1.953  25.360  0.00  0.00    +0.085 C 
BRANCH   9  12
ATOM      2  O   UNL     1      -4.716  -1.320  24.120  0.00  0.00    -0.357 OA
ATOM      5  N   UNL     1      -4.909   0.053  24.224  0.00  0.00    -0.083 NA
ATOM     12  C   UNL     1      -3.925   0.481  25.021  0.00  0.00    +0.086 A 
ATOM     15  C   UNL     1      -3.090  -0.565  25.446  0.00  0.00    +0.073 A 
ATOM     16  C   UNL     1      -3.630  -1.675  24.852  0.00  0.00    +0.163 A 
BRANCH  16  17
ATOM     17  C   UNL     1      -3.279  -3.100  24.854  0.00  0.00    +0.236 C 
BRANCH  17   3
ATOM      3  O   UNL     1      -2.053  -3.310  24.147  0.00  0.00    -0.375 OA
ATOM     18  C   UNL     1      -1.064  -2.377  24.548  0.00  0.00    +0.194 C 
ENDBRANCH  17   3
ENDBRANCH  16  17
ENDBRANCH   9  12
ENDBRANCH   6   9
TORSDOF 7
ENDMDL
MODEL 10
REMARK VINA RESULT:      -3.9      1.492      2.195
REMARK  Name = 56775530
REMARK  10 active torsions:
REMARK  status: ('A' for Active; 'I' for Inactive)
REMARK    1  A    between atoms: O_3  and  C_17
REMARK    2  A    between atoms: O_3  and  C_18
REMARK    3  A    between atoms: N_4  and  C_6
REMARK    4  A    between atoms: N_4  and  C_10
REMARK    5  A    between atoms: N_4  and  C_11
REMARK    6  A    between atoms: C_6  and  C_9
REMARK    7  A    between atoms: C_9  and  C_12
REMARK    8  A    between atoms: C_10  and  C_13
REMARK    9  A    between atoms: C_11  and  C_14
REMARK   10  A    between atoms: C_16  and  C_17
REMARK                            x       y       z     vdW  Elec       q    Type
REMARK                         _______ _______ _______ _____ _____    ______ ____
ROOT
ATOM      1  O   UNL     1      -3.416   4.488  25.569  0.00  0.00    -0.376 OA
ATOM      6  C   UNL     1      -2.302   2.688  25.291  0.00  0.00    +0.074 C 
ATOM      7  C   UNL     1      -2.297   4.107  24.734  0.00  0.00    +0.184 C 
ATOM      8  C   UNL     1      -3.413   3.190  26.206  0.00  0.00    +0.184 C 
ENDROOT
BRANCH   6   4
ATOM      4  N   UNL     1      -2.888   1.784  24.285  0.00  0.00    -0.293 NA
BRANCH   4  10
ATOM     10  C   UNL     1      -4.110   1.191  24.827  0.00  0.00    +0.082 C 
ATOM     13  C   UNL     1      -4.189  -0.292  24.507  0.00  0.00    +0.020 C 
ENDBRANCH   4  10
BRANCH   4  11
ATOM     11  C   UNL     1      -3.178   2.543  23.070  0.00  0.00    +0.082 C 
ATOM     14  C   UNL     1      -2.472   1.942  21.866  0.00  0.00    +0.020 C 
ENDBRANCH   4  11
ENDBRANCH   6   4
BRANCH   6   9
ATOM      9  C   UNL     1      -1.049   2.143  25.905  0.00  0.00    +0.085 C 
BRANCH   9  12
ATOM      2  O   UNL     1       0.163  -0.651  23.961  0.00  0.00    -0.357 OA
ATOM      5  N   UNL     1      -0.652  -0.093  24.939  0.00  0.00    -0.083 NA
ATOM     12  C   UNL     1      -0.343   1.207  24.947  0.00  0.00    +0.086 A 
ATOM     15  C   UNL     1       0.651   1.524  24.006  0.00  0.00    +0.073 A 
ATOM     16  C   UNL     1       0.934   0.322  23.413  0.00  0.00    +0.163 A 
BRANCH  16  17
ATOM     17  C   UNL     1       1.862  -0.095  22.354  0.00  0.00    +0.236 C 
BRANCH  17   3
ATOM      3  O   UNL     1       3.074   0.660  22.432  0.00  0.00    -0.375 OA
ATOM     18  C   UNL     1       4.085  -0.062  23.115  0.00  0.00    +0.194 C 
ENDBRANCH  17   3
ENDBRANCH  16  17
ENDBRANCH   9  12
ENDBRANCH   6   9
TORSDOF 7
ENDMDL
