MODEL 1
REMARK VINA RESULT:      -6.8      0.000      0.000
REMARK  Name = 75536954
REMARK  2 active torsions:
REMARK  status: ('A' for Active; 'I' for Inactive)
REMARK    1  A    between atoms: O_3  and  C_10
REMARK    2  A    between atoms: N_4  and  C_5
REMARK                            x       y       z     vdW  Elec       q    Type
REMARK                         _______ _______ _______ _____ _____    ______ ____
ROOT
ATOM      2  O   UNL     1      -2.153   4.202  25.470  0.00  0.00    -0.376 OA
ATOM      4  N   UNL     1      -2.044   1.271  24.410  0.00  0.00    -0.295 NA
ATOM      8  C   UNL     1      -0.878   1.235  25.299  0.00  0.00    +0.118 C 
ATOM      9  C   UNL     1      -3.184   2.019  24.940  0.00  0.00    +0.113 C 
ATOM     10  C   UNL     1      -0.560   2.498  26.117  0.00  0.00    +0.154 C 
ATOM     13  C   UNL     1      -3.036   3.504  24.604  0.00  0.00    +0.175 C 
ATOM     14  C   UNL     1      -0.790   3.804  25.369  0.00  0.00    +0.192 C 
ENDROOT
BRANCH   4   5
ATOM      1  O   UNL     1      -3.495  -2.653  24.782  0.00  0.00    -0.380 OA
ATOM      5  C   UNL     1      -2.427  -0.089  24.028  0.00  0.00    +0.061 C 
ATOM      6  C   UNL     1      -1.616  -1.114  24.826  0.00  0.00    +0.047 C 
ATOM      7  C   UNL     1      -3.925  -0.322  24.245  0.00  0.00    +0.047 C 
ATOM     11  C   UNL     1      -2.098  -2.528  24.518  0.00  0.00    +0.161 C 
ATOM     12  C   UNL     1      -4.279  -1.779  23.969  0.00  0.00    +0.161 C 
ENDBRANCH   4   5
BRANCH  10   3
ATOM      3  O   UNL     1       0.815   2.444  26.499  0.00  0.00    -0.388 OA
ATOM     15  H   UNL     1       1.338   2.298  25.692  0.00  0.00    +0.210 HD
ENDBRANCH  10   3
TORSDOF 2
ENDMDL
MODEL 2
REMARK VINA RESULT:      -6.8      1.431      2.538
REMARK  Name = 75536954
REMARK  2 active torsions:
REMARK  status: ('A' for Active; 'I' for Inactive)
REMARK    1  A    between atoms: O_3  and  C_10
REMARK    2  A    between atoms: N_4  and  C_5
REMARK                            x       y       z     vdW  Elec       q    Type
REMARK                         _______ _______ _______ _____ _____    ______ ____
ROOT
ATOM      2  O   UNL     1      -2.374   4.406  25.353  0.00  0.00    -0.376 OA
ATOM      4  N   UNL     1      -2.918   1.373  24.874  0.00  0.00    -0.295 NA
ATOM      8  C   UNL     1      -4.304   1.834  25.013  0.00  0.00    +0.118 C 
ATOM      9  C   UNL     1      -2.051   2.285  24.127  0.00  0.00    +0.113 C 
ATOM     10  C   UNL     1      -4.542   3.340  25.213  0.00  0.00    +0.154 C 
ATOM     13  C   UNL     1      -1.475   3.345  25.067  0.00  0.00    +0.175 C 
ATOM     14  C   UNL     1      -3.518   4.024  26.109  0.00  0.00    +0.192 C 
ENDROOT
BRANCH   4   5
ATOM      1  O   UNL     1      -3.279  -2.806  24.664  0.00  0.00    -0.380 OA
ATOM      5  C   UNL     1      -2.892   0.024  24.308  0.00  0.00    +0.061 C 
ATOM      6  C   UNL     1      -1.892  -0.853  25.068  0.00  0.00    +0.047 C 
ATOM      7  C   UNL     1      -4.283  -0.616  24.343  0.00  0.00    +0.047 C 
ATOM     11  C   UNL     1      -1.953  -2.289  24.561  0.00  0.00    +0.161 C 
ATOM     12  C   UNL     1      -4.211  -2.065  23.875  0.00  0.00    +0.161 C 
ENDBRANCH   4   5
BRANCH  10   3
ATOM      3  O   UNL     1      -5.830   3.510  25.807  0.00  0.00    -0.388 OA
ATOM     15  H   UNL     1      -5.956   4.461  25.968  0.00  0.00    +0.210 HD
ENDBRANCH  10   3
TORSDOF 2
ENDMDL
MODEL 3
REMARK VINA RESULT:      -6.2      1.966      5.060
REMARK  Name = 75536954
REMARK  2 active torsions:
REMARK  status: ('A' for Active; 'I' for Inactive)
REMARK    1  A    between atoms: O_3  and  C_10
REMARK    2  A    between atoms: N_4  and  C_5
REMARK                            x       y       z     vdW  Elec       q    Type
REMARK                         _______ _______ _______ _____ _____    ______ ____
ROOT
ATOM      2  O   UNL     1      -0.713  -1.751  25.127  0.00  0.00    -0.376 OA
ATOM      4  N   UNL     1      -2.909   0.292  24.276  0.00  0.00    -0.295 NA
ATOM      8  C   UNL     1      -3.738  -0.917  24.347  0.00  0.00    +0.118 C 
ATOM      9  C   UNL     1      -1.908   0.401  25.338  0.00  0.00    +0.113 C 
ATOM     10  C   UNL     1      -3.065  -2.221  24.804  0.00  0.00    +0.154 C 
ATOM     13  C   UNL     1      -0.636  -0.346  24.935  0.00  0.00    +0.175 C 
ATOM     14  C   UNL     1      -1.647  -2.413  24.282  0.00  0.00    +0.192 C 
ENDROOT
BRANCH   4   5
ATOM      1  O   UNL     1      -4.888   3.774  25.543  0.00  0.00    -0.380 OA
ATOM      5  C   UNL     1      -3.759   1.481  24.217  0.00  0.00    +0.061 C 
ATOM      6  C   UNL     1      -4.908   1.366  25.223  0.00  0.00    +0.047 C 
ATOM      7  C   UNL     1      -2.950   2.753  24.489  0.00  0.00    +0.047 C 
ATOM     11  C   UNL     1      -5.723   2.654  25.249  0.00  0.00    +0.161 C 
ATOM     12  C   UNL     1      -3.873   3.964  24.556  0.00  0.00    +0.161 C 
ENDBRANCH   4   5
BRANCH  10   3
ATOM      3  O   UNL     1      -3.857  -3.315  24.340  0.00  0.00    -0.388 OA
ATOM     15  H   UNL     1      -4.771  -2.995  24.243  0.00  0.00    +0.210 HD
ENDBRANCH  10   3
TORSDOF 2
ENDMDL
MODEL 4
REMARK VINA RESULT:      -6.2      1.648      2.298
REMARK  Name = 75536954
REMARK  2 active torsions:
REMARK  status: ('A' for Active; 'I' for Inactive)
REMARK    1  A    between atoms: O_3  and  C_10
REMARK    2  A    between atoms: N_4  and  C_5
REMARK                            x       y       z     vdW  Elec       q    Type
REMARK                         _______ _______ _______ _____ _____    ______ ____
ROOT
ATOM      2  O   UNL     1      -5.542   3.444  25.628  0.00  0.00    -0.376 OA
ATOM      4  N   UNL     1      -3.761   1.214  24.370  0.00  0.00    -0.295 NA
ATOM      8  C   UNL     1      -2.704   2.140  24.791  0.00  0.00    +0.118 C 
ATOM      9  C   UNL     1      -4.865   1.087  25.321  0.00  0.00    +0.113 C 
ATOM     10  C   UNL     1      -3.123   3.414  25.543  0.00  0.00    +0.154 C 
ATOM     13  C   UNL     1      -5.898   2.186  25.072  0.00  0.00    +0.175 C 
ATOM     14  C   UNL     1      -4.405   4.054  25.027  0.00  0.00    +0.192 C 
ENDROOT
BRANCH   4   5
ATOM      1  O   UNL     1      -2.282  -2.679  24.913  0.00  0.00    -0.380 OA
ATOM      5  C   UNL     1      -3.185  -0.089  24.039  0.00  0.00    +0.061 C 
ATOM      6  C   UNL     1      -1.861  -0.290  24.781  0.00  0.00    +0.047 C 
ATOM      7  C   UNL     1      -4.155  -1.224  24.381  0.00  0.00    +0.047 C 
ATOM     11  C   UNL     1      -1.321  -1.695  24.534  0.00  0.00    +0.161 C 
ATOM     12  C   UNL     1      -3.488  -2.576  24.156  0.00  0.00    +0.161 C 
ENDBRANCH   4   5
BRANCH  10   3
ATOM      3  O   UNL     1      -2.071   4.371  25.416  0.00  0.00    -0.388 OA
ATOM     15  H   UNL     1      -2.473   5.256  25.449  0.00  0.00    +0.210 HD
ENDBRANCH  10   3
TORSDOF 2
ENDMDL
MODEL 5
REMARK VINA RESULT:      -6.1      1.915      4.618
REMARK  Name = 75536954
REMARK  2 active torsions:
REMARK  status: ('A' for Active; 'I' for Inactive)
REMARK    1  A    between atoms: O_3  and  C_10
REMARK    2  A    between atoms: N_4  and  C_5
REMARK                            x       y       z     vdW  Elec       q    Type
REMARK                         _______ _______ _______ _____ _____    ______ ____
ROOT
ATOM      2  O   UNL     1      -1.699  -2.597  24.639  0.00  0.00    -0.376 OA
ATOM      4  N   UNL     1      -2.892   0.283  24.712  0.00  0.00    -0.295 NA
ATOM      8  C   UNL     1      -1.550   0.605  24.214  0.00  0.00    +0.118 C 
ATOM      9  C   UNL     1      -3.466  -0.940  24.152  0.00  0.00    +0.113 C 
ATOM     10  C   UNL     1      -0.583  -0.562  23.955  0.00  0.00    +0.154 C 
ATOM     13  C   UNL     1      -3.008  -2.152  24.964  0.00  0.00    +0.175 C 
ATOM     14  C   UNL     1      -0.663  -1.683  24.982  0.00  0.00    +0.192 C 
ENDROOT
BRANCH   4   5
ATOM      1  O   UNL     1      -5.272   3.605  25.683  0.00  0.00    -0.380 OA
ATOM      5  C   UNL     1      -3.784   1.428  24.528  0.00  0.00    +0.061 C 
ATOM      6  C   UNL     1      -5.092   1.214  25.295  0.00  0.00    +0.047 C 
ATOM      7  C   UNL     1      -3.115   2.728  24.986  0.00  0.00    +0.047 C 
ATOM     11  C   UNL     1      -5.971   2.456  25.205  0.00  0.00    +0.161 C 
ATOM     12  C   UNL     1      -4.103   3.887  24.912  0.00  0.00    +0.161 C 
ENDBRANCH   4   5
BRANCH  10   3
ATOM      3  O   UNL     1       0.749  -0.045  23.970  0.00  0.00    -0.388 OA
ATOM     15  H   UNL     1       1.314  -0.677  23.492  0.00  0.00    +0.210 HD
ENDBRANCH  10   3
TORSDOF 2
ENDMDL
MODEL 6
REMARK VINA RESULT:      -6.0      1.656      5.279
REMARK  Name = 75536954
REMARK  2 active torsions:
REMARK  status: ('A' for Active; 'I' for Inactive)
REMARK    1  A    between atoms: O_3  and  C_10
REMARK    2  A    between atoms: N_4  and  C_5
REMARK                            x       y       z     vdW  Elec       q    Type
REMARK                         _______ _______ _______ _____ _____    ______ ____
ROOT
ATOM      2  O   UNL     1      -1.143  -2.330  25.089  0.00  0.00    -0.376 OA
ATOM      4  N   UNL     1      -2.314   0.478  24.401  0.00  0.00    -0.295 NA
ATOM      8  C   UNL     1      -3.530  -0.325  24.230  0.00  0.00    +0.118 C 
ATOM      9  C   UNL     1      -1.482   0.077  25.536  0.00  0.00    +0.113 C 
ATOM     10  C   UNL     1      -3.445  -1.830  24.532  0.00  0.00    +0.154 C 
ATOM     13  C   UNL     1      -0.534  -1.047  25.117  0.00  0.00    +0.175 C 
ATOM     14  C   UNL     1      -2.144  -2.486  24.089  0.00  0.00    +0.192 C 
ENDROOT
BRANCH   4   5
ATOM      1  O   UNL     1      -3.476   4.174  26.023  0.00  0.00    -0.380 OA
ATOM      5  C   UNL     1      -2.655   1.899  24.461  0.00  0.00    +0.061 C 
ATOM      6  C   UNL     1      -4.094   2.082  24.952  0.00  0.00    +0.047 C 
ATOM      7  C   UNL     1      -1.688   2.660  25.374  0.00  0.00    +0.047 C 
ATOM     11  C   UNL     1      -4.409   3.563  25.132  0.00  0.00    +0.161 C 
ATOM     12  C   UNL     1      -2.137   4.109  25.531  0.00  0.00    +0.161 C 
ENDBRANCH   4   5
BRANCH  10   3
ATOM      3  O   UNL     1      -4.520  -2.480  23.853  0.00  0.00    -0.388 OA
ATOM     15  H   UNL     1      -5.350  -2.189  24.269  0.00  0.00    +0.210 HD
ENDBRANCH  10   3
TORSDOF 2
ENDMDL
MODEL 7
REMARK VINA RESULT:      -5.9      2.104      4.024
REMARK  Name = 75536954
REMARK  2 active torsions:
REMARK  status: ('A' for Active; 'I' for Inactive)
REMARK    1  A    between atoms: O_3  and  C_10
REMARK    2  A    between atoms: N_4  and  C_5
REMARK                            x       y       z     vdW  Elec       q    Type
REMARK                         _______ _______ _______ _____ _____    ______ ____
ROOT
ATOM      2  O   UNL     1       0.646   1.598  24.282  0.00  0.00    -0.376 OA
ATOM      4  N   UNL     1      -2.462   1.822  24.162  0.00  0.00    -0.295 NA
ATOM      8  C   UNL     1      -2.347   0.380  24.409  0.00  0.00    +0.118 C 
ATOM      9  C   UNL     1      -1.505   2.640  24.907  0.00  0.00    +0.113 C 
ATOM     10  C   UNL     1      -0.938  -0.203  24.607  0.00  0.00    +0.154 C 
ATOM     13  C   UNL     1      -0.189   2.737  24.136  0.00  0.00    +0.175 C 
ATOM     14  C   UNL     1       0.126   0.406  23.703  0.00  0.00    +0.192 C 
ENDROOT
BRANCH   4   5
ATOM      1  O   UNL     1      -5.987   2.777  26.235  0.00  0.00    -0.380 OA
ATOM      5  C   UNL     1      -3.838   2.262  24.390  0.00  0.00    +0.061 C 
ATOM      6  C   UNL     1      -4.658   1.138  25.031  0.00  0.00    +0.047 C 
ATOM      7  C   UNL     1      -3.877   3.511  25.277  0.00  0.00    +0.047 C 
ATOM     11  C   UNL     1      -6.056   1.635  25.382  0.00  0.00    +0.161 C 
ATOM     12  C   UNL     1      -5.319   3.875  25.615  0.00  0.00    +0.161 C 
ENDBRANCH   4   5
BRANCH  10   3
ATOM      3  O   UNL     1      -0.996  -1.604  24.336  0.00  0.00    -0.388 OA
ATOM     15  H   UNL     1      -1.004  -2.069  25.190  0.00  0.00    +0.210 HD
ENDBRANCH  10   3
TORSDOF 2
ENDMDL
MODEL 8
REMARK VINA RESULT:      -5.4      1.519      4.764
REMARK  Name = 75536954
REMARK  2 active torsions:
REMARK  status: ('A' for Active; 'I' for Inactive)
REMARK    1  A    between atoms: O_3  and  C_10
REMARK    2  A    between atoms: N_4  and  C_5
REMARK                            x       y       z     vdW  Elec       q    Type
REMARK                         _______ _______ _______ _____ _____    ______ ____
ROOT
ATOM      2  O   UNL     1      -3.111  -2.459  23.965  0.00  0.00    -0.376 OA
ATOM      4  N   UNL     1      -2.992   0.423  25.150  0.00  0.00    -0.295 NA
ATOM      8  C   UNL     1      -1.578   0.059  25.292  0.00  0.00    +0.118 C 
ATOM      9  C   UNL     1      -3.612  -0.040  23.908  0.00  0.00    +0.113 C 
ATOM     10  C   UNL     1      -1.134  -1.314  24.764  0.00  0.00    +0.154 C 
ATOM     13  C   UNL     1      -4.124  -1.470  24.082  0.00  0.00    +0.175 C 
ATOM     14  C   UNL     1      -2.138  -2.434  25.003  0.00  0.00    +0.192 C 
ENDROOT
BRANCH   4   5
ATOM      1  O   UNL     1      -2.671   4.540  24.383  0.00  0.00    -0.380 OA
ATOM      5  C   UNL     1      -3.160   1.865  25.329  0.00  0.00    +0.061 C 
ATOM      6  C   UNL     1      -1.796   2.548  25.464  0.00  0.00    +0.047 C 
ATOM      7  C   UNL     1      -3.940   2.479  24.161  0.00  0.00    +0.047 C 
ATOM     11  C   UNL     1      -1.964   4.062  25.527  0.00  0.00    +0.161 C 
ATOM     12  C   UNL     1      -3.989   3.996  24.297  0.00  0.00    +0.161 C 
ENDBRANCH   4   5
BRANCH  10   3
ATOM      3  O   UNL     1       0.085  -1.669  25.418  0.00  0.00    -0.388 OA
ATOM     15  H   UNL     1       0.331  -0.929  26.001  0.00  0.00    +0.210 HD
ENDBRANCH  10   3
TORSDOF 2
ENDMDL
MODEL 9
REMARK VINA RESULT:      -5.3     14.859     17.076
REMARK  Name = 75536954
REMARK  2 active torsions:
REMARK  status: ('A' for Active; 'I' for Inactive)
REMARK    1  A    between atoms: O_3  and  C_10
REMARK    2  A    between atoms: N_4  and  C_5
REMARK                            x       y       z     vdW  Elec       q    Type
REMARK                         _______ _______ _______ _____ _____    ______ ____
ROOT
ATOM      2  O   UNL     1      11.509   5.948  21.681  0.00  0.00    -0.376 OA
ATOM      4  N   UNL     1      11.425   7.925  19.272  0.00  0.00    -0.295 NA
ATOM      8  C   UNL     1      10.948   8.829  20.325  0.00  0.00    +0.118 C 
ATOM      9  C   UNL     1      12.499   7.025  19.690  0.00  0.00    +0.113 C 
ATOM     10  C   UNL     1      10.878   8.283  21.761  0.00  0.00    +0.154 C 
ATOM     13  C   UNL     1      11.907   5.768  20.330  0.00  0.00    +0.175 C 
ATOM     14  C   UNL     1      10.411   6.837  21.860  0.00  0.00    +0.192 C 
ENDROOT
BRANCH   4   5
ATOM      1  O   UNL     1      12.688   8.719  15.346  0.00  0.00    -0.380 OA
ATOM      5  C   UNL     1      11.800   8.693  18.084  0.00  0.00    +0.061 C 
ATOM      6  C   UNL     1      13.247   8.386  17.687  0.00  0.00    +0.047 C 
ATOM      7  C   UNL     1      10.860   8.390  16.913  0.00  0.00    +0.047 C 
ATOM     11  C   UNL     1      13.599   9.089  16.380  0.00  0.00    +0.161 C 
ATOM     12  C   UNL     1      11.344   9.093  15.650  0.00  0.00    +0.161 C 
ENDBRANCH   4   5
BRANCH  10   3
ATOM      3  O   UNL     1       9.963   9.093  22.499  0.00  0.00    -0.388 OA
ATOM     15  H   UNL     1      10.250   9.088  23.428  0.00  0.00    +0.210 HD
ENDBRANCH  10   3
TORSDOF 2
ENDMDL
MODEL 10
REMARK VINA RESULT:      -5.1     16.319     18.490
REMARK  Name = 75536954
REMARK  2 active torsions:
REMARK  status: ('A' for Active; 'I' for Inactive)
REMARK    1  A    between atoms: O_3  and  C_10
REMARK    2  A    between atoms: N_4  and  C_5
REMARK                            x       y       z     vdW  Elec       q    Type
REMARK                         _______ _______ _______ _____ _____    ______ ____
ROOT
ATOM      2  O   UNL     1      10.808   8.342  19.216  0.00  0.00    -0.376 OA
ATOM      4  N   UNL     1      13.844   8.290  19.926  0.00  0.00    -0.295 NA
ATOM      8  C   UNL     1      13.291   8.137  21.276  0.00  0.00    +0.118 C 
ATOM      9  C   UNL     1      13.125   7.546  18.892  0.00  0.00    +0.113 C 
ATOM     10  C   UNL     1      11.763   8.048  21.420  0.00  0.00    +0.154 C 
ATOM     13  C   UNL     1      11.950   8.376  18.373  0.00  0.00    +0.175 C 
ATOM     14  C   UNL     1      10.990   8.966  20.482  0.00  0.00    +0.192 C 
ENDROOT
BRANCH   4   5
ATOM      1  O   UNL     1      17.403   6.234  20.790  0.00  0.00    -0.380 OA
ATOM      5  C   UNL     1      15.270   7.965  19.927  0.00  0.00    +0.061 C 
ATOM      6  C   UNL     1      15.821   7.989  21.356  0.00  0.00    +0.047 C 
ATOM      7  C   UNL     1      15.524   6.594  19.291  0.00  0.00    +0.047 C 
ATOM     11  C   UNL     1      17.275   7.531  21.372  0.00  0.00    +0.161 C 
ATOM     12  C   UNL     1      16.994   6.214  19.422  0.00  0.00    +0.161 C 
ENDBRANCH   4   5
BRANCH  10   3
ATOM      3  O   UNL     1      11.423   8.401  22.761  0.00  0.00    -0.388 OA
ATOM     15  H   UNL     1      10.558   8.846  22.738  0.00  0.00    +0.210 HD
ENDBRANCH  10   3
TORSDOF 2
ENDMDL
