MODEL 1
REMARK VINA RESULT:      -1.0      0.000      0.000
REMARK  Name = 40587853
REMARK  7 active torsions:
REMARK  status: ('A' for Active; 'I' for Inactive)
REMARK    1  A    between atoms: O_3  and  C_30
REMARK    2  A    between atoms: O_3  and  C_31
REMARK    3  A    between atoms: N_4  and  C_10
REMARK    4  A    between atoms: N_4  and  C_14
REMARK    5  A    between atoms: N_5  and  C_11
REMARK    6  A    between atoms: C_14  and  C_16
REMARK    7  A    between atoms: C_19  and  C_25
REMARK                            x       y       z     vdW  Elec       q    Type
REMARK                         _______ _______ _______ _____ _____    ______ ____
ROOT
ATOM      1  O   UNL     1      -2.832   3.695  23.667  0.00  0.00    -0.370 OA
ATOM      2  O   UNL     1      -4.332   3.254  26.366  0.00  0.00    -0.370 OA
ATOM      8  C   UNL     1      -3.009   2.927  25.911  0.00  0.00    +0.168 C 
ATOM      9  C   UNL     1      -3.120   2.527  24.453  0.00  0.00    +0.171 C 
ATOM     10  C   UNL     1      -2.140   4.164  25.888  0.00  0.00    +0.111 C 
ATOM     11  C   UNL     1      -4.569   2.129  24.288  0.00  0.00    +0.130 C 
ATOM     12  C   UNL     1      -2.484   4.778  24.542  0.00  0.00    +0.181 C 
ATOM     13  C   UNL     1      -5.272   3.002  25.311  0.00  0.00    +0.185 C 
ENDROOT
BRANCH  11   5
ATOM      5  N   UNL     1      -4.738   0.732  24.620  0.00  0.00    -0.306 N 
ATOM      6  N   UNL     1      -2.499   0.263  24.214  0.00  0.00    -0.214 NA
ATOM      7  N   UNL     1      -4.029  -1.459  24.919  0.00  0.00    -0.223 NA
ATOM     15  C   UNL     1      -3.711  -0.195  24.582  0.00  0.00    +0.216 A 
ATOM     19  C   UNL     1      -1.522  -0.666  24.192  0.00  0.00    +0.076 A 
ATOM     20  C   UNL     1      -3.005  -2.335  24.875  0.00  0.00    +0.116 A 
ATOM     23  C   UNL     1      -1.718  -1.992  24.515  0.00  0.00    +0.048 A 
ATOM     33  H   UNL     1      -5.640   0.403  24.948  0.00  0.00    +0.149 HD
BRANCH  19  25
ATOM     25  C   UNL     1      -0.221  -0.177  23.798  0.00  0.00    +0.001 A 
ATOM     26  C   UNL     1       0.635  -0.991  23.057  0.00  0.00    +0.013 A 
ATOM     27  C   UNL     1       0.179   1.109  24.161  0.00  0.00    +0.013 A 
ATOM     28  C   UNL     1       1.891  -0.519  22.679  0.00  0.00    +0.046 A 
ATOM     29  C   UNL     1       1.436   1.581  23.783  0.00  0.00    +0.046 A 
ATOM     30  C   UNL     1       2.292   0.766  23.042  0.00  0.00    +0.120 A 
BRANCH  30   3
ATOM      3  O   UNL     1       3.519   1.225  22.674  0.00  0.00    -0.495 OA
ATOM     31  C   UNL     1       4.649   0.453  23.080  0.00  0.00    +0.277 C 
ENDBRANCH  30   3
ENDBRANCH  19  25
ENDBRANCH  11   5
BRANCH  10   4
ATOM      4  N   UNL     1      -0.741   3.819  25.962  0.00  0.00    -0.305 NA
ATOM     32  H   UNL     1      -0.239   4.534  26.490  0.00  0.00    +0.123 HD
BRANCH   4  14
ATOM     14  C   UNL     1      -0.561   2.540  26.632  0.00  0.00    +0.116 C 
BRANCH  14  16
ATOM     16  C   UNL     1       0.490   2.614  27.707  0.00  0.00    -0.034 A 
ATOM     17  C   UNL     1       1.802   2.957  27.381  0.00  0.00    +0.005 A 
ATOM     18  C   UNL     1       0.151   2.337  29.033  0.00  0.00    +0.005 A 
ATOM     21  C   UNL     1       2.774   3.025  28.378  0.00  0.00    +0.000 A 
ATOM     22  C   UNL     1       1.124   2.406  30.030  0.00  0.00    +0.000 A 
ATOM     24  C   UNL     1       2.435   2.749  29.702  0.00  0.00    +0.000 A 
ENDBRANCH  14  16
ENDBRANCH   4  14
ENDBRANCH  10   4
TORSDOF 6
ENDMDL
MODEL 2
REMARK VINA RESULT:       0.1      1.900      2.423
REMARK  Name = 40587853
REMARK  7 active torsions:
REMARK  status: ('A' for Active; 'I' for Inactive)
REMARK    1  A    between atoms: O_3  and  C_30
REMARK    2  A    between atoms: O_3  and  C_31
REMARK    3  A    between atoms: N_4  and  C_10
REMARK    4  A    between atoms: N_4  and  C_14
REMARK    5  A    between atoms: N_5  and  C_11
REMARK    6  A    between atoms: C_14  and  C_16
REMARK    7  A    between atoms: C_19  and  C_25
REMARK                            x       y       z     vdW  Elec       q    Type
REMARK                         _______ _______ _______ _____ _____    ______ ____
ROOT
ATOM      1  O   UNL     1      -3.623   2.904  23.833  0.00  0.00    -0.370 OA
ATOM      2  O   UNL     1      -6.272   2.250  25.346  0.00  0.00    -0.370 OA
ATOM      8  C   UNL     1      -4.927   2.503  25.782  0.00  0.00    +0.168 C 
ATOM      9  C   UNL     1      -3.996   1.874  24.764  0.00  0.00    +0.171 C 
ATOM     10  C   UNL     1      -4.617   3.981  25.700  0.00  0.00    +0.111 C 
ATOM     11  C   UNL     1      -4.849   0.832  24.078  0.00  0.00    +0.130 C 
ATOM     12  C   UNL     1      -4.209   4.147  24.246  0.00  0.00    +0.181 C 
ATOM     13  C   UNL     1      -6.241   1.430  24.168  0.00  0.00    +0.185 C 
ENDROOT
BRANCH  11   5
ATOM      5  N   UNL     1      -4.791  -0.414  24.810  0.00  0.00    -0.306 N 
ATOM      6  N   UNL     1      -2.544  -0.718  24.305  0.00  0.00    -0.214 NA
ATOM      7  N   UNL     1      -3.754  -2.320  25.636  0.00  0.00    -0.223 NA
ATOM     15  C   UNL     1      -3.647  -1.184  24.921  0.00  0.00    +0.216 A 
ATOM     19  C   UNL     1      -1.447  -1.491  24.438  0.00  0.00    +0.076 A 
ATOM     20  C   UNL     1      -2.621  -3.045  25.728  0.00  0.00    +0.116 A 
ATOM     23  C   UNL     1      -1.426  -2.676  25.144  0.00  0.00    +0.048 A 
ATOM     33  H   UNL     1      -5.609  -0.733  25.316  0.00  0.00    +0.149 HD
BRANCH  19  25
ATOM     25  C   UNL     1      -0.263  -0.993  23.779  0.00  0.00    +0.001 A 
ATOM     26  C   UNL     1      -0.374  -0.298  22.576  0.00  0.00    +0.013 A 
ATOM     27  C   UNL     1       0.993  -1.211  24.345  0.00  0.00    +0.013 A 
ATOM     28  C   UNL     1       0.770   0.181  21.939  0.00  0.00    +0.046 A 
ATOM     29  C   UNL     1       2.138  -0.733  23.708  0.00  0.00    +0.046 A 
ATOM     30  C   UNL     1       2.026  -0.037  22.505  0.00  0.00    +0.120 A 
BRANCH  30   3
ATOM      3  O   UNL     1       3.143   0.429  21.881  0.00  0.00    -0.495 OA
ATOM     31  C   UNL     1       4.268   0.733  22.706  0.00  0.00    +0.277 C 
ENDBRANCH  30   3
ENDBRANCH  19  25
ENDBRANCH  11   5
BRANCH  10   4
ATOM      4  N   UNL     1      -3.538   4.338  26.589  0.00  0.00    -0.305 NA
ATOM     32  H   UNL     1      -3.160   3.497  27.026  0.00  0.00    +0.123 HD
BRANCH   4  14
ATOM     14  C   UNL     1      -2.467   5.000  25.859  0.00  0.00    +0.116 C 
BRANCH  14  16
ATOM     16  C   UNL     1      -1.368   4.041  25.486  0.00  0.00    -0.034 A 
ATOM     17  C   UNL     1      -0.671   4.209  24.289  0.00  0.00    +0.005 A 
ATOM     18  C   UNL     1      -1.047   2.983  26.337  0.00  0.00    +0.005 A 
ATOM     21  C   UNL     1       0.346   3.321  23.943  0.00  0.00    +0.000 A 
ATOM     22  C   UNL     1      -0.028   2.095  25.991  0.00  0.00    +0.000 A 
ATOM     24  C   UNL     1       0.667   2.264  24.794  0.00  0.00    +0.000 A 
ENDBRANCH  14  16
ENDBRANCH   4  14
ENDBRANCH  10   4
TORSDOF 6
ENDMDL
MODEL 3
REMARK VINA RESULT:       0.9      2.508      5.126
REMARK  Name = 40587853
REMARK  7 active torsions:
REMARK  status: ('A' for Active; 'I' for Inactive)
REMARK    1  A    between atoms: O_3  and  C_30
REMARK    2  A    between atoms: O_3  and  C_31
REMARK    3  A    between atoms: N_4  and  C_10
REMARK    4  A    between atoms: N_4  and  C_14
REMARK    5  A    between atoms: N_5  and  C_11
REMARK    6  A    between atoms: C_14  and  C_16
REMARK    7  A    between atoms: C_19  and  C_25
REMARK                            x       y       z     vdW  Elec       q    Type
REMARK                         _______ _______ _______ _____ _____    ______ ____
ROOT
ATOM      1  O   UNL     1      -1.409   3.018  23.308  0.00  0.00    -0.370 OA
ATOM      2  O   UNL     1      -1.256   4.752  25.897  0.00  0.00    -0.370 OA
ATOM      8  C   UNL     1      -1.456   3.348  25.663  0.00  0.00    +0.168 C 
ATOM      9  C   UNL     1      -2.305   3.216  24.414  0.00  0.00    +0.171 C 
ATOM     10  C   UNL     1      -0.148   2.686  25.292  0.00  0.00    +0.111 C 
ATOM     11  C   UNL     1      -2.998   4.553  24.295  0.00  0.00    +0.130 C 
ATOM     12  C   UNL     1      -0.061   2.954  23.799  0.00  0.00    +0.181 C 
ATOM     13  C   UNL     1      -1.997   5.504  24.925  0.00  0.00    +0.185 C 
ENDROOT
BRANCH  11   5
ATOM      5  N   UNL     1      -4.227   4.542  25.057  0.00  0.00    -0.306 N 
ATOM      6  N   UNL     1      -4.302   2.220  25.088  0.00  0.00    -0.214 NA
ATOM      7  N   UNL     1      -6.012   3.541  26.154  0.00  0.00    -0.223 NA
ATOM     15  C   UNL     1      -4.876   3.384  25.449  0.00  0.00    +0.216 A 
ATOM     19  C   UNL     1      -4.958   1.113  25.490  0.00  0.00    +0.076 A 
ATOM     20  C   UNL     1      -6.616   2.393  26.523  0.00  0.00    +0.116 A 
ATOM     23  C   UNL     1      -6.130   1.138  26.216  0.00  0.00    +0.048 A 
ATOM     33  H   UNL     1      -4.625   5.420  25.372  0.00  0.00    +0.149 HD
BRANCH  19  25
ATOM     25  C   UNL     1      -4.346  -0.136  25.103  0.00  0.00    +0.001 A 
ATOM     26  C   UNL     1      -3.457  -0.775  25.968  0.00  0.00    +0.013 A 
ATOM     27  C   UNL     1      -4.640  -0.703  23.864  0.00  0.00    +0.013 A 
ATOM     28  C   UNL     1      -2.865  -1.980  25.594  0.00  0.00    +0.046 A 
ATOM     29  C   UNL     1      -4.047  -1.908  23.488  0.00  0.00    +0.046 A 
ATOM     30  C   UNL     1      -3.159  -2.546  24.354  0.00  0.00    +0.120 A 
BRANCH  30   3
ATOM      3  O   UNL     1      -2.578  -3.722  23.989  0.00  0.00    -0.495 OA
ATOM     31  C   UNL     1      -1.294  -3.646  23.369  0.00  0.00    +0.277 C 
ENDBRANCH  30   3
ENDBRANCH  19  25
ENDBRANCH  11   5
BRANCH  10   4
ATOM      4  N   UNL     1      -0.184   1.270  25.567  0.00  0.00    -0.305 NA
ATOM     32  H   UNL     1      -0.897   1.075  26.270  0.00  0.00    +0.123 HD
BRANCH   4  14
ATOM     14  C   UNL     1      -0.506   0.520  24.363  0.00  0.00    +0.116 C 
BRANCH  14  16
ATOM     16  C   UNL     1       0.696   0.345  23.474  0.00  0.00    -0.034 A 
ATOM     17  C   UNL     1       1.914   0.929  23.822  0.00  0.00    +0.005 A 
ATOM     18  C   UNL     1       0.591  -0.401  22.299  0.00  0.00    +0.005 A 
ATOM     21  C   UNL     1       3.027   0.768  22.998  0.00  0.00    +0.000 A 
ATOM     22  C   UNL     1       1.705  -0.563  21.475  0.00  0.00    +0.000 A 
ATOM     24  C   UNL     1       2.922   0.021  21.824  0.00  0.00    +0.000 A 
ENDBRANCH  14  16
ENDBRANCH   4  14
ENDBRANCH  10   4
TORSDOF 6
ENDMDL
MODEL 4
REMARK VINA RESULT:       1.9      2.695      5.305
REMARK  Name = 40587853
REMARK  7 active torsions:
REMARK  status: ('A' for Active; 'I' for Inactive)
REMARK    1  A    between atoms: O_3  and  C_30
REMARK    2  A    between atoms: O_3  and  C_31
REMARK    3  A    between atoms: N_4  and  C_10
REMARK    4  A    between atoms: N_4  and  C_14
REMARK    5  A    between atoms: N_5  and  C_11
REMARK    6  A    between atoms: C_14  and  C_16
REMARK    7  A    between atoms: C_19  and  C_25
REMARK                            x       y       z     vdW  Elec       q    Type
REMARK                         _______ _______ _______ _____ _____    ______ ____
ROOT
ATOM      1  O   UNL     1      -1.305   3.121  23.123  0.00  0.00    -0.370 OA
ATOM      2  O   UNL     1      -1.247   3.586  26.207  0.00  0.00    -0.370 OA
ATOM      8  C   UNL     1      -1.733   2.515  25.383  0.00  0.00    +0.168 C 
ATOM      9  C   UNL     1      -2.326   3.140  24.135  0.00  0.00    +0.171 C 
ATOM     10  C   UNL     1      -0.581   1.684  24.867  0.00  0.00    +0.111 C 
ATOM     11  C   UNL     1      -2.633   4.562  24.543  0.00  0.00    +0.130 C 
ATOM     12  C   UNL     1      -0.138   2.466  23.642  0.00  0.00    +0.181 C 
ATOM     13  C   UNL     1      -1.574   4.842  25.594  0.00  0.00    +0.185 C 
ENDROOT
BRANCH  11   5
ATOM      5  N   UNL     1      -3.953   4.632  25.131  0.00  0.00    -0.306 N 
ATOM      6  N   UNL     1      -4.197   2.322  25.098  0.00  0.00    -0.214 NA
ATOM      7  N   UNL     1      -5.939   3.752  25.951  0.00  0.00    -0.223 NA
ATOM     15  C   UNL     1      -4.730   3.521  25.404  0.00  0.00    +0.216 A 
ATOM     19  C   UNL     1      -4.981   1.261  25.382  0.00  0.00    +0.076 A 
ATOM     20  C   UNL     1      -6.668   2.648  26.209  0.00  0.00    +0.116 A 
ATOM     23  C   UNL     1      -6.236   1.364  25.942  0.00  0.00    +0.048 A 
ATOM     33  H   UNL     1      -4.327   5.533  25.409  0.00  0.00    +0.149 HD
BRANCH  19  25
ATOM     25  C   UNL     1      -4.412  -0.025  25.054  0.00  0.00    +0.001 A 
ATOM     26  C   UNL     1      -4.531  -0.532  23.761  0.00  0.00    +0.013 A 
ATOM     27  C   UNL     1      -3.744  -0.761  26.033  0.00  0.00    +0.013 A 
ATOM     28  C   UNL     1      -3.984  -1.775  23.446  0.00  0.00    +0.046 A 
ATOM     29  C   UNL     1      -3.197  -2.004  25.718  0.00  0.00    +0.046 A 
ATOM     30  C   UNL     1      -3.317  -2.511  24.424  0.00  0.00    +0.120 A 
BRANCH  30   3
ATOM      3  O   UNL     1      -2.784  -3.725  24.117  0.00  0.00    -0.495 OA
ATOM     31  C   UNL     1      -1.500  -3.732  23.494  0.00  0.00    +0.277 C 
ENDBRANCH  30   3
ENDBRANCH  19  25
ENDBRANCH  11   5
BRANCH  10   4
ATOM      4  N   UNL     1      -1.015   0.355  24.509  0.00  0.00    -0.305 NA
ATOM     32  H   UNL     1      -1.379   0.357  23.556  0.00  0.00    +0.123 HD
BRANCH   4  14
ATOM     14  C   UNL     1       0.095  -0.584  24.576  0.00  0.00    +0.116 C 
BRANCH  14  16
ATOM     16  C   UNL     1       1.096  -0.347  23.477  0.00  0.00    -0.034 A 
ATOM     17  C   UNL     1       0.763  -0.638  22.154  0.00  0.00    +0.005 A 
ATOM     18  C   UNL     1       2.359   0.163  23.783  0.00  0.00    +0.005 A 
ATOM     21  C   UNL     1       1.692  -0.419  21.137  0.00  0.00    +0.000 A 
ATOM     22  C   UNL     1       3.287   0.383  22.765  0.00  0.00    +0.000 A 
ATOM     24  C   UNL     1       2.954   0.091  21.442  0.00  0.00    +0.000 A 
ENDBRANCH  14  16
ENDBRANCH   4  14
ENDBRANCH  10   4
TORSDOF 6
ENDMDL
MODEL 5
REMARK VINA RESULT:       2.1      3.103      5.311
REMARK  Name = 40587853
REMARK  7 active torsions:
REMARK  status: ('A' for Active; 'I' for Inactive)
REMARK    1  A    between atoms: O_3  and  C_30
REMARK    2  A    between atoms: O_3  and  C_31
REMARK    3  A    between atoms: N_4  and  C_10
REMARK    4  A    between atoms: N_4  and  C_14
REMARK    5  A    between atoms: N_5  and  C_11
REMARK    6  A    between atoms: C_14  and  C_16
REMARK    7  A    between atoms: C_19  and  C_25
REMARK                            x       y       z     vdW  Elec       q    Type
REMARK                         _______ _______ _______ _____ _____    ______ ____
ROOT
ATOM      1  O   UNL     1      -0.803  -0.844  26.252  0.00  0.00    -0.370 OA
ATOM      2  O   UNL     1      -2.382  -2.587  24.202  0.00  0.00    -0.370 OA
ATOM      8  C   UNL     1      -1.894  -1.236  24.175  0.00  0.00    +0.168 C 
ATOM      9  C   UNL     1      -2.057  -0.669  25.572  0.00  0.00    +0.171 C 
ATOM     10  C   UNL     1      -0.400  -1.221  23.944  0.00  0.00    +0.111 C 
ATOM     11  C   UNL     1      -3.120  -1.538  26.202  0.00  0.00    +0.130 C 
ATOM     12  C   UNL     1       0.148  -1.423  25.346  0.00  0.00    +0.181 C 
ATOM     13  C   UNL     1      -2.918  -2.870  25.504  0.00  0.00    +0.185 C 
ENDROOT
BRANCH  11   5
ATOM      5  N   UNL     1      -4.433  -1.009  25.901  0.00  0.00    -0.306 N 
ATOM      6  N   UNL     1      -3.562   1.042  25.245  0.00  0.00    -0.214 NA
ATOM      7  N   UNL     1      -5.933   0.617  25.197  0.00  0.00    -0.223 NA
ATOM     15  C   UNL     1      -4.652   0.272  25.428  0.00  0.00    +0.216 A 
ATOM     19  C   UNL     1      -3.813   2.283  24.779  0.00  0.00    +0.076 A 
ATOM     20  C   UNL     1      -6.111   1.870  24.732  0.00  0.00    +0.116 A 
ATOM     23  C   UNL     1      -5.078   2.756  24.502  0.00  0.00    +0.048 A 
ATOM     33  H   UNL     1      -5.244  -1.611  25.989  0.00  0.00    +0.149 HD
BRANCH  19  25
ATOM     25  C   UNL     1      -2.646   3.110  24.582  0.00  0.00    +0.001 A 
ATOM     26  C   UNL     1      -2.568   4.364  25.189  0.00  0.00    +0.013 A 
ATOM     27  C   UNL     1      -1.597   2.657  23.782  0.00  0.00    +0.013 A 
ATOM     28  C   UNL     1      -1.443   5.163  24.996  0.00  0.00    +0.046 A 
ATOM     29  C   UNL     1      -0.471   3.456  23.589  0.00  0.00    +0.046 A 
ATOM     30  C   UNL     1      -0.394   4.709  24.196  0.00  0.00    +0.120 A 
BRANCH  30   3
ATOM      3  O   UNL     1       0.704   5.491  24.007  0.00  0.00    -0.495 OA
ATOM     31  C   UNL     1       1.096   5.745  22.658  0.00  0.00    +0.277 C 
ENDBRANCH  30   3
ENDBRANCH  19  25
ENDBRANCH  11   5
BRANCH  10   4
ATOM      4  N   UNL     1       0.030   0.040  23.391  0.00  0.00    -0.305 NA
ATOM     32  H   UNL     1       0.501   0.588  24.112  0.00  0.00    +0.123 HD
BRANCH   4  14
ATOM     14  C   UNL     1       0.959  -0.169  22.291  0.00  0.00    +0.116 C 
BRANCH  14  16
ATOM     16  C   UNL     1       2.391  -0.128  22.752  0.00  0.00    -0.034 A 
ATOM     17  C   UNL     1       3.141   1.039  22.598  0.00  0.00    +0.005 A 
ATOM     18  C   UNL     1       2.971  -1.257  23.331  0.00  0.00    +0.005 A 
ATOM     21  C   UNL     1       4.468   1.077  23.025  0.00  0.00    +0.000 A 
ATOM     22  C   UNL     1       4.298  -1.218  23.759  0.00  0.00    +0.000 A 
ATOM     24  C   UNL     1       5.047  -0.052  23.605  0.00  0.00    +0.000 A 
ENDBRANCH  14  16
ENDBRANCH   4  14
ENDBRANCH  10   4
TORSDOF 6
ENDMDL
MODEL 6
REMARK VINA RESULT:       2.2      2.447      5.676
REMARK  Name = 40587853
REMARK  7 active torsions:
REMARK  status: ('A' for Active; 'I' for Inactive)
REMARK    1  A    between atoms: O_3  and  C_30
REMARK    2  A    between atoms: O_3  and  C_31
REMARK    3  A    between atoms: N_4  and  C_10
REMARK    4  A    between atoms: N_4  and  C_14
REMARK    5  A    between atoms: N_5  and  C_11
REMARK    6  A    between atoms: C_14  and  C_16
REMARK    7  A    between atoms: C_19  and  C_25
REMARK                            x       y       z     vdW  Elec       q    Type
REMARK                         _______ _______ _______ _____ _____    ______ ____
ROOT
ATOM      1  O   UNL     1      -0.005   0.794  25.870  0.00  0.00    -0.370 OA
ATOM      2  O   UNL     1       1.053  -0.895  23.471  0.00  0.00    -0.370 OA
ATOM      8  C   UNL     1      -0.033   0.034  23.617  0.00  0.00    +0.168 C 
ATOM      9  C   UNL     1      -0.619  -0.171  25.000  0.00  0.00    +0.171 C 
ATOM     10  C   UNL     1       0.489   1.452  23.645  0.00  0.00    +0.111 C 
ATOM     11  C   UNL     1      -0.188  -1.569  25.380  0.00  0.00    +0.130 C 
ATOM     12  C   UNL     1       0.875   1.628  25.103  0.00  0.00    +0.181 C 
ATOM     13  C   UNL     1       1.127  -1.724  24.640  0.00  0.00    +0.185 C 
ENDROOT
BRANCH  11   5
ATOM      5  N   UNL     1      -1.153  -2.532  24.896  0.00  0.00    -0.306 N 
ATOM      6  N   UNL     1      -2.791  -0.906  24.636  0.00  0.00    -0.214 NA
ATOM      7  N   UNL     1      -3.224  -3.214  24.099  0.00  0.00    -0.223 NA
ATOM     15  C   UNL     1      -2.445  -2.203  24.529  0.00  0.00    +0.216 A 
ATOM     19  C   UNL     1      -4.056  -0.621  24.266  0.00  0.00    +0.076 A 
ATOM     20  C   UNL     1      -4.476  -2.858  23.745  0.00  0.00    +0.116 A 
ATOM     23  C   UNL     1      -4.952  -1.564  23.808  0.00  0.00    +0.048 A 
ATOM     33  H   UNL     1      -0.871  -3.497  24.767  0.00  0.00    +0.149 HD
BRANCH  19  25
ATOM     25  C   UNL     1      -4.430   0.769  24.380  0.00  0.00    +0.001 A 
ATOM     26  C   UNL     1      -3.868   1.716  23.523  0.00  0.00    +0.013 A 
ATOM     27  C   UNL     1      -5.350   1.166  25.350  0.00  0.00    +0.013 A 
ATOM     28  C   UNL     1      -4.228   3.058  23.635  0.00  0.00    +0.046 A 
ATOM     29  C   UNL     1      -5.710   2.509  25.462  0.00  0.00    +0.046 A 
ATOM     30  C   UNL     1      -5.148   3.455  24.605  0.00  0.00    +0.120 A 
BRANCH  30   3
ATOM      3  O   UNL     1      -5.497   4.766  24.715  0.00  0.00    -0.495 OA
ATOM     31  C   UNL     1      -6.377   5.116  25.783  0.00  0.00    +0.277 C 
ENDBRANCH  30   3
ENDBRANCH  19  25
ENDBRANCH  11   5
BRANCH  10   4
ATOM      4  N   UNL     1      -0.535   2.393  23.259  0.00  0.00    -0.305 NA
ATOM     32  H   UNL     1      -1.437   2.090  23.628  0.00  0.00    +0.123 HD
BRANCH   4  14
ATOM     14  C   UNL     1      -0.243   3.717  23.787  0.00  0.00    +0.116 C 
BRANCH  14  16
ATOM     16  C   UNL     1      -1.221   4.121  24.858  0.00  0.00    -0.034 A 
ATOM     17  C   UNL     1      -1.622   3.197  25.823  0.00  0.00    +0.005 A 
ATOM     18  C   UNL     1      -1.727   5.421  24.885  0.00  0.00    +0.005 A 
ATOM     21  C   UNL     1      -2.528   3.572  26.814  0.00  0.00    +0.000 A 
ATOM     22  C   UNL     1      -2.633   5.796  25.877  0.00  0.00    +0.000 A 
ATOM     24  C   UNL     1      -3.034   4.871  26.841  0.00  0.00    +0.000 A 
ENDBRANCH  14  16
ENDBRANCH   4  14
ENDBRANCH  10   4
TORSDOF 6
ENDMDL
MODEL 7
REMARK VINA RESULT:       2.4      2.107      5.341
REMARK  Name = 40587853
REMARK  7 active torsions:
REMARK  status: ('A' for Active; 'I' for Inactive)
REMARK    1  A    between atoms: O_3  and  C_30
REMARK    2  A    between atoms: O_3  and  C_31
REMARK    3  A    between atoms: N_4  and  C_10
REMARK    4  A    between atoms: N_4  and  C_14
REMARK    5  A    between atoms: N_5  and  C_11
REMARK    6  A    between atoms: C_14  and  C_16
REMARK    7  A    between atoms: C_19  and  C_25
REMARK                            x       y       z     vdW  Elec       q    Type
REMARK                         _______ _______ _______ _____ _____    ______ ____
ROOT
ATOM      1  O   UNL     1      -2.302  -1.642  26.081  0.00  0.00    -0.370 OA
ATOM      2  O   UNL     1      -3.144  -1.614  23.078  0.00  0.00    -0.370 OA
ATOM      8  C   UNL     1      -2.184  -0.862  23.838  0.00  0.00    +0.168 C 
ATOM      9  C   UNL     1      -2.787  -0.611  25.205  0.00  0.00    +0.171 C 
ATOM     10  C   UNL     1      -0.963  -1.707  24.123  0.00  0.00    +0.111 C 
ATOM     11  C   UNL     1      -4.274  -0.766  24.988  0.00  0.00    +0.130 C 
ATOM     12  C   UNL     1      -1.384  -2.479  25.362  0.00  0.00    +0.181 C 
ATOM     13  C   UNL     1      -4.341  -1.773  23.854  0.00  0.00    +0.185 C 
ENDROOT
BRANCH  11   5
ATOM      5  N   UNL     1      -4.847   0.495  24.571  0.00  0.00    -0.306 N 
ATOM      6  N   UNL     1      -3.039   1.699  25.397  0.00  0.00    -0.214 NA
ATOM      7  N   UNL     1      -4.896   2.804  24.332  0.00  0.00    -0.223 NA
ATOM     15  C   UNL     1      -4.235   1.719  24.777  0.00  0.00    +0.216 A 
ATOM     19  C   UNL     1      -2.470   2.908  25.576  0.00  0.00    +0.076 A 
ATOM     20  C   UNL     1      -4.270   3.980  24.544  0.00  0.00    +0.116 A 
ATOM     23  C   UNL     1      -3.044   4.093  25.167  0.00  0.00    +0.048 A 
ATOM     33  H   UNL     1      -5.721   0.500  24.057  0.00  0.00    +0.149 HD
BRANCH  19  25
ATOM     25  C   UNL     1      -1.188   2.889  26.241  0.00  0.00    +0.001 A 
ATOM     26  C   UNL     1      -1.121   2.713  27.623  0.00  0.00    +0.013 A 
ATOM     27  C   UNL     1      -0.017   3.051  25.501  0.00  0.00    +0.013 A 
ATOM     28  C   UNL     1       0.116   2.697  28.264  0.00  0.00    +0.046 A 
ATOM     29  C   UNL     1       1.221   3.035  26.142  0.00  0.00    +0.046 A 
ATOM     30  C   UNL     1       1.287   2.858  27.524  0.00  0.00    +0.120 A 
BRANCH  30   3
ATOM      3  O   UNL     1       2.495   2.845  28.152  0.00  0.00    -0.495 OA
ATOM     31  C   UNL     1       2.491   2.632  29.563  0.00  0.00    +0.277 C 
ENDBRANCH  30   3
ENDBRANCH  19  25
ENDBRANCH  11   5
BRANCH  10   4
ATOM      4  N   UNL     1       0.191  -0.883  24.388  0.00  0.00    -0.305 NA
ATOM     32  H   UNL     1       0.918  -1.442  24.835  0.00  0.00    +0.123 HD
BRANCH   4  14
ATOM     14  C   UNL     1       0.727  -0.334  23.152  0.00  0.00    +0.116 C 
BRANCH  14  16
ATOM     16  C   UNL     1       2.226  -0.203  23.200  0.00  0.00    -0.034 A 
ATOM     17  C   UNL     1       2.838   0.979  22.781  0.00  0.00    +0.005 A 
ATOM     18  C   UNL     1       3.004  -1.265  23.663  0.00  0.00    +0.005 A 
ATOM     21  C   UNL     1       4.226   1.099  22.826  0.00  0.00    +0.000 A 
ATOM     22  C   UNL     1       4.393  -1.144  23.708  0.00  0.00    +0.000 A 
ATOM     24  C   UNL     1       5.004   0.038  23.289  0.00  0.00    +0.000 A 
ENDBRANCH  14  16
ENDBRANCH   4  14
ENDBRANCH  10   4
TORSDOF 6
ENDMDL
MODEL 8
REMARK VINA RESULT:       2.8      2.819      5.435
REMARK  Name = 40587853
REMARK  7 active torsions:
REMARK  status: ('A' for Active; 'I' for Inactive)
REMARK    1  A    between atoms: O_3  and  C_30
REMARK    2  A    between atoms: O_3  and  C_31
REMARK    3  A    between atoms: N_4  and  C_10
REMARK    4  A    between atoms: N_4  and  C_14
REMARK    5  A    between atoms: N_5  and  C_11
REMARK    6  A    between atoms: C_14  and  C_16
REMARK    7  A    between atoms: C_19  and  C_25
REMARK                            x       y       z     vdW  Elec       q    Type
REMARK                         _______ _______ _______ _____ _____    ______ ____
ROOT
ATOM      1  O   UNL     1      -4.886   2.146  26.752  0.00  0.00    -0.370 OA
ATOM      2  O   UNL     1      -6.108   4.547  25.179  0.00  0.00    -0.370 OA
ATOM      8  C   UNL     1      -5.324   3.409  24.785  0.00  0.00    +0.168 C 
ATOM      9  C   UNL     1      -4.321   3.148  25.890  0.00  0.00    +0.171 C 
ATOM     10  C   UNL     1      -6.181   2.164  24.763  0.00  0.00    +0.111 C 
ATOM     11  C   UNL     1      -4.220   4.468  26.618  0.00  0.00    +0.130 C 
ATOM     12  C   UNL     1      -6.148   1.721  26.216  0.00  0.00    +0.181 C 
ATOM     13  C   UNL     1      -5.601   5.064  26.418  0.00  0.00    +0.185 C 
ENDROOT
BRANCH  11   5
ATOM      5  N   UNL     1      -3.219   5.303  25.990  0.00  0.00    -0.306 N 
ATOM      6  N   UNL     1      -1.957   3.465  25.336  0.00  0.00    -0.214 NA
ATOM      7  N   UNL     1      -1.254   5.711  24.821  0.00  0.00    -0.223 NA
ATOM     15  C   UNL     1      -2.094   4.805  25.356  0.00  0.00    +0.216 A 
ATOM     19  C   UNL     1      -0.852   3.014  24.707  0.00  0.00    +0.076 A 
ATOM     20  C   UNL     1      -0.172   5.192  24.207  0.00  0.00    +0.116 A 
ATOM     23  C   UNL     1       0.084   3.838  24.118  0.00  0.00    +0.048 A 
ATOM     33  H   UNL     1      -3.354   6.307  25.961  0.00  0.00    +0.149 HD
BRANCH  19  25
ATOM     25  C   UNL     1      -0.703   1.578  24.685  0.00  0.00    +0.001 A 
ATOM     26  C   UNL     1      -0.775   0.850  25.872  0.00  0.00    +0.013 A 
ATOM     27  C   UNL     1      -0.483   0.920  23.475  0.00  0.00    +0.013 A 
ATOM     28  C   UNL     1      -0.628  -0.536  25.850  0.00  0.00    +0.046 A 
ATOM     29  C   UNL     1      -0.335  -0.467  23.453  0.00  0.00    +0.046 A 
ATOM     30  C   UNL     1      -0.408  -1.194  24.641  0.00  0.00    +0.120 A 
BRANCH  30   3
ATOM      3  O   UNL     1      -0.263  -2.548  24.621  0.00  0.00    -0.495 OA
ATOM     31  C   UNL     1       0.438  -3.142  25.713  0.00  0.00    +0.277 C 
ENDBRANCH  30   3
ENDBRANCH  19  25
ENDBRANCH  11   5
BRANCH  10   4
ATOM      4  N   UNL     1      -5.616   1.157  23.898  0.00  0.00    -0.305 NA
ATOM     32  H   UNL     1      -5.660   1.472  22.929  0.00  0.00    +0.123 HD
BRANCH   4  14
ATOM     14  C   UNL     1      -4.223   0.908  24.239  0.00  0.00    +0.116 C 
BRANCH  14  16
ATOM     16  C   UNL     1      -3.967  -0.549  24.519  0.00  0.00    -0.034 A 
ATOM     17  C   UNL     1      -4.032  -1.481  23.483  0.00  0.00    +0.005 A 
ATOM     18  C   UNL     1      -3.665  -0.967  25.815  0.00  0.00    +0.005 A 
ATOM     21  C   UNL     1      -3.795  -2.830  23.743  0.00  0.00    +0.000 A 
ATOM     22  C   UNL     1      -3.428  -2.317  26.075  0.00  0.00    +0.000 A 
ATOM     24  C   UNL     1      -3.493  -3.248  25.039  0.00  0.00    +0.000 A 
ENDBRANCH  14  16
ENDBRANCH   4  14
ENDBRANCH  10   4
TORSDOF 6
ENDMDL
