MODEL 1
REMARK VINA RESULT:       3.7      0.000      0.000
REMARK  Name = 45783588
REMARK  5 active torsions:
REMARK  status: ('A' for Active; 'I' for Inactive)
REMARK    1  A    between atoms: O_3  and  C_18
REMARK    2  A    between atoms: O_3  and  C_26
REMARK    3  A    between atoms: N_4  and  C_8
REMARK    4  A    between atoms: C_9  and  C_17
REMARK    5  A    between atoms: C_24  and  C_25
REMARK                            x       y       z     vdW  Elec       q    Type
REMARK                         _______ _______ _______ _____ _____    ______ ____
ROOT
ATOM      2  O   UNL     1      -3.202  -0.515  25.171  0.00  0.00    -0.336 OA
ATOM      5  N   UNL     1      -2.170   1.313  24.391  0.00  0.00    -0.190 NA
ATOM      6  N   UNL     1      -1.999  -0.958  24.604  0.00  0.00    -0.056 NA
ATOM     17  C   UNL     1      -3.223   0.832  25.003  0.00  0.00    +0.245 A 
ATOM     24  C   UNL     1      -1.448   0.178  24.167  0.00  0.00    +0.204 A 
ENDROOT
BRANCH  24  25
ATOM      7  N   UNL     1       2.023   1.188  23.300  0.00  0.00    -0.221 NA
ATOM     25  C   UNL     1      -0.179   0.212  23.500  0.00  0.00    +0.041 A 
ATOM     26  C   UNL     1       2.256   0.336  22.277  0.00  0.00    +0.215 A 
ATOM     27  C   UNL     1       0.099  -0.649  22.445  0.00  0.00    +0.018 A 
ATOM     28  C   UNL     1       1.337  -0.592  21.816  0.00  0.00    +0.068 A 
ATOM     29  C   UNL     1       0.808   1.104  23.886  0.00  0.00    +0.126 A 
BRANCH  26   3
ATOM      3  O   UNL     1       3.484   0.411  21.674  0.00  0.00    -0.473 OA
BRANCH   3  18
ATOM     18  C   UNL     1       4.601  -0.021  22.443  0.00  0.00    +0.175 C 
ATOM     19  C   UNL     1       5.080   1.120  23.338  0.00  0.00    +0.044 C 
ATOM     20  C   UNL     1       4.217  -1.254  23.260  0.00  0.00    +0.044 C 
ATOM     21  C   UNL     1       6.217   0.677  24.254  0.00  0.00    +0.004 C 
ATOM     22  C   UNL     1       5.353  -1.697  24.176  0.00  0.00    +0.004 C 
ATOM     23  C   UNL     1       5.833  -0.555  25.069  0.00  0.00    +0.000 C 
ENDBRANCH   3  18
ENDBRANCH  26   3
ENDBRANCH  24  25
BRANCH  17   9
ATOM      4  N   UNL     1      -4.858   2.678  24.673  0.00  0.00    -0.288 NA
ATOM      9  C   UNL     1      -4.438   1.560  25.540  0.00  0.00    +0.146 C 
ATOM     10  C   UNL     1      -6.304   2.817  24.851  0.00  0.00    +0.085 C 
ATOM     11  C   UNL     1      -5.679   0.653  25.639  0.00  0.00    +0.030 C 
ATOM     12  C   UNL     1      -6.761   1.373  24.847  0.00  0.00    +0.017 C 
BRANCH   4   8
ATOM      1  O   UNL     1      -1.657   5.289  25.423  0.00  0.00    -0.380 OA
ATOM      8  C   UNL     1      -4.148   3.924  24.955  0.00  0.00    +0.062 C 
ATOM     13  C   UNL     1      -3.177   4.273  23.823  0.00  0.00    +0.047 C 
ATOM     14  C   UNL     1      -3.390   3.815  26.281  0.00  0.00    +0.047 C 
ATOM     15  C   UNL     1      -2.350   5.498  24.193  0.00  0.00    +0.161 C 
ATOM     16  C   UNL     1      -2.550   5.067  26.515  0.00  0.00    +0.161 C 
ENDBRANCH   4   8
ENDBRANCH  17   9
TORSDOF 5
ENDMDL
MODEL 2
REMARK VINA RESULT:       3.9      1.661      3.506
REMARK  Name = 45783588
REMARK  5 active torsions:
REMARK  status: ('A' for Active; 'I' for Inactive)
REMARK    1  A    between atoms: O_3  and  C_18
REMARK    2  A    between atoms: O_3  and  C_26
REMARK    3  A    between atoms: N_4  and  C_8
REMARK    4  A    between atoms: C_9  and  C_17
REMARK    5  A    between atoms: C_24  and  C_25
REMARK                            x       y       z     vdW  Elec       q    Type
REMARK                         _______ _______ _______ _____ _____    ______ ____
ROOT
ATOM      2  O   UNL     1      -2.253   2.874  24.973  0.00  0.00    -0.336 OA
ATOM      5  N   UNL     1      -1.996   1.090  23.644  0.00  0.00    -0.190 NA
ATOM      6  N   UNL     1      -0.890   2.822  24.649  0.00  0.00    -0.056 NA
ATOM     17  C   UNL     1      -2.830   1.820  24.340  0.00  0.00    +0.245 A 
ATOM     24  C   UNL     1      -0.819   1.744  23.863  0.00  0.00    +0.204 A 
ENDROOT
BRANCH  24  25
ATOM      7  N   UNL     1       2.788   1.613  22.971  0.00  0.00    -0.221 NA
ATOM     25  C   UNL     1       0.412   1.293  23.283  0.00  0.00    +0.041 A 
ATOM     26  C   UNL     1       2.791   0.496  22.210  0.00  0.00    +0.215 A 
ATOM     27  C   UNL     1       0.456   0.148  22.496  0.00  0.00    +0.018 A 
ATOM     28  C   UNL     1       1.664  -0.265  21.945  0.00  0.00    +0.068 A 
ATOM     29  C   UNL     1       1.595   1.984  23.489  0.00  0.00    +0.126 A 
BRANCH  26   3
ATOM      3  O   UNL     1       3.993   0.109  21.680  0.00  0.00    -0.473 OA
BRANCH   3  18
ATOM     18  C   UNL     1       5.033  -0.190  22.604  0.00  0.00    +0.175 C 
ATOM     19  C   UNL     1       5.325   1.039  23.463  0.00  0.00    +0.044 C 
ATOM     20  C   UNL     1       4.632  -1.391  23.458  0.00  0.00    +0.044 C 
ATOM     21  C   UNL     1       6.368   0.740  24.536  0.00  0.00    +0.004 C 
ATOM     22  C   UNL     1       5.674  -1.691  24.531  0.00  0.00    +0.004 C 
ATOM     23  C   UNL     1       5.967  -0.461  25.388  0.00  0.00    +0.000 C 
ENDBRANCH   3  18
ENDBRANCH  26   3
ENDBRANCH  24  25
BRANCH  17   9
ATOM      4  N   UNL     1      -4.653   0.830  25.715  0.00  0.00    -0.288 NA
ATOM      9  C   UNL     1      -4.323   1.652  24.534  0.00  0.00    +0.146 C 
ATOM     10  C   UNL     1      -5.952   1.302  26.196  0.00  0.00    +0.085 C 
ATOM     11  C   UNL     1      -5.045   2.991  24.774  0.00  0.00    +0.030 C 
ATOM     12  C   UNL     1      -5.802   2.805  26.082  0.00  0.00    +0.017 C 
BRANCH   4   8
ATOM      1  O   UNL     1      -3.394  -2.881  24.209  0.00  0.00    -0.380 OA
ATOM      8  C   UNL     1      -4.658  -0.604  25.436  0.00  0.00    +0.062 C 
ATOM     13  C   UNL     1      -3.432  -1.289  26.045  0.00  0.00    +0.047 C 
ATOM     14  C   UNL     1      -4.700  -0.851  23.924  0.00  0.00    +0.047 C 
ATOM     15  C   UNL     1      -3.383  -2.755  25.632  0.00  0.00    +0.161 C 
ATOM     16  C   UNL     1      -4.581  -2.342  23.628  0.00  0.00    +0.161 C 
ENDBRANCH   4   8
ENDBRANCH  17   9
TORSDOF 5
ENDMDL
