MODEL 1
REMARK VINA RESULT:      -1.1      0.000      0.000
REMARK  Name = 45783409
REMARK  9 active torsions:
REMARK  status: ('A' for Active; 'I' for Inactive)
REMARK    1  A    between atoms: O_3  and  C_23
REMARK    2  A    between atoms: O_3  and  C_27
REMARK    3  A    between atoms: O_4  and  C_28
REMARK    4  A    between atoms: O_4  and  C_29
REMARK    5  A    between atoms: N_5  and  C_13
REMARK    6  A    between atoms: C_9  and  C_14
REMARK    7  A    between atoms: C_13  and  C_15
REMARK    8  A    between atoms: C_18  and  C_21
REMARK    9  A    between atoms: C_27  and  C_28
REMARK                            x       y       z     vdW  Elec       q    Type
REMARK                         _______ _______ _______ _____ _____    ______ ____
ROOT
ATOM      2  O   UNL     1      -0.576   3.087  25.908  0.00  0.00    -0.336 OA
ATOM      6  N   UNL     1      -0.761   2.506  23.753  0.00  0.00    -0.190 NA
ATOM      7  N   UNL     1       0.575   2.350  25.604  0.00  0.00    -0.056 NA
ATOM     14  C   UNL     1      -1.308   3.131  24.764  0.00  0.00    +0.245 A 
ATOM     18  C   UNL     1       0.393   2.043  24.316  0.00  0.00    +0.207 A 
ENDROOT
BRANCH  18  21
ATOM      8  N   UNL     1       1.873  -0.698  22.271  0.00  0.00    -0.221 NA
ATOM     21  C   UNL     1       1.343   1.275  23.564  0.00  0.00    +0.084 A 
ATOM     23  C   UNL     1       1.011   0.058  22.987  0.00  0.00    +0.226 A 
ATOM     24  C   UNL     1       2.640   1.743  23.396  0.00  0.00    +0.018 A 
ATOM     25  C   UNL     1       3.555   0.992  22.665  0.00  0.00    +0.021 A 
ATOM     26  C   UNL     1       3.125  -0.210  22.127  0.00  0.00    +0.114 A 
BRANCH  23   3
ATOM      3  O   UNL     1      -0.257  -0.445  23.125  0.00  0.00    -0.474 OA
BRANCH   3  27
ATOM     27  C   UNL     1      -0.367  -1.764  23.646  0.00  0.00    +0.258 C 
BRANCH  27  28
ATOM     28  C   UNL     1      -0.236  -1.711  25.156  0.00  0.00    +0.200 C 
BRANCH  28   4
ATOM      4  O   UNL     1      -0.925  -0.566  25.644  0.00  0.00    -0.380 OA
ATOM     29  C   UNL     1      -0.972  -0.552  27.063  0.00  0.00    +0.194 C 
ENDBRANCH  28   4
ENDBRANCH  27  28
ENDBRANCH   3  27
ENDBRANCH  23   3
ENDBRANCH  18  21
BRANCH  14   9
ATOM      5  N   UNL     1      -3.739   3.033  25.286  0.00  0.00    -0.287 NA
ATOM      9  C   UNL     1      -2.620   3.883  24.832  0.00  0.00    +0.146 C 
ATOM     10  C   UNL     1      -2.585   5.052  25.836  0.00  0.00    +0.030 C 
ATOM     11  C   UNL     1      -3.756   4.804  26.776  0.00  0.00    +0.017 C 
ATOM     12  C   UNL     1      -4.683   3.920  25.966  0.00  0.00    +0.085 C 
BRANCH   5  13
ATOM     13  C   UNL     1      -4.370   2.287  24.204  0.00  0.00    +0.120 C 
BRANCH  13  15
ATOM      1 CL   UNL     1      -3.550  -3.642  24.799  0.00  0.00    -0.084 Cl
ATOM     15  C   UNL     1      -4.166   0.804  24.353  0.00  0.00    -0.033 A 
ATOM     16  C   UNL     1      -3.881   0.023  23.233  0.00  0.00    +0.006 A 
ATOM     17  C   UNL     1      -4.260   0.210  25.612  0.00  0.00    +0.006 A 
ATOM     19  C   UNL     1      -3.692  -1.352  23.371  0.00  0.00    +0.020 A 
ATOM     20  C   UNL     1      -4.071  -1.165  25.750  0.00  0.00    +0.020 A 
ATOM     22  C   UNL     1      -3.787  -1.946  24.629  0.00  0.00    +0.041 A 
ENDBRANCH  13  15
ENDBRANCH   5  13
ENDBRANCH  14   9
TORSDOF 8
ENDMDL
MODEL 2
REMARK VINA RESULT:      -0.8      1.840      3.132
REMARK  Name = 45783409
REMARK  9 active torsions:
REMARK  status: ('A' for Active; 'I' for Inactive)
REMARK    1  A    between atoms: O_3  and  C_23
REMARK    2  A    between atoms: O_3  and  C_27
REMARK    3  A    between atoms: O_4  and  C_28
REMARK    4  A    between atoms: O_4  and  C_29
REMARK    5  A    between atoms: N_5  and  C_13
REMARK    6  A    between atoms: C_9  and  C_14
REMARK    7  A    between atoms: C_13  and  C_15
REMARK    8  A    between atoms: C_18  and  C_21
REMARK    9  A    between atoms: C_27  and  C_28
REMARK                            x       y       z     vdW  Elec       q    Type
REMARK                         _______ _______ _______ _____ _____    ______ ____
ROOT
ATOM      2  O   UNL     1      -3.151   2.633  22.269  0.00  0.00    -0.336 OA
ATOM      6  N   UNL     1      -2.300   1.375  23.914  0.00  0.00    -0.190 NA
ATOM      7  N   UNL     1      -1.837   2.331  21.887  0.00  0.00    -0.056 NA
ATOM     14  C   UNL     1      -3.341   2.032  23.472  0.00  0.00    +0.245 A 
ATOM     18  C   UNL     1      -1.402   1.586  22.908  0.00  0.00    +0.207 A 
ENDROOT
BRANCH  18  21
ATOM      8  N   UNL     1       2.181   1.115  23.817  0.00  0.00    -0.221 NA
ATOM     21  C   UNL     1      -0.076   1.041  22.954  0.00  0.00    +0.084 A 
ATOM     23  C   UNL     1       0.920   1.596  23.743  0.00  0.00    +0.226 A 
ATOM     24  C   UNL     1       0.244  -0.078  22.193  0.00  0.00    +0.018 A 
ATOM     25  C   UNL     1       1.532  -0.601  22.244  0.00  0.00    +0.021 A 
ATOM     26  C   UNL     1       2.454   0.026  23.065  0.00  0.00    +0.114 A 
BRANCH  23   3
ATOM      3  O   UNL     1       0.653   2.699  24.511  0.00  0.00    -0.474 OA
BRANCH   3  27
ATOM     27  C   UNL     1       0.140   2.461  25.816  0.00  0.00    +0.258 C 
BRANCH  27  28
ATOM     28  C   UNL     1      -1.035   3.387  26.063  0.00  0.00    +0.200 C 
BRANCH  28   4
ATOM      4  O   UNL     1      -1.065   4.382  25.046  0.00  0.00    -0.380 OA
ATOM     29  C   UNL     1      -2.033   5.383  25.324  0.00  0.00    +0.194 C 
ENDBRANCH  28   4
ENDBRANCH  27  28
ENDBRANCH   3  27
ENDBRANCH  23   3
ENDBRANCH  18  21
BRANCH  14   9
ATOM      5  N   UNL     1      -4.786   1.612  25.455  0.00  0.00    -0.287 NA
ATOM      9  C   UNL     1      -4.704   2.210  24.107  0.00  0.00    +0.146 C 
ATOM     10  C   UNL     1      -5.075   3.691  24.314  0.00  0.00    +0.030 C 
ATOM     11  C   UNL     1      -5.407   3.816  25.794  0.00  0.00    +0.017 C 
ATOM     12  C   UNL     1      -5.768   2.400  26.198  0.00  0.00    +0.085 C 
BRANCH   5  13
ATOM     13  C   UNL     1      -5.122   0.194  25.435  0.00  0.00    +0.120 C 
BRANCH  13  15
ATOM      1 CL   UNL     1      -0.223  -3.262  24.947  0.00  0.00    -0.084 Cl
ATOM     15  C   UNL     1      -3.897  -0.671  25.313  0.00  0.00    -0.033 A 
ATOM     16  C   UNL     1      -3.880  -1.734  24.411  0.00  0.00    +0.006 A 
ATOM     17  C   UNL     1      -2.777  -0.409  26.104  0.00  0.00    +0.006 A 
ATOM     19  C   UNL     1      -2.744  -2.536  24.299  0.00  0.00    +0.020 A 
ATOM     20  C   UNL     1      -1.642  -1.211  25.991  0.00  0.00    +0.020 A 
ATOM     22  C   UNL     1      -1.625  -2.275  25.089  0.00  0.00    +0.041 A 
ENDBRANCH  13  15
ENDBRANCH   5  13
ENDBRANCH  14   9
TORSDOF 8
ENDMDL
MODEL 3
REMARK VINA RESULT:      -0.5      2.807      7.208
REMARK  Name = 45783409
REMARK  9 active torsions:
REMARK  status: ('A' for Active; 'I' for Inactive)
REMARK    1  A    between atoms: O_3  and  C_23
REMARK    2  A    between atoms: O_3  and  C_27
REMARK    3  A    between atoms: O_4  and  C_28
REMARK    4  A    between atoms: O_4  and  C_29
REMARK    5  A    between atoms: N_5  and  C_13
REMARK    6  A    between atoms: C_9  and  C_14
REMARK    7  A    between atoms: C_13  and  C_15
REMARK    8  A    between atoms: C_18  and  C_21
REMARK    9  A    between atoms: C_27  and  C_28
REMARK                            x       y       z     vdW  Elec       q    Type
REMARK                         _______ _______ _______ _____ _____    ______ ____
ROOT
ATOM      2  O   UNL     1      -1.921   0.995  22.584  0.00  0.00    -0.336 OA
ATOM      6  N   UNL     1      -2.848   0.533  24.570  0.00  0.00    -0.190 NA
ATOM      7  N   UNL     1      -2.864   2.004  22.817  0.00  0.00    -0.056 NA
ATOM     14  C   UNL     1      -1.976   0.172  23.664  0.00  0.00    +0.245 A 
ATOM     18  C   UNL     1      -3.368   1.664  24.007  0.00  0.00    +0.207 A 
ENDROOT
BRANCH  18  21
ATOM      8  N   UNL     1      -5.172   4.533  25.557  0.00  0.00    -0.221 NA
ATOM     21  C   UNL     1      -4.392   2.428  24.659  0.00  0.00    +0.084 A 
ATOM     23  C   UNL     1      -4.234   3.775  24.945  0.00  0.00    +0.226 A 
ATOM     24  C   UNL     1      -5.589   1.820  25.022  0.00  0.00    +0.018 A 
ATOM     25  C   UNL     1      -6.577   2.568  25.653  0.00  0.00    +0.021 A 
ATOM     26  C   UNL     1      -6.322   3.908  25.894  0.00  0.00    +0.114 A 
BRANCH  23   3
ATOM      3  O   UNL     1      -3.072   4.418  24.606  0.00  0.00    -0.474 OA
BRANCH   3  27
ATOM     27  C   UNL     1      -2.052   4.459  25.595  0.00  0.00    +0.258 C 
BRANCH  27  28
ATOM     28  C   UNL     1      -0.699   4.397  24.914  0.00  0.00    +0.200 C 
BRANCH  28   4
ATOM      4  O   UNL     1      -0.258   3.044  24.875  0.00  0.00    -0.380 OA
ATOM     29  C   UNL     1      -0.213   2.474  26.175  0.00  0.00    +0.194 C 
ENDBRANCH  28   4
ENDBRANCH  27  28
ENDBRANCH   3  27
ENDBRANCH  23   3
ENDBRANCH  18  21
BRANCH  14   9
ATOM      5  N   UNL     1       0.360  -0.638  23.943  0.00  0.00    -0.287 NA
ATOM      9  C   UNL     1      -1.038  -1.016  23.655  0.00  0.00    +0.146 C 
ATOM     10  C   UNL     1      -1.390  -2.061  24.732  0.00  0.00    +0.030 C 
ATOM     11  C   UNL     1      -0.112  -2.248  25.537  0.00  0.00    +0.017 C 
ATOM     12  C   UNL     1       0.978  -1.797  24.585  0.00  0.00    +0.085 C 
BRANCH   5  13
ATOM     13  C   UNL     1       1.095  -0.210  22.759  0.00  0.00    +0.120 C 
BRANCH  13  15
ATOM      1 CL   UNL     1       7.029  -0.051  23.737  0.00  0.00    -0.084 Cl
ATOM     15  C   UNL     1       2.580  -0.170  23.005  0.00  0.00    -0.033 A 
ATOM     16  C   UNL     1       3.235  -1.295  23.505  0.00  0.00    +0.006 A 
ATOM     17  C   UNL     1       3.300   0.993  22.731  0.00  0.00    +0.006 A 
ATOM     19  C   UNL     1       4.611  -1.257  23.733  0.00  0.00    +0.020 A 
ATOM     20  C   UNL     1       4.676   1.030  22.958  0.00  0.00    +0.020 A 
ATOM     22  C   UNL     1       5.331  -0.095  23.460  0.00  0.00    +0.041 A 
ENDBRANCH  13  15
ENDBRANCH   5  13
ENDBRANCH  14   9
TORSDOF 8
ENDMDL
MODEL 4
REMARK VINA RESULT:      -0.3      2.530      4.730
REMARK  Name = 45783409
REMARK  9 active torsions:
REMARK  status: ('A' for Active; 'I' for Inactive)
REMARK    1  A    between atoms: O_3  and  C_23
REMARK    2  A    between atoms: O_3  and  C_27
REMARK    3  A    between atoms: O_4  and  C_28
REMARK    4  A    between atoms: O_4  and  C_29
REMARK    5  A    between atoms: N_5  and  C_13
REMARK    6  A    between atoms: C_9  and  C_14
REMARK    7  A    between atoms: C_13  and  C_15
REMARK    8  A    between atoms: C_18  and  C_21
REMARK    9  A    between atoms: C_27  and  C_28
REMARK                            x       y       z     vdW  Elec       q    Type
REMARK                         _______ _______ _______ _____ _____    ______ ____
ROOT
ATOM      2  O   UNL     1      -0.851  -2.328  25.570  0.00  0.00    -0.336 OA
ATOM      6  N   UNL     1      -1.173  -0.787  23.977  0.00  0.00    -0.190 NA
ATOM      7  N   UNL     1       0.417  -1.828  25.251  0.00  0.00    -0.056 NA
ATOM     14  C   UNL     1      -1.730  -1.662  24.775  0.00  0.00    +0.245 A 
ATOM     18  C   UNL     1       0.145  -0.923  24.305  0.00  0.00    +0.207 A 
ENDROOT
BRANCH  18  21
ATOM      8  N   UNL     1       2.382   1.936  23.467  0.00  0.00    -0.221 NA
ATOM     21  C   UNL     1       1.165  -0.143  23.667  0.00  0.00    +0.084 A 
ATOM     23  C   UNL     1       1.431   1.166  24.040  0.00  0.00    +0.226 A 
ATOM     24  C   UNL     1       1.924  -0.695  22.642  0.00  0.00    +0.018 A 
ATOM     25  C   UNL     1       2.912   0.068  22.028  0.00  0.00    +0.021 A 
ATOM     26  C   UNL     1       3.100   1.366  22.475  0.00  0.00    +0.114 A 
BRANCH  23   3
ATOM      3  O   UNL     1       0.709   1.753  25.047  0.00  0.00    -0.474 OA
BRANCH   3  27
ATOM     27  C   UNL     1      -0.287   2.690  24.656  0.00  0.00    +0.258 C 
BRANCH  27  28
ATOM     28  C   UNL     1      -1.111   3.072  25.870  0.00  0.00    +0.200 C 
BRANCH  28   4
ATOM      4  O   UNL     1      -1.486   4.441  25.765  0.00  0.00    -0.380 OA
ATOM     29  C   UNL     1      -0.768   5.101  24.732  0.00  0.00    +0.194 C 
ENDBRANCH  28   4
ENDBRANCH  27  28
ENDBRANCH   3  27
ENDBRANCH  23   3
ENDBRANCH  18  21
BRANCH  14   9
ATOM      5  N   UNL     1      -4.096  -0.958  24.463  0.00  0.00    -0.287 NA
ATOM      9  C   UNL     1      -3.191  -2.027  24.931  0.00  0.00    +0.146 C 
ATOM     10  C   UNL     1      -3.587  -3.264  24.102  0.00  0.00    +0.030 C 
ATOM     11  C   UNL     1      -4.759  -2.810  23.244  0.00  0.00    +0.017 C 
ATOM     12  C   UNL     1      -5.315  -1.620  24.002  0.00  0.00    +0.085 C 
BRANCH   5  13
ATOM     13  C   UNL     1      -4.370   0.048  25.482  0.00  0.00    +0.120 C 
BRANCH  13  15
ATOM      1 CL   UNL     1      -4.083   5.629  23.253  0.00  0.00    -0.084 Cl
ATOM     15  C   UNL     1      -4.297   1.445  24.925  0.00  0.00    -0.033 A 
ATOM     16  C   UNL     1      -3.678   1.674  23.696  0.00  0.00    +0.006 A 
ATOM     17  C   UNL     1      -4.850   2.509  25.638  0.00  0.00    +0.006 A 
ATOM     19  C   UNL     1      -3.611   2.969  23.180  0.00  0.00    +0.020 A 
ATOM     20  C   UNL     1      -4.783   3.803  25.121  0.00  0.00    +0.020 A 
ATOM     22  C   UNL     1      -4.163   4.033  23.892  0.00  0.00    +0.041 A 
ENDBRANCH  13  15
ENDBRANCH   5  13
ENDBRANCH  14   9
TORSDOF 8
ENDMDL
MODEL 5
REMARK VINA RESULT:       0.1      2.444      5.088
REMARK  Name = 45783409
REMARK  9 active torsions:
REMARK  status: ('A' for Active; 'I' for Inactive)
REMARK    1  A    between atoms: O_3  and  C_23
REMARK    2  A    between atoms: O_3  and  C_27
REMARK    3  A    between atoms: O_4  and  C_28
REMARK    4  A    between atoms: O_4  and  C_29
REMARK    5  A    between atoms: N_5  and  C_13
REMARK    6  A    between atoms: C_9  and  C_14
REMARK    7  A    between atoms: C_13  and  C_15
REMARK    8  A    between atoms: C_18  and  C_21
REMARK    9  A    between atoms: C_27  and  C_28
REMARK                            x       y       z     vdW  Elec       q    Type
REMARK                         _______ _______ _______ _____ _____    ______ ____
ROOT
ATOM      2  O   UNL     1      -1.126  -0.436  26.535  0.00  0.00    -0.336 OA
ATOM      6  N   UNL     1      -2.165   0.714  24.918  0.00  0.00    -0.190 NA
ATOM      7  N   UNL     1      -0.579   0.853  26.563  0.00  0.00    -0.056 NA
ATOM     14  C   UNL     1      -2.051  -0.432  25.539  0.00  0.00    +0.245 A 
ATOM     18  C   UNL     1      -1.243   1.472  25.582  0.00  0.00    +0.207 A 
ENDROOT
BRANCH  18  21
ATOM      8  N   UNL     1       0.332   4.511  24.107  0.00  0.00    -0.221 NA
ATOM     21  C   UNL     1      -1.007   2.844  25.237  0.00  0.00    +0.084 A 
ATOM     23  C   UNL     1       0.071   3.231  24.456  0.00  0.00    +0.226 A 
ATOM     24  C   UNL     1      -1.872   3.834  25.688  0.00  0.00    +0.018 A 
ATOM     25  C   UNL     1      -1.637   5.163  25.350  0.00  0.00    +0.021 A 
ATOM     26  C   UNL     1      -0.532   5.445  24.563  0.00  0.00    +0.114 A 
BRANCH  23   3
ATOM      3  O   UNL     1       0.952   2.291  23.987  0.00  0.00    -0.474 OA
BRANCH   3  27
ATOM     27  C   UNL     1       0.411   1.259  23.172  0.00  0.00    +0.258 C 
BRANCH  27  28
ATOM     28  C   UNL     1       1.312   0.042  23.251  0.00  0.00    +0.200 C 
BRANCH  28   4
ATOM      4  O   UNL     1       2.241   0.079  22.174  0.00  0.00    -0.380 OA
ATOM     29  C   UNL     1       3.511   0.553  22.598  0.00  0.00    +0.194 C 
ENDBRANCH  28   4
ENDBRANCH  27  28
ENDBRANCH   3  27
ENDBRANCH  23   3
ENDBRANCH  18  21
BRANCH  14   9
ATOM      5  N   UNL     1      -3.784  -1.627  24.212  0.00  0.00    -0.287 NA
ATOM      9  C   UNL     1      -2.795  -1.729  25.304  0.00  0.00    +0.146 C 
ATOM     10  C   UNL     1      -1.863  -2.881  24.881  0.00  0.00    +0.030 C 
ATOM     11  C   UNL     1      -2.442  -3.402  23.573  0.00  0.00    +0.017 C 
ATOM     12  C   UNL     1      -3.892  -2.963  23.626  0.00  0.00    +0.085 C 
BRANCH   5  13
ATOM     13  C   UNL     1      -5.075  -1.115  24.652  0.00  0.00    +0.120 C 
BRANCH  13  15
ATOM      1 CL   UNL     1      -5.076   4.886  25.078  0.00  0.00    -0.084 Cl
ATOM     15  C   UNL     1      -5.076   0.386  24.758  0.00  0.00    -0.033 A 
ATOM     16  C   UNL     1      -5.659   1.007  25.862  0.00  0.00    +0.006 A 
ATOM     17  C   UNL     1      -4.493   1.157  23.751  0.00  0.00    +0.006 A 
ATOM     19  C   UNL     1      -5.660   2.399  25.960  0.00  0.00    +0.020 A 
ATOM     20  C   UNL     1      -4.494   2.548  23.849  0.00  0.00    +0.020 A 
ATOM     22  C   UNL     1      -5.078   3.169  24.954  0.00  0.00    +0.041 A 
ENDBRANCH  13  15
ENDBRANCH   5  13
ENDBRANCH  14   9
TORSDOF 8
ENDMDL
MODEL 6
REMARK VINA RESULT:       0.7      1.707      5.892
REMARK  Name = 45783409
REMARK  9 active torsions:
REMARK  status: ('A' for Active; 'I' for Inactive)
REMARK    1  A    between atoms: O_3  and  C_23
REMARK    2  A    between atoms: O_3  and  C_27
REMARK    3  A    between atoms: O_4  and  C_28
REMARK    4  A    between atoms: O_4  and  C_29
REMARK    5  A    between atoms: N_5  and  C_13
REMARK    6  A    between atoms: C_9  and  C_14
REMARK    7  A    between atoms: C_13  and  C_15
REMARK    8  A    between atoms: C_18  and  C_21
REMARK    9  A    between atoms: C_27  and  C_28
REMARK                            x       y       z     vdW  Elec       q    Type
REMARK                         _______ _______ _______ _____ _____    ______ ____
ROOT
ATOM      2  O   UNL     1      -1.195   1.751  22.755  0.00  0.00    -0.336 OA
ATOM      6  N   UNL     1      -1.865   1.400  24.863  0.00  0.00    -0.190 NA
ATOM      7  N   UNL     1      -2.515   2.214  22.825  0.00  0.00    -0.056 NA
ATOM     14  C   UNL     1      -0.891   1.289  23.996  0.00  0.00    +0.245 A 
ATOM     18  C   UNL     1      -2.840   1.974  24.100  0.00  0.00    +0.207 A 
ENDROOT
BRANCH  18  21
ATOM      8  N   UNL     1      -5.675   3.928  25.524  0.00  0.00    -0.221 NA
ATOM     21  C   UNL     1      -4.130   2.292  24.639  0.00  0.00    +0.084 A 
ATOM     23  C   UNL     1      -4.473   3.583  25.013  0.00  0.00    +0.226 A 
ATOM     24  C   UNL     1      -5.083   1.293  24.802  0.00  0.00    +0.018 A 
ATOM     25  C   UNL     1      -6.332   1.610  25.326  0.00  0.00    +0.021 A 
ATOM     26  C   UNL     1      -6.576   2.930  25.667  0.00  0.00    +0.114 A 
BRANCH  23   3
ATOM      3  O   UNL     1      -3.567   4.603  24.871  0.00  0.00    -0.474 OA
BRANCH   3  27
ATOM     27  C   UNL     1      -2.469   4.612  25.773  0.00  0.00    +0.258 C 
BRANCH  27  28
ATOM     28  C   UNL     1      -1.267   5.229  25.085  0.00  0.00    +0.200 C 
BRANCH  28   4
ATOM      4  O   UNL     1      -0.200   4.288  25.078  0.00  0.00    -0.380 OA
ATOM     29  C   UNL     1      -0.217   3.472  26.241  0.00  0.00    +0.194 C 
ENDBRANCH  28   4
ENDBRANCH  27  28
ENDBRANCH   3  27
ENDBRANCH  23   3
ENDBRANCH  18  21
BRANCH  14   9
ATOM      5  N   UNL     1       0.620  -0.668  23.710  0.00  0.00    -0.287 NA
ATOM      9  C   UNL     1       0.502   0.726  24.184  0.00  0.00    +0.146 C 
ATOM     10  C   UNL     1       1.569   1.501  23.388  0.00  0.00    +0.030 C 
ATOM     11  C   UNL     1       2.275   0.452  22.541  0.00  0.00    +0.017 C 
ATOM     12  C   UNL     1       2.008  -0.843  23.283  0.00  0.00    +0.085 C 
BRANCH   5  13
ATOM     13  C   UNL     1       0.227  -1.650  24.711  0.00  0.00    +0.120 C 
BRANCH  13  15
ATOM      1 CL   UNL     1      -5.484  -3.407  24.009  0.00  0.00    -0.084 Cl
ATOM     15  C   UNL     1      -1.202  -2.089  24.535  0.00  0.00    -0.033 A 
ATOM     16  C   UNL     1      -1.521  -3.066  23.593  0.00  0.00    +0.006 A 
ATOM     17  C   UNL     1      -2.208  -1.518  25.316  0.00  0.00    +0.006 A 
ATOM     19  C   UNL     1      -2.845  -3.472  23.430  0.00  0.00    +0.020 A 
ATOM     20  C   UNL     1      -3.532  -1.925  25.152  0.00  0.00    +0.020 A 
ATOM     22  C   UNL     1      -3.851  -2.902  24.209  0.00  0.00    +0.041 A 
ENDBRANCH  13  15
ENDBRANCH   5  13
ENDBRANCH  14   9
TORSDOF 8
ENDMDL
MODEL 7
REMARK VINA RESULT:       0.8      2.497      4.937
REMARK  Name = 45783409
REMARK  9 active torsions:
REMARK  status: ('A' for Active; 'I' for Inactive)
REMARK    1  A    between atoms: O_3  and  C_23
REMARK    2  A    between atoms: O_3  and  C_27
REMARK    3  A    between atoms: O_4  and  C_28
REMARK    4  A    between atoms: O_4  and  C_29
REMARK    5  A    between atoms: N_5  and  C_13
REMARK    6  A    between atoms: C_9  and  C_14
REMARK    7  A    between atoms: C_13  and  C_15
REMARK    8  A    between atoms: C_18  and  C_21
REMARK    9  A    between atoms: C_27  and  C_28
REMARK                            x       y       z     vdW  Elec       q    Type
REMARK                         _______ _______ _______ _____ _____    ______ ____
ROOT
ATOM      2  O   UNL     1      -3.883   2.256  23.888  0.00  0.00    -0.336 OA
ATOM      6  N   UNL     1      -4.206   0.667  25.434  0.00  0.00    -0.190 NA
ATOM      7  N   UNL     1      -3.396   1.067  23.331  0.00  0.00    -0.056 NA
ATOM     14  C   UNL     1      -4.342   1.932  25.126  0.00  0.00    +0.245 A 
ATOM     18  C   UNL     1      -3.622   0.176  24.301  0.00  0.00    +0.207 A 
ENDROOT
BRANCH  18  21
ATOM      8  N   UNL     1      -1.609  -2.960  24.271  0.00  0.00    -0.221 NA
ATOM     21  C   UNL     1      -3.274  -1.209  24.173  0.00  0.00    +0.084 A 
ATOM     23  C   UNL     1      -1.981  -1.665  24.381  0.00  0.00    +0.226 A 
ATOM     24  C   UNL     1      -4.246  -2.143  23.831  0.00  0.00    +0.018 A 
ATOM     25  C   UNL     1      -3.901  -3.485  23.708  0.00  0.00    +0.021 A 
ATOM     26  C   UNL     1      -2.581  -3.838  23.938  0.00  0.00    +0.114 A 
BRANCH  23   3
ATOM      3  O   UNL     1      -0.988  -0.783  24.721  0.00  0.00    -0.474 OA
BRANCH   3  27
ATOM     27  C   UNL     1       0.238  -0.896  24.009  0.00  0.00    +0.258 C 
BRANCH  27  28
ATOM     28  C   UNL     1       0.118  -0.149  22.695  0.00  0.00    +0.200 C 
BRANCH  28   4
ATOM      4  O   UNL     1       1.194  -0.528  21.845  0.00  0.00    -0.380 OA
ATOM     29  C   UNL     1       2.448  -0.149  22.393  0.00  0.00    +0.194 C 
ENDBRANCH  28   4
ENDBRANCH  27  28
ENDBRANCH   3  27
ENDBRANCH  23   3
ENDBRANCH  18  21
BRANCH  14   9
ATOM      5  N   UNL     1      -4.287   4.362  25.661  0.00  0.00    -0.287 NA
ATOM      9  C   UNL     1      -4.928   3.062  25.945  0.00  0.00    +0.146 C 
ATOM     10  C   UNL     1      -6.424   3.292  25.656  0.00  0.00    +0.030 C 
ATOM     11  C   UNL     1      -6.534   4.762  25.276  0.00  0.00    +0.017 C 
ATOM     12  C   UNL     1      -5.303   5.385  25.903  0.00  0.00    +0.085 C 
BRANCH   5  13
ATOM     13  C   UNL     1      -3.080   4.590  26.445  0.00  0.00    +0.120 C 
BRANCH  13  15
ATOM      1 CL   UNL     1       1.778   2.201  23.822  0.00  0.00    -0.084 Cl
ATOM     15  C   UNL     1      -1.864   3.993  25.789  0.00  0.00    -0.033 A 
ATOM     16  C   UNL     1      -1.255   2.867  26.343  0.00  0.00    +0.006 A 
ATOM     17  C   UNL     1      -1.347   4.566  24.627  0.00  0.00    +0.006 A 
ATOM     19  C   UNL     1      -0.128   2.314  25.734  0.00  0.00    +0.020 A 
ATOM     20  C   UNL     1      -0.220   4.013  24.019  0.00  0.00    +0.020 A 
ATOM     22  C   UNL     1       0.390   2.886  24.573  0.00  0.00    +0.041 A 
ENDBRANCH  13  15
ENDBRANCH   5  13
ENDBRANCH  14   9
TORSDOF 8
ENDMDL
MODEL 8
REMARK VINA RESULT:       2.0      1.421      2.955
REMARK  Name = 45783409
REMARK  9 active torsions:
REMARK  status: ('A' for Active; 'I' for Inactive)
REMARK    1  A    between atoms: O_3  and  C_23
REMARK    2  A    between atoms: O_3  and  C_27
REMARK    3  A    between atoms: O_4  and  C_28
REMARK    4  A    between atoms: O_4  and  C_29
REMARK    5  A    between atoms: N_5  and  C_13
REMARK    6  A    between atoms: C_9  and  C_14
REMARK    7  A    between atoms: C_13  and  C_15
REMARK    8  A    between atoms: C_18  and  C_21
REMARK    9  A    between atoms: C_27  and  C_28
REMARK                            x       y       z     vdW  Elec       q    Type
REMARK                         _______ _______ _______ _____ _____    ______ ____
ROOT
ATOM      2  O   UNL     1      -0.553   3.391  25.195  0.00  0.00    -0.336 OA
ATOM      6  N   UNL     1      -1.856   1.614  24.792  0.00  0.00    -0.190 NA
ATOM      7  N   UNL     1       0.286   2.271  25.261  0.00  0.00    -0.056 NA
ATOM     14  C   UNL     1      -1.795   2.916  24.914  0.00  0.00    +0.245 A 
ATOM     18  C   UNL     1      -0.555   1.262  25.011  0.00  0.00    +0.207 A 
ENDROOT
BRANCH  18  21
ATOM      8  N   UNL     1       1.229  -1.845  23.987  0.00  0.00    -0.221 NA
ATOM     21  C   UNL     1      -0.129  -0.107  24.978  0.00  0.00    +0.084 A 
ATOM     23  C   UNL     1       0.799  -0.565  24.054  0.00  0.00    +0.226 A 
ATOM     24  C   UNL     1      -0.647  -1.020  25.889  0.00  0.00    +0.018 A 
ATOM     25  C   UNL     1      -0.228  -2.346  25.850  0.00  0.00    +0.021 A 
ATOM     26  C   UNL     1       0.704  -2.703  24.889  0.00  0.00    +0.114 A 
BRANCH  23   3
ATOM      3  O   UNL     1       1.339   0.297  23.136  0.00  0.00    -0.474 OA
BRANCH   3  27
ATOM     27  C   UNL     1       2.623  -0.036  22.625  0.00  0.00    +0.258 C 
BRANCH  27  28
ATOM     28  C   UNL     1       3.520   1.184  22.707  0.00  0.00    +0.200 C 
BRANCH  28   4
ATOM      4  O   UNL     1       4.687   0.853  23.452  0.00  0.00    -0.380 OA
ATOM     29  C   UNL     1       4.761  -0.540  23.713  0.00  0.00    +0.194 C 
ENDBRANCH  28   4
ENDBRANCH  27  28
ENDBRANCH   3  27
ENDBRANCH  23   3
ENDBRANCH  18  21
BRANCH  14   9
ATOM      5  N   UNL     1      -4.174   3.483  25.372  0.00  0.00    -0.287 NA
ATOM      9  C   UNL     1      -2.898   3.945  24.789  0.00  0.00    +0.146 C 
ATOM     10  C   UNL     1      -2.579   5.253  25.537  0.00  0.00    +0.030 C 
ATOM     11  C   UNL     1      -3.759   5.476  26.472  0.00  0.00    +0.017 C 
ATOM     12  C   UNL     1      -4.878   4.681  25.829  0.00  0.00    +0.085 C 
BRANCH   5  13
ATOM     13  C   UNL     1      -4.977   2.696  24.445  0.00  0.00    +0.120 C 
BRANCH  13  15
ATOM      1 CL   UNL     1      -3.453  -3.123  24.534  0.00  0.00    -0.084 Cl
ATOM     15  C   UNL     1      -4.595   1.240  24.467  0.00  0.00    -0.033 A 
ATOM     16  C   UNL     1      -4.690   0.513  25.653  0.00  0.00    +0.006 A 
ATOM     17  C   UNL     1      -4.146   0.620  23.301  0.00  0.00    +0.006 A 
ATOM     19  C   UNL     1      -4.335  -0.837  25.673  0.00  0.00    +0.020 A 
ATOM     20  C   UNL     1      -3.792  -0.729  23.322  0.00  0.00    +0.020 A 
ATOM     22  C   UNL     1      -3.886  -1.458  24.509  0.00  0.00    +0.041 A 
ENDBRANCH  13  15
ENDBRANCH   5  13
ENDBRANCH  14   9
TORSDOF 8
ENDMDL
MODEL 9
REMARK VINA RESULT:       2.5      2.121      4.172
REMARK  Name = 45783409
REMARK  9 active torsions:
REMARK  status: ('A' for Active; 'I' for Inactive)
REMARK    1  A    between atoms: O_3  and  C_23
REMARK    2  A    between atoms: O_3  and  C_27
REMARK    3  A    between atoms: O_4  and  C_28
REMARK    4  A    between atoms: O_4  and  C_29
REMARK    5  A    between atoms: N_5  and  C_13
REMARK    6  A    between atoms: C_9  and  C_14
REMARK    7  A    between atoms: C_13  and  C_15
REMARK    8  A    between atoms: C_18  and  C_21
REMARK    9  A    between atoms: C_27  and  C_28
REMARK                            x       y       z     vdW  Elec       q    Type
REMARK                         _______ _______ _______ _____ _____    ______ ____
ROOT
ATOM      2  O   UNL     1      -0.520   2.335  25.665  0.00  0.00    -0.336 OA
ATOM      6  N   UNL     1      -1.834   1.490  24.060  0.00  0.00    -0.190 NA
ATOM      7  N   UNL     1      -0.669   0.974  25.962  0.00  0.00    -0.056 NA
ATOM     14  C   UNL     1      -1.237   2.554  24.532  0.00  0.00    +0.245 A 
ATOM     18  C   UNL     1      -1.456   0.544  24.970  0.00  0.00    +0.207 A 
ENDROOT
BRANCH  18  21
ATOM      8  N   UNL     1      -1.485  -3.077  24.092  0.00  0.00    -0.221 NA
ATOM     21  C   UNL     1      -1.885  -0.820  24.861  0.00  0.00    +0.084 A 
ATOM     23  C   UNL     1      -1.121  -1.781  24.218  0.00  0.00    +0.226 A 
ATOM     24  C   UNL     1      -3.099  -1.214  25.411  0.00  0.00    +0.018 A 
ATOM     25  C   UNL     1      -3.508  -2.539  25.302  0.00  0.00    +0.021 A 
ATOM     26  C   UNL     1      -2.671  -3.423  24.640  0.00  0.00    +0.114 A 
BRANCH  23   3
ATOM      3  O   UNL     1       0.085  -1.442  23.660  0.00  0.00    -0.474 OA
BRANCH   3  27
ATOM     27  C   UNL     1       0.043  -0.793  22.395  0.00  0.00    +0.258 C 
BRANCH  27  28
ATOM     28  C   UNL     1       1.356  -0.070  22.167  0.00  0.00    +0.200 C 
BRANCH  28   4
ATOM      4  O   UNL     1       2.128  -0.118  23.361  0.00  0.00    -0.380 OA
ATOM     29  C   UNL     1       3.517  -0.221  23.080  0.00  0.00    +0.194 C 
ENDBRANCH  28   4
ENDBRANCH  27  28
ENDBRANCH   3  27
ENDBRANCH  23   3
ENDBRANCH  18  21
BRANCH  14   9
ATOM      5  N   UNL     1      -2.230   4.832  24.667  0.00  0.00    -0.287 NA
ATOM      9  C   UNL     1      -1.235   3.971  23.997  0.00  0.00    +0.146 C 
ATOM     10  C   UNL     1       0.111   4.687  24.214  0.00  0.00    +0.030 C 
ATOM     11  C   UNL     1      -0.235   5.968  24.960  0.00  0.00    +0.017 C 
ATOM     12  C   UNL     1      -1.696   6.192  24.623  0.00  0.00    +0.085 C 
BRANCH   5  13
ATOM     13  C   UNL     1      -3.558   4.745  24.074  0.00  0.00    +0.120 C 
BRANCH  13  15
ATOM      1 CL   UNL     1      -7.107   0.916  27.063  0.00  0.00    -0.084 Cl
ATOM     15  C   UNL     1      -4.445   3.786  24.822  0.00  0.00    -0.033 A 
ATOM     16  C   UNL     1      -4.846   4.080  26.125  0.00  0.00    +0.006 A 
ATOM     17  C   UNL     1      -4.866   2.605  24.211  0.00  0.00    +0.006 A 
ATOM     19  C   UNL     1      -5.669   3.191  26.818  0.00  0.00    +0.020 A 
ATOM     20  C   UNL     1      -5.688   1.717  24.904  0.00  0.00    +0.020 A 
ATOM     22  C   UNL     1      -6.089   2.010  26.209  0.00  0.00    +0.041 A 
ENDBRANCH  13  15
ENDBRANCH   5  13
ENDBRANCH  14   9
TORSDOF 8
ENDMDL
MODEL 10
REMARK VINA RESULT:       2.7      2.595      4.240
REMARK  Name = 45783409
REMARK  9 active torsions:
REMARK  status: ('A' for Active; 'I' for Inactive)
REMARK    1  A    between atoms: O_3  and  C_23
REMARK    2  A    between atoms: O_3  and  C_27
REMARK    3  A    between atoms: O_4  and  C_28
REMARK    4  A    between atoms: O_4  and  C_29
REMARK    5  A    between atoms: N_5  and  C_13
REMARK    6  A    between atoms: C_9  and  C_14
REMARK    7  A    between atoms: C_13  and  C_15
REMARK    8  A    between atoms: C_18  and  C_21
REMARK    9  A    between atoms: C_27  and  C_28
REMARK                            x       y       z     vdW  Elec       q    Type
REMARK                         _______ _______ _______ _____ _____    ______ ____
ROOT
ATOM      2  O   UNL     1      -3.480   1.633  23.254  0.00  0.00    -0.336 OA
ATOM      6  N   UNL     1      -2.092   0.939  24.869  0.00  0.00    -0.190 NA
ATOM      7  N   UNL     1      -2.238   1.432  22.638  0.00  0.00    -0.056 NA
ATOM     14  C   UNL     1      -3.307   1.320  24.565  0.00  0.00    +0.245 A 
ATOM     18  C   UNL     1      -1.473   1.022  23.655  0.00  0.00    +0.207 A 
ENDROOT
BRANCH  18  21
ATOM      8  N   UNL     1       1.649  -0.979  23.281  0.00  0.00    -0.221 NA
ATOM     21  C   UNL     1      -0.087   0.691  23.492  0.00  0.00    +0.084 A 
ATOM     23  C   UNL     1       0.354  -0.622  23.434  0.00  0.00    +0.226 A 
ATOM     24  C   UNL     1       0.862   1.702  23.387  0.00  0.00    +0.018 A 
ATOM     25  C   UNL     1       2.205   1.373  23.229  0.00  0.00    +0.021 A 
ATOM     26  C   UNL     1       2.542   0.031  23.181  0.00  0.00    +0.114 A 
BRANCH  23   3
ATOM      3  O   UNL     1      -0.544  -1.653  23.532  0.00  0.00    -0.474 OA
BRANCH   3  27
ATOM     27  C   UNL     1      -0.709  -2.235  24.819  0.00  0.00    +0.258 C 
BRANCH  27  28
ATOM     28  C   UNL     1      -2.185  -2.265  25.164  0.00  0.00    +0.200 C 
BRANCH  28   4
ATOM      4  O   UNL     1      -2.896  -2.905  24.110  0.00  0.00    -0.380 OA
ATOM     29  C   UNL     1      -4.106  -2.224  23.810  0.00  0.00    +0.194 C 
ENDBRANCH  28   4
ENDBRANCH  27  28
ENDBRANCH   3  27
ENDBRANCH  23   3
ENDBRANCH  18  21
BRANCH  14   9
ATOM      5  N   UNL     1      -5.082   2.824  25.448  0.00  0.00    -0.287 NA
ATOM      9  C   UNL     1      -4.522   1.458  25.457  0.00  0.00    +0.146 C 
ATOM     10  C   UNL     1      -5.689   0.554  25.017  0.00  0.00    +0.030 C 
ATOM     11  C   UNL     1      -6.875   1.492  24.843  0.00  0.00    +0.017 C 
ATOM     12  C   UNL     1      -6.515   2.686  25.705  0.00  0.00    +0.085 C 
BRANCH   5  13
ATOM     13  C   UNL     1      -4.437   3.716  26.403  0.00  0.00    +0.120 C 
BRANCH  13  15
ATOM      1 CL   UNL     1       0.842   5.749  24.355  0.00  0.00    -0.084 Cl
ATOM     15  C   UNL     1      -3.116   4.226  25.892  0.00  0.00    -0.033 A 
ATOM     16  C   UNL     1      -1.933   3.583  26.255  0.00  0.00    +0.006 A 
ATOM     17  C   UNL     1      -3.076   5.341  25.053  0.00  0.00    +0.006 A 
ATOM     19  C   UNL     1      -0.709   4.055  25.780  0.00  0.00    +0.020 A 
ATOM     20  C   UNL     1      -1.853   5.812  24.579  0.00  0.00    +0.020 A 
ATOM     22  C   UNL     1      -0.668   5.170  24.943  0.00  0.00    +0.041 A 
ENDBRANCH  13  15
ENDBRANCH   5  13
ENDBRANCH  14   9
TORSDOF 8
ENDMDL
