MODEL 1
REMARK VINA RESULT:       6.0      0.000      0.000
REMARK  Name = 51136834
REMARK  5 active torsions:
REMARK  status: ('A' for Active; 'I' for Inactive)
REMARK    1  A    between atoms: N_3  and  C_12
REMARK    2  A    between atoms: C_9  and  C_12
REMARK    3  A    between atoms: C_13  and  C_17
REMARK    4  A    between atoms: C_18  and  C_23
REMARK    5  A    between atoms: C_26  and  C_29
REMARK                            x       y       z     vdW  Elec       q    Type
REMARK                         _______ _______ _______ _____ _____    ______ ____
ROOT
ATOM      2  O   UNL     1       4.809   1.028  21.992  0.00  0.00    -0.276 OA
ATOM      5  N   UNL     1       0.567  -1.143  23.687  0.00  0.00    -0.312 N 
ATOM      7  N   UNL     1       3.278  -0.281  23.149  0.00  0.00    -0.299 N 
ATOM      8  N   UNL     1      -1.049  -2.847  23.939  0.00  0.00    -0.240 NA
ATOM     19  C   UNL     1       0.840   0.144  23.041  0.00  0.00    +0.125 C 
ATOM     20  C   UNL     1       1.700  -2.022  23.985  0.00  0.00    +0.125 C 
ATOM     21  C   UNL     1       2.164   0.096  22.281  0.00  0.00    +0.126 C 
ATOM     22  C   UNL     1       2.967  -1.206  24.242  0.00  0.00    +0.126 C 
ATOM     23  C   UNL     1      -2.955  -0.901  24.564  0.00  0.00    +0.027 A 
ATOM     24  C   UNL     1      -0.739  -1.531  23.973  0.00  0.00    +0.122 A 
ATOM     25  C   UNL     1      -1.648  -0.529  24.277  0.00  0.00    +0.055 A 
ATOM     26  C   UNL     1       4.546   0.250  22.911  0.00  0.00    +0.213 C 
ATOM     27  C   UNL     1      -3.312  -2.245  24.539  0.00  0.00    +0.031 A 
ATOM     28  C   UNL     1      -2.330  -3.170  24.224  0.00  0.00    +0.113 A 
ATOM     29  C   UNL     1       5.638  -0.183  23.858  0.00  0.00    +0.109 C 
ENDROOT
BRANCH  23  18
ATOM      1  O   UNL     1      -5.794   1.120  25.136  0.00  0.00    -0.336 OA
ATOM      4  N   UNL     1      -3.580   1.304  25.419  0.00  0.00    -0.190 NA
ATOM      6  N   UNL     1      -5.243  -0.087  24.689  0.00  0.00    -0.056 NA
ATOM     17  C   UNL     1      -4.748   1.882  25.549  0.00  0.00    +0.245 A 
ATOM     18  C   UNL     1      -3.935   0.098  24.887  0.00  0.00    +0.202 A 
BRANCH  17  13
ATOM      3  N   UNL     1      -4.364   4.335  25.379  0.00  0.00    -0.291 NA
ATOM     13  C   UNL     1      -5.084   3.257  26.087  0.00  0.00    +0.146 C 
ATOM     14  C   UNL     1      -5.221   5.518  25.447  0.00  0.00    +0.085 C 
ATOM     15  C   UNL     1      -6.574   3.610  25.926  0.00  0.00    +0.030 C 
ATOM     16  C   UNL     1      -6.590   4.930  25.170  0.00  0.00    +0.017 C 
BRANCH   3  12
ATOM     12  C   UNL     1      -3.034   4.588  25.918  0.00  0.00    +0.088 C 
BRANCH  12   9
ATOM      9  C   UNL     1      -1.972   4.259  24.921  0.00  0.00    +0.003 C 
ATOM     10  C   UNL     1      -0.663   4.991  24.974  0.00  0.00    +0.005 C 
ATOM     11  C   UNL     1      -0.732   3.548  25.379  0.00  0.00    +0.005 C 
ENDBRANCH  12   9
ENDBRANCH   3  12
ENDBRANCH  17  13
ENDBRANCH  23  18
TORSDOF 4
ENDMDL
