MODEL 1
REMARK VINA RESULT:       5.8      0.000      0.000
REMARK  Name = 51136607
REMARK  11 active torsions:
REMARK  status: ('A' for Active; 'I' for Inactive)
REMARK    1  A    between atoms: O_2  and  C_18
REMARK    2  A    between atoms: O_4  and  C_26
REMARK    3  A    between atoms: O_4  and  C_33
REMARK    4  A    between atoms: O_5  and  C_27
REMARK    5  A    between atoms: O_5  and  C_34
REMARK    6  A    between atoms: C_8  and  C_13
REMARK    7  A    between atoms: C_9  and  C_14
REMARK    8  A    between atoms: C_13  and  C_15
REMARK    9  A    between atoms: C_14  and  C_18
REMARK   10  A    between atoms: C_16  and  C_19
REMARK   11  A    between atoms: C_19  and  C_25
REMARK                            x       y       z     vdW  Elec       q    Type
REMARK                         _______ _______ _______ _____ _____    ______ ____
ROOT
ATOM      1  O   UNL     1      -3.642  -2.625  24.389  0.00  0.00    -0.275 OA
ATOM      6  N   UNL     1      -1.431  -1.963  24.652  0.00  0.00    -0.301 N 
ATOM      8  C   UNL     1       0.410  -0.325  24.334  0.00  0.00    +0.016 C 
ATOM      9  C   UNL     1       0.961  -1.221  23.195  0.00  0.00    +0.006 C 
ATOM     10  C   UNL     1      -0.154  -2.059  22.545  0.00  0.00    +0.023 C 
ATOM     11  C   UNL     1      -0.391  -1.181  25.332  0.00  0.00    +0.112 C 
ATOM     12  C   UNL     1      -0.940  -2.844  23.592  0.00  0.00    +0.108 C 
ATOM     16  C   UNL     1      -2.791  -1.937  24.959  0.00  0.00    +0.220 C 
ENDROOT
BRANCH   8  13
ATOM     13  C   UNL     1      -0.438   0.854  23.843  0.00  0.00    +0.061 C 
BRANCH  13  15
ATOM      7  N   UNL     1       0.328   1.907  25.861  0.00  0.00    -0.287 NA
ATOM     15  C   UNL     1      -0.584   1.875  24.946  0.00  0.00    +0.044 C 
ATOM     17  C   UNL     1      -1.760   2.781  24.932  0.00  0.00    +0.003 A 
ATOM     20  C   UNL     1      -2.074   3.429  26.134  0.00  0.00    -0.033 A 
ATOM     21  C   UNL     1      -1.223   3.159  27.339  0.00  0.00    +0.059 C 
ATOM     22  C   UNL     1       0.217   2.938  26.899  0.00  0.00    +0.146 C 
ATOM     23  C   UNL     1      -2.544   2.983  23.793  0.00  0.00    +0.059 A 
ATOM     24  C   UNL     1      -3.193   4.263  26.196  0.00  0.00    +0.053 A 
ATOM     26  C   UNL     1      -3.650   3.830  23.862  0.00  0.00    +0.162 A 
ATOM     27  C   UNL     1      -3.976   4.466  25.060  0.00  0.00    +0.162 A 
BRANCH  26   4
ATOM      4  O   UNL     1      -4.411   4.027  22.748  0.00  0.00    -0.491 OA
ATOM     33  C   UNL     1      -3.972   3.398  21.545  0.00  0.00    +0.277 C 
ENDBRANCH  26   4
BRANCH  27   5
ATOM      5  O   UNL     1      -5.060   5.288  25.134  0.00  0.00    -0.491 OA
ATOM     34  C   UNL     1      -6.223   4.770  25.778  0.00  0.00    +0.277 C 
ENDBRANCH  27   5
ENDBRANCH  13  15
ENDBRANCH   8  13
BRANCH   9  14
ATOM     14  C   UNL     1       1.734  -0.438  22.135  0.00  0.00    +0.124 C 
BRANCH  14  18
ATOM      3  O   UNL     1       3.573   1.130  22.455  0.00  0.00    -0.251 OA
ATOM     18  C   UNL     1       3.062   0.039  22.656  0.00  0.00    +0.305 C 
BRANCH  18   2
ATOM      2  O   UNL     1       3.637  -0.938  23.405  0.00  0.00    -0.481 OA
ATOM     35  H   UNL     1       3.497  -0.793  24.365  0.00  0.00    +0.295 HD
ENDBRANCH  18   2
ENDBRANCH  14  18
ENDBRANCH   9  14
BRANCH  16  19
ATOM     19  C   UNL     1      -3.218  -1.001  26.061  0.00  0.00    +0.131 C 
BRANCH  19  25
ATOM     25  C   UNL     1      -4.278  -0.063  25.574  0.00  0.00    -0.039 A 
ATOM     28  C   UNL     1      -4.524   0.063  24.207  0.00  0.00    +0.004 A 
ATOM     29  C   UNL     1      -5.019   0.687  26.488  0.00  0.00    +0.004 A 
ATOM     30  C   UNL     1      -5.512   0.937  23.753  0.00  0.00    +0.000 A 
ATOM     31  C   UNL     1      -6.007   1.562  26.035  0.00  0.00    +0.000 A 
ATOM     32  C   UNL     1      -6.253   1.687  24.668  0.00  0.00    +0.000 A 
ENDBRANCH  19  25
ENDBRANCH  16  19
TORSDOF 9
ENDMDL
MODEL 2
REMARK VINA RESULT:       6.0      1.770      5.947
REMARK  Name = 51136607
REMARK  11 active torsions:
REMARK  status: ('A' for Active; 'I' for Inactive)
REMARK    1  A    between atoms: O_2  and  C_18
REMARK    2  A    between atoms: O_4  and  C_26
REMARK    3  A    between atoms: O_4  and  C_33
REMARK    4  A    between atoms: O_5  and  C_27
REMARK    5  A    between atoms: O_5  and  C_34
REMARK    6  A    between atoms: C_8  and  C_13
REMARK    7  A    between atoms: C_9  and  C_14
REMARK    8  A    between atoms: C_13  and  C_15
REMARK    9  A    between atoms: C_14  and  C_18
REMARK   10  A    between atoms: C_16  and  C_19
REMARK   11  A    between atoms: C_19  and  C_25
REMARK                            x       y       z     vdW  Elec       q    Type
REMARK                         _______ _______ _______ _____ _____    ______ ____
ROOT
ATOM      1  O   UNL     1      -6.013   4.046  25.004  0.00  0.00    -0.275 OA
ATOM      6  N   UNL     1      -5.163   1.980  25.641  0.00  0.00    -0.301 N 
ATOM      8  C   UNL     1      -3.563   0.099  25.368  0.00  0.00    +0.016 C 
ATOM      9  C   UNL     1      -4.701  -0.727  24.718  0.00  0.00    +0.006 C 
ATOM     10  C   UNL     1      -5.756   0.181  24.063  0.00  0.00    +0.023 C 
ATOM     11  C   UNL     1      -4.158   1.152  26.320  0.00  0.00    +0.112 C 
ATOM     12  C   UNL     1      -6.270   1.232  25.044  0.00  0.00    +0.108 C 
ATOM     16  C   UNL     1      -5.142   3.371  25.559  0.00  0.00    +0.220 C 
ENDROOT
BRANCH   8  13
ATOM     13  C   UNL     1      -2.622   0.767  24.358  0.00  0.00    +0.061 C 
BRANCH  13  15
ATOM      7  N   UNL     1      -1.419   1.656  26.236  0.00  0.00    -0.287 NA
ATOM     15  C   UNL     1      -1.338   1.171  25.041  0.00  0.00    +0.044 C 
ATOM     17  C   UNL     1      -0.056   1.000  24.312  0.00  0.00    +0.003 A 
ATOM     20  C   UNL     1       1.045   1.723  24.792  0.00  0.00    -0.033 A 
ATOM     21  C   UNL     1       0.855   2.617  25.981  0.00  0.00    +0.059 C 
ATOM     22  C   UNL     1      -0.167   1.993  26.922  0.00  0.00    +0.146 C 
ATOM     23  C   UNL     1       0.072   0.178  23.191  0.00  0.00    +0.059 A 
ATOM     24  C   UNL     1       2.270   1.637  24.127  0.00  0.00    +0.053 A 
ATOM     26  C   UNL     1       1.304   0.087  22.542  0.00  0.00    +0.162 A 
ATOM     27  C   UNL     1       2.399   0.816  23.006  0.00  0.00    +0.162 A 
BRANCH  26   4
ATOM      4  O   UNL     1       1.425  -0.719  21.449  0.00  0.00    -0.491 OA
ATOM     33  C   UNL     1       0.329  -0.742  20.537  0.00  0.00    +0.277 C 
ENDBRANCH  26   4
BRANCH  27   5
ATOM      5  O   UNL     1       3.602   0.737  22.371  0.00  0.00    -0.491 OA
ATOM     34  C   UNL     1       4.741   0.436  23.175  0.00  0.00    +0.277 C 
ENDBRANCH  27   5
ENDBRANCH  13  15
ENDBRANCH   8  13
BRANCH   9  14
ATOM     14  C   UNL     1      -4.194  -1.770  23.722  0.00  0.00    +0.124 C 
BRANCH  14  18
ATOM      3  O   UNL     1      -1.936  -2.665  23.921  0.00  0.00    -0.251 OA
ATOM     18  C   UNL     1      -3.093  -2.608  24.309  0.00  0.00    +0.305 C 
BRANCH  18   2
ATOM      2  O   UNL     1      -3.571  -3.318  25.364  0.00  0.00    -0.481 OA
ATOM     35  H   UNL     1      -4.547  -3.252  25.438  0.00  0.00    +0.295 HD
ENDBRANCH  18   2
ENDBRANCH  14  18
ENDBRANCH   9  14
BRANCH  16  19
ATOM     19  C   UNL     1      -3.966   4.068  26.197  0.00  0.00    +0.131 C 
BRANCH  19  25
ATOM     25  C   UNL     1      -2.856   4.243  25.207  0.00  0.00    -0.039 A 
ATOM     28  C   UNL     1      -2.954   3.666  23.940  0.00  0.00    +0.004 A 
ATOM     29  C   UNL     1      -1.724   4.982  25.551  0.00  0.00    +0.004 A 
ATOM     30  C   UNL     1      -1.920   3.829  23.018  0.00  0.00    +0.000 A 
ATOM     31  C   UNL     1      -0.690   5.145  24.629  0.00  0.00    +0.000 A 
ATOM     32  C   UNL     1      -0.788   4.567  23.363  0.00  0.00    +0.000 A 
ENDBRANCH  19  25
ENDBRANCH  16  19
TORSDOF 9
ENDMDL
MODEL 3
REMARK VINA RESULT:       6.5      1.883      4.777
REMARK  Name = 51136607
REMARK  11 active torsions:
REMARK  status: ('A' for Active; 'I' for Inactive)
REMARK    1  A    between atoms: O_2  and  C_18
REMARK    2  A    between atoms: O_4  and  C_26
REMARK    3  A    between atoms: O_4  and  C_33
REMARK    4  A    between atoms: O_5  and  C_27
REMARK    5  A    between atoms: O_5  and  C_34
REMARK    6  A    between atoms: C_8  and  C_13
REMARK    7  A    between atoms: C_9  and  C_14
REMARK    8  A    between atoms: C_13  and  C_15
REMARK    9  A    between atoms: C_14  and  C_18
REMARK   10  A    between atoms: C_16  and  C_19
REMARK   11  A    between atoms: C_19  and  C_25
REMARK                            x       y       z     vdW  Elec       q    Type
REMARK                         _______ _______ _______ _____ _____    ______ ____
ROOT
ATOM      1  O   UNL     1       1.669   1.554  25.106  0.00  0.00    -0.275 OA
ATOM      6  N   UNL     1       0.377   0.031  23.920  0.00  0.00    -0.301 N 
ATOM      8  C   UNL     1      -1.779  -1.118  23.469  0.00  0.00    +0.016 C 
ATOM      9  C   UNL     1      -1.222  -2.370  24.194  0.00  0.00    +0.006 C 
ATOM     10  C   UNL     1      -0.148  -1.992  25.228  0.00  0.00    +0.023 C 
ATOM     11  C   UNL     1      -0.619  -0.289  22.890  0.00  0.00    +0.112 C 
ATOM     12  C   UNL     1       0.947  -1.131  24.603  0.00  0.00    +0.108 C 
ATOM     16  C   UNL     1       0.811   1.313  24.253  0.00  0.00    +0.220 C 
ENDROOT
BRANCH   8  13
ATOM     13  C   UNL     1      -2.677  -0.237  24.346  0.00  0.00    +0.061 C 
BRANCH  13  15
ATOM      7  N   UNL     1      -2.757   1.066  22.331  0.00  0.00    -0.287 NA
ATOM     15  C   UNL     1      -3.149   0.960  23.558  0.00  0.00    +0.044 C 
ATOM     17  C   UNL     1      -4.026   1.955  24.225  0.00  0.00    +0.003 A 
ATOM     20  C   UNL     1      -4.125   3.216  23.620  0.00  0.00    -0.033 A 
ATOM     21  C   UNL     1      -3.342   3.477  22.369  0.00  0.00    +0.059 C 
ATOM     22  C   UNL     1      -3.264   2.197  21.547  0.00  0.00    +0.146 C 
ATOM     23  C   UNL     1      -4.718   1.680  25.406  0.00  0.00    +0.059 A 
ATOM     24  C   UNL     1      -4.903   4.209  24.220  0.00  0.00    +0.053 A 
ATOM     26  C   UNL     1      -5.504   2.674  25.990  0.00  0.00    +0.162 A 
ATOM     27  C   UNL     1      -5.594   3.936  25.401  0.00  0.00    +0.162 A 
BRANCH  26   4
ATOM      4  O   UNL     1      -6.179   2.401  27.142  0.00  0.00    -0.491 OA
ATOM     33  C   UNL     1      -6.917   1.181  27.186  0.00  0.00    +0.277 C 
ENDBRANCH  26   4
BRANCH  27   5
ATOM      5  O   UNL     1      -6.355   4.912  25.971  0.00  0.00    -0.491 OA
ATOM     34  C   UNL     1      -6.667   6.046  25.163  0.00  0.00    +0.277 C 
ENDBRANCH  27   5
ENDBRANCH  13  15
ENDBRANCH   8  13
BRANCH   9  14
ATOM     14  C   UNL     1      -2.312  -3.226  24.838  0.00  0.00    +0.124 C 
BRANCH  14  18
ATOM      3  O   UNL     1      -4.441  -2.682  23.783  0.00  0.00    -0.251 OA
ATOM     18  C   UNL     1      -3.665  -2.582  24.722  0.00  0.00    +0.305 C 
BRANCH  18   2
ATOM      2  O   UNL     1      -3.920  -1.847  25.836  0.00  0.00    -0.481 OA
ATOM     35  H   UNL     1      -4.456  -2.346  26.489  0.00  0.00    +0.295 HD
ENDBRANCH  18   2
ENDBRANCH  14  18
ENDBRANCH   9  14
BRANCH  16  19
ATOM     19  C   UNL     1       0.173   2.458  23.507  0.00  0.00    +0.131 C 
BRANCH  19  25
ATOM     25  C   UNL     1      -0.611   3.326  24.443  0.00  0.00    -0.039 A 
ATOM     28  C   UNL     1      -0.779   4.681  24.160  0.00  0.00    +0.004 A 
ATOM     29  C   UNL     1      -1.170   2.779  25.598  0.00  0.00    +0.004 A 
ATOM     30  C   UNL     1      -1.508   5.490  25.032  0.00  0.00    +0.000 A 
ATOM     31  C   UNL     1      -1.899   3.587  26.470  0.00  0.00    +0.000 A 
ATOM     32  C   UNL     1      -2.067   4.943  26.187  0.00  0.00    +0.000 A 
ENDBRANCH  19  25
ENDBRANCH  16  19
TORSDOF 9
ENDMDL
MODEL 4
REMARK VINA RESULT:       7.1      1.781      2.528
REMARK  Name = 51136607
REMARK  11 active torsions:
REMARK  status: ('A' for Active; 'I' for Inactive)
REMARK    1  A    between atoms: O_2  and  C_18
REMARK    2  A    between atoms: O_4  and  C_26
REMARK    3  A    between atoms: O_4  and  C_33
REMARK    4  A    between atoms: O_5  and  C_27
REMARK    5  A    between atoms: O_5  and  C_34
REMARK    6  A    between atoms: C_8  and  C_13
REMARK    7  A    between atoms: C_9  and  C_14
REMARK    8  A    between atoms: C_13  and  C_15
REMARK    9  A    between atoms: C_14  and  C_18
REMARK   10  A    between atoms: C_16  and  C_19
REMARK   11  A    between atoms: C_19  and  C_25
REMARK                            x       y       z     vdW  Elec       q    Type
REMARK                         _______ _______ _______ _____ _____    ______ ____
ROOT
ATOM      1  O   UNL     1      -2.188   0.637  20.881  0.00  0.00    -0.275 OA
ATOM      6  N   UNL     1      -0.546   0.036  22.410  0.00  0.00    -0.301 N 
ATOM      8  C   UNL     1       1.279   0.612  23.995  0.00  0.00    +0.016 C 
ATOM      9  C   UNL     1       2.303   0.151  22.926  0.00  0.00    +0.006 C 
ATOM     10  C   UNL     1       1.734   0.283  21.504  0.00  0.00    +0.023 C 
ATOM     11  C   UNL     1      -0.060  -0.119  23.787  0.00  0.00    +0.112 C 
ATOM     12  C   UNL     1       0.385  -0.421  21.377  0.00  0.00    +0.108 C 
ATOM     16  C   UNL     1      -1.792   0.542  22.046  0.00  0.00    +0.220 C 
ENDROOT
BRANCH   8  13
ATOM     13  C   UNL     1       1.057   2.129  24.030  0.00  0.00    +0.061 C 
BRANCH  13  15
ATOM      7  N   UNL     1       1.206   2.394  26.412  0.00  0.00    -0.287 NA
ATOM     15  C   UNL     1       0.467   2.531  25.361  0.00  0.00    +0.044 C 
ATOM     17  C   UNL     1      -0.923   3.051  25.400  0.00  0.00    +0.003 A 
ATOM     20  C   UNL     1      -1.565   3.045  26.645  0.00  0.00    -0.033 A 
ATOM     21  C   UNL     1      -0.825   2.508  27.834  0.00  0.00    +0.059 C 
ATOM     22  C   UNL     1       0.655   2.840  27.696  0.00  0.00    +0.146 C 
ATOM     23  C   UNL     1      -1.587   3.517  24.263  0.00  0.00    +0.059 A 
ATOM     24  C   UNL     1      -2.888   3.485  26.741  0.00  0.00    +0.053 A 
ATOM     26  C   UNL     1      -2.902   3.968  24.372  0.00  0.00    +0.162 A 
ATOM     27  C   UNL     1      -3.552   3.950  25.606  0.00  0.00    +0.162 A 
BRANCH  26   4
ATOM      4  O   UNL     1      -3.546   4.424  23.260  0.00  0.00    -0.491 OA
ATOM     33  C   UNL     1      -4.059   3.444  22.361  0.00  0.00    +0.277 C 
ENDBRANCH  26   4
BRANCH  27   5
ATOM      5  O   UNL     1      -4.840   4.382  25.716  0.00  0.00    -0.491 OA
ATOM     34  C   UNL     1      -5.863   3.390  25.666  0.00  0.00    +0.277 C 
ENDBRANCH  27   5
ENDBRANCH  13  15
ENDBRANCH   8  13
BRANCH   9  14
ATOM     14  C   UNL     1       3.650   0.865  23.036  0.00  0.00    +0.124 C 
BRANCH  14  18
ATOM      3  O   UNL     1       5.953   0.133  23.355  0.00  0.00    -0.251 OA
ATOM     18  C   UNL     1       4.752  -0.086  23.412  0.00  0.00    +0.305 C 
BRANCH  18   2
ATOM      2  O   UNL     1       4.218  -1.260  23.838  0.00  0.00    -0.481 OA
ATOM     35  H   UNL     1       3.495  -1.567  23.252  0.00  0.00    +0.295 HD
ENDBRANCH  18   2
ENDBRANCH  14  18
ENDBRANCH   9  14
BRANCH  16  19
ATOM     19  C   UNL     1      -2.692   0.995  23.168  0.00  0.00    +0.131 C 
BRANCH  19  25
ATOM     25  C   UNL     1      -3.048  -0.157  24.056  0.00  0.00    -0.039 A 
ATOM     28  C   UNL     1      -2.753  -0.104  25.419  0.00  0.00    +0.004 A 
ATOM     29  C   UNL     1      -3.672  -1.284  23.520  0.00  0.00    +0.004 A 
ATOM     30  C   UNL     1      -3.084  -1.178  26.246  0.00  0.00    +0.000 A 
ATOM     31  C   UNL     1      -4.003  -2.358  24.347  0.00  0.00    +0.000 A 
ATOM     32  C   UNL     1      -3.708  -2.305  25.710  0.00  0.00    +0.000 A 
ENDBRANCH  19  25
ENDBRANCH  16  19
TORSDOF 9
ENDMDL
MODEL 5
REMARK VINA RESULT:       7.4      2.105      7.360
REMARK  Name = 51136607
REMARK  11 active torsions:
REMARK  status: ('A' for Active; 'I' for Inactive)
REMARK    1  A    between atoms: O_2  and  C_18
REMARK    2  A    between atoms: O_4  and  C_26
REMARK    3  A    between atoms: O_4  and  C_33
REMARK    4  A    between atoms: O_5  and  C_27
REMARK    5  A    between atoms: O_5  and  C_34
REMARK    6  A    between atoms: C_8  and  C_13
REMARK    7  A    between atoms: C_9  and  C_14
REMARK    8  A    between atoms: C_13  and  C_15
REMARK    9  A    between atoms: C_14  and  C_18
REMARK   10  A    between atoms: C_16  and  C_19
REMARK   11  A    between atoms: C_19  and  C_25
REMARK                            x       y       z     vdW  Elec       q    Type
REMARK                         _______ _______ _______ _____ _____    ______ ____
ROOT
ATOM      1  O   UNL     1       0.133   4.877  24.949  0.00  0.00    -0.275 OA
ATOM      6  N   UNL     1      -1.780   3.873  25.804  0.00  0.00    -0.301 N 
ATOM      8  C   UNL     1      -3.692   2.298  25.611  0.00  0.00    +0.016 C 
ATOM      9  C   UNL     1      -4.618   3.512  25.345  0.00  0.00    +0.006 C 
ATOM     10  C   UNL     1      -3.843   4.690  24.730  0.00  0.00    +0.023 C 
ATOM     11  C   UNL     1      -2.471   2.742  26.436  0.00  0.00    +0.112 C 
ATOM     12  C   UNL     1      -2.619   5.049  25.568  0.00  0.00    +0.108 C 
ATOM     16  C   UNL     1      -0.431   3.903  25.456  0.00  0.00    +0.220 C 
ENDROOT
BRANCH   8  13
ATOM     13  C   UNL     1      -3.239   1.570  24.340  0.00  0.00    +0.061 C 
BRANCH  13  15
ATOM      7  N   UNL     1      -3.882  -0.608  25.119  0.00  0.00    -0.287 NA
ATOM     15  C   UNL     1      -2.925   0.128  24.659  0.00  0.00    +0.044 C 
ATOM     17  C   UNL     1      -1.544  -0.370  24.437  0.00  0.00    +0.003 A 
ATOM     20  C   UNL     1      -1.189  -1.558  25.089  0.00  0.00    -0.033 A 
ATOM     21  C   UNL     1      -2.204  -2.231  25.963  0.00  0.00    +0.059 C 
ATOM     22  C   UNL     1      -3.593  -2.024  25.372  0.00  0.00    +0.146 C 
ATOM     23  C   UNL     1      -0.618   0.302  23.636  0.00  0.00    +0.059 A 
ATOM     24  C   UNL     1       0.109  -2.058  24.953  0.00  0.00    +0.053 A 
ATOM     26  C   UNL     1       0.670  -0.212  23.495  0.00  0.00    +0.162 A 
ATOM     27  C   UNL     1       1.034  -1.388  24.153  0.00  0.00    +0.162 A 
BRANCH  26   4
ATOM      4  O   UNL     1       1.570   0.445  22.710  0.00  0.00    -0.491 OA
ATOM     33  C   UNL     1       1.875  -0.140  21.445  0.00  0.00    +0.277 C 
ENDBRANCH  26   4
BRANCH  27   5
ATOM      5  O   UNL     1       2.294  -1.890  24.024  0.00  0.00    -0.491 OA
ATOM     34  C   UNL     1       3.350  -0.950  23.833  0.00  0.00    +0.277 C 
ENDBRANCH  27   5
ENDBRANCH  13  15
ENDBRANCH   8  13
BRANCH   9  14
ATOM     14  C   UNL     1      -5.836   3.164  24.491  0.00  0.00    +0.124 C 
BRANCH  14  18
ATOM      3  O   UNL     1      -6.934   0.997  24.280  0.00  0.00    -0.251 OA
ATOM     18  C   UNL     1      -6.511   1.910  24.974  0.00  0.00    +0.305 C 
BRANCH  18   2
ATOM      2  O   UNL     1      -6.593   1.927  26.330  0.00  0.00    -0.481 OA
ATOM     35  H   UNL     1      -6.714   1.027  26.700  0.00  0.00    +0.295 HD
ENDBRANCH  18   2
ENDBRANCH  14  18
ENDBRANCH   9  14
BRANCH  16  19
ATOM     19  C   UNL     1       0.366   2.651  25.728  0.00  0.00    +0.131 C 
BRANCH  19  25
ATOM     25  C   UNL     1       0.908   2.664  27.123  0.00  0.00    -0.039 A 
ATOM     28  C   UNL     1       2.186   3.168  27.370  0.00  0.00    +0.004 A 
ATOM     29  C   UNL     1       0.138   2.171  28.176  0.00  0.00    +0.004 A 
ATOM     30  C   UNL     1       2.692   3.180  28.670  0.00  0.00    +0.000 A 
ATOM     31  C   UNL     1       0.644   2.182  29.476  0.00  0.00    +0.000 A 
ATOM     32  C   UNL     1       1.921   2.686  29.723  0.00  0.00    +0.000 A 
ENDBRANCH  19  25
ENDBRANCH  16  19
TORSDOF 9
ENDMDL
MODEL 6
REMARK VINA RESULT:       7.9      2.122      5.767
REMARK  Name = 51136607
REMARK  11 active torsions:
REMARK  status: ('A' for Active; 'I' for Inactive)
REMARK    1  A    between atoms: O_2  and  C_18
REMARK    2  A    between atoms: O_4  and  C_26
REMARK    3  A    between atoms: O_4  and  C_33
REMARK    4  A    between atoms: O_5  and  C_27
REMARK    5  A    between atoms: O_5  and  C_34
REMARK    6  A    between atoms: C_8  and  C_13
REMARK    7  A    between atoms: C_9  and  C_14
REMARK    8  A    between atoms: C_13  and  C_15
REMARK    9  A    between atoms: C_14  and  C_18
REMARK   10  A    between atoms: C_16  and  C_19
REMARK   11  A    between atoms: C_19  and  C_25
REMARK                            x       y       z     vdW  Elec       q    Type
REMARK                         _______ _______ _______ _____ _____    ______ ____
ROOT
ATOM      1  O   UNL     1      -7.035   1.309  26.019  0.00  0.00    -0.275 OA
ATOM      6  N   UNL     1      -5.359   2.298  24.752  0.00  0.00    -0.301 N 
ATOM      8  C   UNL     1      -2.971   2.573  24.123  0.00  0.00    +0.016 C 
ATOM      9  C   UNL     1      -2.949   3.897  24.928  0.00  0.00    +0.006 C 
ATOM     10  C   UNL     1      -4.001   3.893  26.051  0.00  0.00    +0.023 C 
ATOM     11  C   UNL     1      -4.402   2.279  23.638  0.00  0.00    +0.112 C 
ATOM     12  C   UNL     1      -5.386   3.547  25.513  0.00  0.00    +0.108 C 
ATOM     16  C   UNL     1      -6.221   1.257  25.094  0.00  0.00    +0.220 C 
ENDROOT
BRANCH   8  13
ATOM     13  C   UNL     1      -2.411   1.369  24.889  0.00  0.00    +0.061 C 
BRANCH  13  15
ATOM      7  N   UNL     1      -0.860   2.263  26.489  0.00  0.00    -0.287 NA
ATOM     15  C   UNL     1      -1.005   1.664  25.353  0.00  0.00    +0.044 C 
ATOM     17  C   UNL     1       0.134   1.264  24.489  0.00  0.00    +0.003 A 
ATOM     20  C   UNL     1       1.367   1.879  24.742  0.00  0.00    -0.033 A 
ATOM     21  C   UNL     1       1.451   2.895  25.842  0.00  0.00    +0.059 C 
ATOM     22  C   UNL     1       0.507   2.497  26.968  0.00  0.00    +0.146 C 
ATOM     23  C   UNL     1       0.006   0.332  23.456  0.00  0.00    +0.059 A 
ATOM     24  C   UNL     1       2.468   1.575  23.938  0.00  0.00    +0.053 A 
ATOM     26  C   UNL     1       1.115   0.024  22.667  0.00  0.00    +0.162 A 
ATOM     27  C   UNL     1       2.342   0.645  22.905  0.00  0.00    +0.162 A 
BRANCH  26   4
ATOM      4  O   UNL     1       0.987  -0.887  21.662  0.00  0.00    -0.491 OA
ATOM     33  C   UNL     1       0.371  -0.439  20.456  0.00  0.00    +0.277 C 
ENDBRANCH  26   4
BRANCH  27   5
ATOM      5  O   UNL     1       3.426   0.353  22.133  0.00  0.00    -0.491 OA
ATOM     34  C   UNL     1       4.683   0.236  22.798  0.00  0.00    +0.277 C 
ENDBRANCH  27   5
ENDBRANCH  13  15
ENDBRANCH   8  13
BRANCH   9  14
ATOM     14  C   UNL     1      -1.568   4.240  25.485  0.00  0.00    +0.124 C 
BRANCH  14  18
ATOM      3  O   UNL     1      -0.001   5.024  23.790  0.00  0.00    -0.251 OA
ATOM     18  C   UNL     1      -0.860   5.253  24.627  0.00  0.00    +0.305 C 
BRANCH  18   2
ATOM      2  O   UNL     1      -1.319   6.498  24.918  0.00  0.00    -0.481 OA
ATOM     35  H   UNL     1      -1.487   6.612  25.878  0.00  0.00    +0.295 HD
ENDBRANCH  18   2
ENDBRANCH  14  18
ENDBRANCH   9  14
BRANCH  16  19
ATOM     19  C   UNL     1      -6.129   0.002  24.263  0.00  0.00    +0.131 C 
BRANCH  19  25
ATOM     25  C   UNL     1      -4.907  -0.783  24.627  0.00  0.00    -0.039 A 
ATOM     28  C   UNL     1      -4.387  -1.718  23.732  0.00  0.00    +0.004 A 
ATOM     29  C   UNL     1      -4.290  -0.580  25.862  0.00  0.00    +0.004 A 
ATOM     30  C   UNL     1      -3.249  -2.450  24.072  0.00  0.00    +0.000 A 
ATOM     31  C   UNL     1      -3.152  -1.312  26.201  0.00  0.00    +0.000 A 
ATOM     32  C   UNL     1      -2.632  -2.247  25.307  0.00  0.00    +0.000 A 
ENDBRANCH  19  25
ENDBRANCH  16  19
TORSDOF 9
ENDMDL
MODEL 7
REMARK VINA RESULT:       8.2      2.211      6.308
REMARK  Name = 51136607
REMARK  11 active torsions:
REMARK  status: ('A' for Active; 'I' for Inactive)
REMARK    1  A    between atoms: O_2  and  C_18
REMARK    2  A    between atoms: O_4  and  C_26
REMARK    3  A    between atoms: O_4  and  C_33
REMARK    4  A    between atoms: O_5  and  C_27
REMARK    5  A    between atoms: O_5  and  C_34
REMARK    6  A    between atoms: C_8  and  C_13
REMARK    7  A    between atoms: C_9  and  C_14
REMARK    8  A    between atoms: C_13  and  C_15
REMARK    9  A    between atoms: C_14  and  C_18
REMARK   10  A    between atoms: C_16  and  C_19
REMARK   11  A    between atoms: C_19  and  C_25
REMARK                            x       y       z     vdW  Elec       q    Type
REMARK                         _______ _______ _______ _____ _____    ______ ____
ROOT
ATOM      1  O   UNL     1      -4.394   4.671  24.720  0.00  0.00    -0.275 OA
ATOM      6  N   UNL     1      -2.231   3.826  24.760  0.00  0.00    -0.301 N 
ATOM      8  C   UNL     1      -0.600   2.025  25.279  0.00  0.00    +0.016 C 
ATOM      9  C   UNL     1      -0.155   2.836  26.523  0.00  0.00    +0.006 C 
ATOM     10  C   UNL     1      -1.283   3.749  27.035  0.00  0.00    +0.023 C 
ATOM     11  C   UNL     1      -1.168   2.975  24.210  0.00  0.00    +0.112 C 
ATOM     12  C   UNL     1      -1.834   4.630  25.917  0.00  0.00    +0.108 C 
ATOM     16  C   UNL     1      -3.525   3.928  24.254  0.00  0.00    +0.220 C 
ENDROOT
BRANCH   8  13
ATOM     13  C   UNL     1      -1.606   0.910  25.589  0.00  0.00    +0.061 C 
BRANCH  13  15
ATOM      7  N   UNL     1      -1.719  -1.485  25.476  0.00  0.00    -0.287 NA
ATOM     15  C   UNL     1      -1.020  -0.430  25.216  0.00  0.00    +0.044 C 
ATOM     17  C   UNL     1       0.321  -0.473  24.581  0.00  0.00    +0.003 A 
ATOM     20  C   UNL     1       0.992  -1.703  24.604  0.00  0.00    -0.033 A 
ATOM     21  C   UNL     1       0.329  -2.872  25.270  0.00  0.00    +0.059 C 
ATOM     22  C   UNL     1      -1.177  -2.783  25.059  0.00  0.00    +0.146 C 
ATOM     23  C   UNL     1       0.916   0.647  23.995  0.00  0.00    +0.059 A 
ATOM     24  C   UNL     1       2.274  -1.800  24.059  0.00  0.00    +0.053 A 
ATOM     26  C   UNL     1       2.191   0.537  23.440  0.00  0.00    +0.162 A 
ATOM     27  C   UNL     1       2.870  -0.682  23.474  0.00  0.00    +0.162 A 
BRANCH  26   4
ATOM      4  O   UNL     1       2.766   1.631  22.867  0.00  0.00    -0.491 OA
ATOM     33  C   UNL     1       4.107   1.488  22.401  0.00  0.00    +0.277 C 
ENDBRANCH  26   4
BRANCH  27   5
ATOM      5  O   UNL     1       4.118  -0.792  22.940  0.00  0.00    -0.491 OA
ATOM     34  C   UNL     1       5.192  -1.040  23.847  0.00  0.00    +0.277 C 
ENDBRANCH  27   5
ENDBRANCH  13  15
ENDBRANCH   8  13
BRANCH   9  14
ATOM     14  C   UNL     1       0.382   1.958  27.653  0.00  0.00    +0.124 C 
BRANCH  14  18
ATOM      3  O   UNL     1       2.375   3.259  28.178  0.00  0.00    -0.251 OA
ATOM     18  C   UNL     1       1.342   2.711  28.531  0.00  0.00    +0.305 C 
BRANCH  18   2
ATOM      2  O   UNL     1       0.895   2.699  29.814  0.00  0.00    -0.481 OA
ATOM     35  H   UNL     1       0.037   3.165  29.906  0.00  0.00    +0.295 HD
ENDBRANCH  18   2
ENDBRANCH  14  18
ENDBRANCH   9  14
BRANCH  16  19
ATOM     19  C   UNL     1      -3.856   3.065  23.063  0.00  0.00    +0.131 C 
BRANCH  19  25
ATOM     25  C   UNL     1      -4.077   1.645  23.486  0.00  0.00    -0.039 A 
ATOM     28  C   UNL     1      -4.860   1.365  24.606  0.00  0.00    +0.004 A 
ATOM     29  C   UNL     1      -3.498   0.603  22.761  0.00  0.00    +0.004 A 
ATOM     30  C   UNL     1      -5.066   0.043  25.000  0.00  0.00    +0.000 A 
ATOM     31  C   UNL     1      -3.703  -0.719  23.155  0.00  0.00    +0.000 A 
ATOM     32  C   UNL     1      -4.486  -0.999  24.275  0.00  0.00    +0.000 A 
ENDBRANCH  19  25
ENDBRANCH  16  19
TORSDOF 9
ENDMDL
MODEL 8
REMARK VINA RESULT:       8.3      2.001      6.071
REMARK  Name = 51136607
REMARK  11 active torsions:
REMARK  status: ('A' for Active; 'I' for Inactive)
REMARK    1  A    between atoms: O_2  and  C_18
REMARK    2  A    between atoms: O_4  and  C_26
REMARK    3  A    between atoms: O_4  and  C_33
REMARK    4  A    between atoms: O_5  and  C_27
REMARK    5  A    between atoms: O_5  and  C_34
REMARK    6  A    between atoms: C_8  and  C_13
REMARK    7  A    between atoms: C_9  and  C_14
REMARK    8  A    between atoms: C_13  and  C_15
REMARK    9  A    between atoms: C_14  and  C_18
REMARK   10  A    between atoms: C_16  and  C_19
REMARK   11  A    between atoms: C_19  and  C_25
REMARK                            x       y       z     vdW  Elec       q    Type
REMARK                         _______ _______ _______ _____ _____    ______ ____
ROOT
ATOM      1  O   UNL     1       2.910  -1.736  23.875  0.00  0.00    -0.275 OA
ATOM      6  N   UNL     1       0.859  -0.865  23.216  0.00  0.00    -0.301 N 
ATOM      8  C   UNL     1      -1.110   0.604  23.586  0.00  0.00    +0.016 C 
ATOM      9  C   UNL     1      -1.928  -0.654  23.977  0.00  0.00    +0.006 C 
ATOM     10  C   UNL     1      -1.023  -1.769  24.527  0.00  0.00    +0.023 C 
ATOM     11  C   UNL     1       0.038   0.208  22.641  0.00  0.00    +0.112 C 
ATOM     12  C   UNL     1       0.122  -2.079  23.566  0.00  0.00    +0.108 C 
ATOM     16  C   UNL     1       2.238  -0.809  23.414  0.00  0.00    +0.220 C 
ENDROOT
BRANCH   8  13
ATOM     13  C   UNL     1      -0.566   1.389  24.785  0.00  0.00    +0.061 C 
BRANCH  13  15
ATOM      7  N   UNL     1      -0.063   3.701  24.375  0.00  0.00    -0.287 NA
ATOM     15  C   UNL     1      -0.976   2.838  24.679  0.00  0.00    +0.044 C 
ATOM     17  C   UNL     1      -2.392   3.202  24.934  0.00  0.00    +0.003 A 
ATOM     20  C   UNL     1      -2.659   4.549  25.210  0.00  0.00    -0.033 A 
ATOM     21  C   UNL     1      -1.515   5.517  25.243  0.00  0.00    +0.059 C 
ATOM     22  C   UNL     1      -0.473   5.100  24.213  0.00  0.00    +0.146 C 
ATOM     23  C   UNL     1      -3.427   2.263  24.921  0.00  0.00    +0.059 A 
ATOM     24  C   UNL     1      -3.967   4.949  25.498  0.00  0.00    +0.053 A 
ATOM     26  C   UNL     1      -4.731   2.674  25.196  0.00  0.00    +0.162 A 
ATOM     27  C   UNL     1      -5.001   4.012  25.486  0.00  0.00    +0.162 A 
BRANCH  26   4
ATOM      4  O   UNL     1      -5.738   1.756  25.180  0.00  0.00    -0.491 OA
ATOM     33  C   UNL     1      -6.260   1.345  26.442  0.00  0.00    +0.277 C 
ENDBRANCH  26   4
BRANCH  27   5
ATOM      5  O   UNL     1      -6.272   4.417  25.762  0.00  0.00    -0.491 OA
ATOM     34  C   UNL     1      -6.642   5.728  25.336  0.00  0.00    +0.277 C 
ENDBRANCH  27   5
ENDBRANCH  13  15
ENDBRANCH   8  13
BRANCH   9  14
ATOM     14  C   UNL     1      -3.065  -0.352  24.953  0.00  0.00    +0.124 C 
BRANCH  14  18
ATOM      3  O   UNL     1      -3.499  -1.786  26.876  0.00  0.00    -0.251 OA
ATOM     18  C   UNL     1      -3.524  -1.592  25.670  0.00  0.00    +0.305 C 
BRANCH  18   2
ATOM      2  O   UNL     1      -3.984  -2.498  24.769  0.00  0.00    -0.481 OA
ATOM     35  H   UNL     1      -4.964  -2.527  24.747  0.00  0.00    +0.295 HD
ENDBRANCH  18   2
ENDBRANCH  14  18
ENDBRANCH   9  14
BRANCH  16  19
ATOM     19  C   UNL     1       2.924   0.478  23.031  0.00  0.00    +0.131 C 
BRANCH  19  25
ATOM     25  C   UNL     1       4.405   0.363  23.222  0.00  0.00    -0.039 A 
ATOM     28  C   UNL     1       5.177  -0.327  22.287  0.00  0.00    +0.004 A 
ATOM     29  C   UNL     1       5.012   0.945  24.335  0.00  0.00    +0.004 A 
ATOM     30  C   UNL     1       6.556  -0.435  22.465  0.00  0.00    +0.000 A 
ATOM     31  C   UNL     1       6.391   0.838  24.513  0.00  0.00    +0.000 A 
ATOM     32  C   UNL     1       7.163   0.147  23.578  0.00  0.00    +0.000 A 
ENDBRANCH  19  25
ENDBRANCH  16  19
TORSDOF 9
ENDMDL
MODEL 9
REMARK VINA RESULT:       9.7      2.069      6.820
REMARK  Name = 51136607
REMARK  11 active torsions:
REMARK  status: ('A' for Active; 'I' for Inactive)
REMARK    1  A    between atoms: O_2  and  C_18
REMARK    2  A    between atoms: O_4  and  C_26
REMARK    3  A    between atoms: O_4  and  C_33
REMARK    4  A    between atoms: O_5  and  C_27
REMARK    5  A    between atoms: O_5  and  C_34
REMARK    6  A    between atoms: C_8  and  C_13
REMARK    7  A    between atoms: C_9  and  C_14
REMARK    8  A    between atoms: C_13  and  C_15
REMARK    9  A    between atoms: C_14  and  C_18
REMARK   10  A    between atoms: C_16  and  C_19
REMARK   11  A    between atoms: C_19  and  C_25
REMARK                            x       y       z     vdW  Elec       q    Type
REMARK                         _______ _______ _______ _____ _____    ______ ____
ROOT
ATOM      1  O   UNL     1       0.070  -0.829  22.174  0.00  0.00    -0.275 OA
ATOM      6  N   UNL     1       0.100   1.292  23.121  0.00  0.00    -0.301 N 
ATOM      8  C   UNL     1      -0.591   2.909  24.876  0.00  0.00    +0.016 C 
ATOM      9  C   UNL     1      -1.584   3.531  23.860  0.00  0.00    +0.006 C 
ATOM     10  C   UNL     1      -2.020   2.507  22.798  0.00  0.00    +0.023 C 
ATOM     11  C   UNL     1       0.580   2.249  24.126  0.00  0.00    +0.112 C 
ATOM     12  C   UNL     1      -0.814   1.855  22.127  0.00  0.00    +0.108 C 
ATOM     16  C   UNL     1       0.468  -0.051  23.045  0.00  0.00    +0.220 C 
ENDROOT
BRANCH   8  13
ATOM     13  C   UNL     1      -1.235   1.909  25.844  0.00  0.00    +0.061 C 
BRANCH  13  15
ATOM      7  N   UNL     1      -3.500   2.534  25.352  0.00  0.00    -0.287 NA
ATOM     15  C   UNL     1      -2.633   1.576  25.384  0.00  0.00    +0.044 C 
ATOM     17  C   UNL     1      -2.947   0.177  25.001  0.00  0.00    +0.003 A 
ATOM     20  C   UNL     1      -4.302  -0.178  24.959  0.00  0.00    -0.033 A 
ATOM     21  C   UNL     1      -5.329   0.857  25.310  0.00  0.00    +0.059 C 
ATOM     22  C   UNL     1      -4.843   2.224  24.848  0.00  0.00    +0.146 C 
ATOM     23  C   UNL     1      -1.959  -0.766  24.708  0.00  0.00    +0.059 A 
ATOM     24  C   UNL     1      -4.662  -1.491  24.645  0.00  0.00    +0.053 A 
ATOM     26  C   UNL     1      -2.328  -2.070  24.381  0.00  0.00    +0.162 A 
ATOM     27  C   UNL     1      -3.675  -2.434  24.352  0.00  0.00    +0.162 A 
BRANCH  26   4
ATOM      4  O   UNL     1      -1.361  -2.986  24.093  0.00  0.00    -0.491 OA
ATOM     33  C   UNL     1      -0.299  -3.124  25.034  0.00  0.00    +0.277 C 
ENDBRANCH  26   4
BRANCH  27   5
ATOM      5  O   UNL     1      -4.041  -3.709  24.040  0.00  0.00    -0.491 OA
ATOM     34  C   UNL     1      -4.985  -3.873  22.984  0.00  0.00    +0.277 C 
ENDBRANCH  27   5
ENDBRANCH  13  15
ENDBRANCH   8  13
BRANCH   9  14
ATOM     14  C   UNL     1      -2.802   4.170  24.525  0.00  0.00    +0.124 C 
BRANCH  14  18
ATOM      3  O   UNL     1      -1.639   6.171  25.293  0.00  0.00    -0.251 OA
ATOM     18  C   UNL     1      -2.403   5.240  25.503  0.00  0.00    +0.305 C 
BRANCH  18   2
ATOM      2  O   UNL     1      -3.023   5.027  26.693  0.00  0.00    -0.481 OA
ATOM     35  H   UNL     1      -3.422   4.133  26.742  0.00  0.00    +0.295 HD
ENDBRANCH  18   2
ENDBRANCH  14  18
ENDBRANCH   9  14
BRANCH  16  19
ATOM     19  C   UNL     1       1.411  -0.555  24.108  0.00  0.00    +0.131 C 
BRANCH  19  25
ATOM     25  C   UNL     1       2.834  -0.357  23.687  0.00  0.00    -0.039 A 
ATOM     28  C   UNL     1       3.798  -1.311  24.017  0.00  0.00    +0.004 A 
ATOM     29  C   UNL     1       3.197   0.781  22.967  0.00  0.00    +0.004 A 
ATOM     30  C   UNL     1       5.124  -1.126  23.626  0.00  0.00    +0.000 A 
ATOM     31  C   UNL     1       4.523   0.966  22.575  0.00  0.00    +0.000 A 
ATOM     32  C   UNL     1       5.486   0.012  22.905  0.00  0.00    +0.000 A 
ENDBRANCH  19  25
ENDBRANCH  16  19
TORSDOF 9
ENDMDL
