MODEL 1
REMARK VINA RESULT:      -5.0      0.000      0.000
REMARK  Name = 11911799
REMARK  7 active torsions:
REMARK  status: ('A' for Active; 'I' for Inactive)
REMARK    1  A    between atoms: O_4  and  C_21
REMARK    2  A    between atoms: O_4  and  C_24
REMARK    3  A    between atoms: N_6  and  C_12
REMARK    4  A    between atoms: N_7  and  C_13
REMARK    5  A    between atoms: N_7  and  C_16
REMARK    6  A    between atoms: C_16  and  C_19
REMARK    7  A    between atoms: C_18  and  C_21
REMARK                            x       y       z     vdW  Elec       q    Type
REMARK                         _______ _______ _______ _____ _____    ______ ____
ROOT
ATOM      1  O   UNL     1      -6.485  -9.216  11.745  0.00  0.00    -0.370 OA
ATOM      2  O   UNL     1      -4.805 -10.390   9.156  0.00  0.00    -0.370 OA
ATOM     10  C   UNL     1      -4.570  -9.749  10.418  0.00  0.00    +0.175 C 
ATOM     11  C   UNL     1      -5.708  -8.762  10.629  0.00  0.00    +0.168 C 
ATOM     12  C   UNL     1      -4.687 -10.755  11.550  0.00  0.00    +0.166 C 
ATOM     13  C   UNL     1      -6.529  -8.828   9.354  0.00  0.00    +0.111 C 
ATOM     14  C   UNL     1      -6.118 -10.569  12.039  0.00  0.00    +0.189 C 
ATOM     15  C   UNL     1      -5.595  -9.495   8.370  0.00  0.00    +0.181 C 
ENDROOT
BRANCH  12   6
ATOM      6  N   UNL     1      -3.677 -10.562  12.595  0.00  0.00    -0.243 N 
ATOM      8  N   UNL     1      -2.451 -10.122  12.283  0.00  0.00    -0.065 NA
ATOM      9  N   UNL     1      -1.763 -10.046  13.416  0.00  0.00    -0.123 NA
ATOM     17  C   UNL     1      -3.815 -10.781  13.927  0.00  0.00    +0.145 A 
ATOM     18  C   UNL     1      -2.584 -10.447  14.434  0.00  0.00    +0.189 A 
BRANCH  18  21
ATOM      5  O   UNL     1      -1.002 -10.337  16.193  0.00  0.00    -0.243 OA
ATOM     21  C   UNL     1      -2.177 -10.492  15.802  0.00  0.00    +0.361 C 
BRANCH  21   4
ATOM      4  O   UNL     1      -3.204 -10.729  16.697  0.00  0.00    -0.463 OA
ATOM     24  C   UNL     1      -4.302  -9.810  16.697  0.00  0.00    +0.280 C 
ENDBRANCH  21   4
ENDBRANCH  18  21
ENDBRANCH  12   6
BRANCH  13   7
ATOM      7  N   UNL     1      -6.897  -7.477   8.890  0.00  0.00    -0.302 NA
ATOM     25  H   UNL     1      -6.159  -7.130   8.275  0.00  0.00    +0.123 HD
BRANCH   7  16
ATOM     16  C   UNL     1      -8.162  -7.505   8.172  0.00  0.00    +0.156 C 
BRANCH  16  19
ATOM      3  O   UNL     1     -10.145  -6.494   9.078  0.00  0.00    -0.467 OA
ATOM     19  C   UNL     1      -8.945  -6.276   8.505  0.00  0.00    +0.119 A 
ATOM     20  C   UNL     1      -8.683  -4.954   8.341  0.00  0.00    +0.046 A 
ATOM     22  C   UNL     1      -9.818  -4.281   8.856  0.00  0.00    +0.041 A 
ATOM     23  C   UNL     1     -10.677  -5.262   9.292  0.00  0.00    +0.195 A 
ENDBRANCH  16  19
ENDBRANCH   7  16
ENDBRANCH  13   7
TORSDOF 6
ENDMDL
MODEL 2
REMARK VINA RESULT:      -4.4     15.584     17.278
REMARK  Name = 11911799
REMARK  7 active torsions:
REMARK  status: ('A' for Active; 'I' for Inactive)
REMARK    1  A    between atoms: O_4  and  C_21
REMARK    2  A    between atoms: O_4  and  C_24
REMARK    3  A    between atoms: N_6  and  C_12
REMARK    4  A    between atoms: N_7  and  C_13
REMARK    5  A    between atoms: N_7  and  C_16
REMARK    6  A    between atoms: C_16  and  C_19
REMARK    7  A    between atoms: C_18  and  C_21
REMARK                            x       y       z     vdW  Elec       q    Type
REMARK                         _______ _______ _______ _____ _____    ______ ____
ROOT
ATOM      1  O   UNL     1      -1.847  -0.276  26.228  0.00  0.00    -0.370 OA
ATOM      2  O   UNL     1      -3.222  -0.944  23.300  0.00  0.00    -0.370 OA
ATOM     10  C   UNL     1      -2.221  -0.091  23.875  0.00  0.00    +0.175 C 
ATOM     11  C   UNL     1      -2.721   0.309  25.254  0.00  0.00    +0.168 C 
ATOM     12  C   UNL     1      -0.940  -0.869  24.114  0.00  0.00    +0.166 C 
ATOM     13  C   UNL     1      -4.109  -0.297  25.362  0.00  0.00    +0.111 C 
ATOM     14  C   UNL     1      -1.041  -1.269  25.582  0.00  0.00    +0.189 C 
ATOM     15  C   UNL     1      -4.464  -0.615  23.927  0.00  0.00    +0.181 C 
ENDROOT
BRANCH  12   6
ATOM      6  N   UNL     1       0.268  -0.101  23.795  0.00  0.00    -0.243 N 
ATOM      8  N   UNL     1       0.359   1.192  24.133  0.00  0.00    -0.065 NA
ATOM      9  N   UNL     1       1.547   1.619  23.722  0.00  0.00    -0.123 NA
ATOM     17  C   UNL     1       1.383  -0.541  23.161  0.00  0.00    +0.145 A 
ATOM     18  C   UNL     1       2.188   0.570  23.124  0.00  0.00    +0.189 A 
BRANCH  18  21
ATOM      5  O   UNL     1       3.754   0.526  21.348  0.00  0.00    -0.243 OA
ATOM     21  C   UNL     1       3.497   0.665  22.561  0.00  0.00    +0.361 C 
BRANCH  21   4
ATOM      4  O   UNL     1       4.497   0.930  23.479  0.00  0.00    -0.463 OA
ATOM     24  C   UNL     1       5.445  -0.111  23.739  0.00  0.00    +0.280 C 
ENDBRANCH  21   4
ENDBRANCH  18  21
ENDBRANCH  12   6
BRANCH  13   7
ATOM      7  N   UNL     1      -5.067   0.669  25.933  0.00  0.00    -0.302 NA
ATOM     25  H   UNL     1      -4.650   1.092  26.763  0.00  0.00    +0.123 HD
BRANCH   7  16
ATOM     16  C   UNL     1      -5.393   1.705  24.965  0.00  0.00    +0.156 C 
BRANCH  16  19
ATOM      3  O   UNL     1      -4.104   3.254  26.274  0.00  0.00    -0.467 OA
ATOM     19  C   UNL     1      -4.366   2.788  25.037  0.00  0.00    +0.119 A 
ATOM     20  C   UNL     1      -3.627   3.412  24.084  0.00  0.00    +0.046 A 
ATOM     22  C   UNL     1      -2.832   4.352  24.782  0.00  0.00    +0.041 A 
ATOM     23  C   UNL     1      -3.158   4.215  26.111  0.00  0.00    +0.195 A 
ENDBRANCH  16  19
ENDBRANCH   7  16
ENDBRANCH  13   7
TORSDOF 6
ENDMDL
MODEL 3
REMARK VINA RESULT:      -4.2      2.429      2.962
REMARK  Name = 11911799
REMARK  7 active torsions:
REMARK  status: ('A' for Active; 'I' for Inactive)
REMARK    1  A    between atoms: O_4  and  C_21
REMARK    2  A    between atoms: O_4  and  C_24
REMARK    3  A    between atoms: N_6  and  C_12
REMARK    4  A    between atoms: N_7  and  C_13
REMARK    5  A    between atoms: N_7  and  C_16
REMARK    6  A    between atoms: C_16  and  C_19
REMARK    7  A    between atoms: C_18  and  C_21
REMARK                            x       y       z     vdW  Elec       q    Type
REMARK                         _______ _______ _______ _____ _____    ______ ____
ROOT
ATOM      1  O   UNL     1      -6.013  -8.538  11.309  0.00  0.00    -0.370 OA
ATOM      2  O   UNL     1      -5.429 -10.654   8.842  0.00  0.00    -0.370 OA
ATOM     10  C   UNL     1      -4.733  -9.704   9.663  0.00  0.00    +0.175 C 
ATOM     11  C   UNL     1      -5.693  -8.551   9.912  0.00  0.00    +0.168 C 
ATOM     12  C   UNL     1      -4.444 -10.299  11.029  0.00  0.00    +0.166 C 
ATOM     13  C   UNL     1      -6.927  -8.880   9.093  0.00  0.00    +0.111 C 
ATOM     14  C   UNL     1      -5.590  -9.778  11.888  0.00  0.00    +0.189 C 
ATOM     15  C   UNL     1      -6.435  -9.934   8.127  0.00  0.00    +0.181 C 
ENDROOT
BRANCH  12   6
ATOM      6  N   UNL     1      -3.117  -9.945  11.541  0.00  0.00    -0.243 N 
ATOM      8  N   UNL     1      -2.783 -10.218  12.809  0.00  0.00    -0.065 NA
ATOM      9  N   UNL     1      -1.538  -9.789  12.985  0.00  0.00    -0.123 NA
ATOM     17  C   UNL     1      -2.107  -9.337  10.868  0.00  0.00    +0.145 A 
ATOM     18  C   UNL     1      -1.109  -9.247  11.806  0.00  0.00    +0.189 A 
BRANCH  18  21
ATOM      5  O   UNL     1       0.930  -8.914  10.648  0.00  0.00    -0.243 OA
ATOM     21  C   UNL     1       0.190  -8.683  11.626  0.00  0.00    +0.361 C 
BRANCH  21   4
ATOM      4  O   UNL     1       0.592  -7.836  12.643  0.00  0.00    -0.463 OA
ATOM     24  C   UNL     1       1.310  -6.654  12.270  0.00  0.00    +0.280 C 
ENDBRANCH  21   4
ENDBRANCH  18  21
ENDBRANCH  12   6
BRANCH  13   7
ATOM      7  N   UNL     1      -7.413  -7.692   8.365  0.00  0.00    -0.302 NA
ATOM     25  H   UNL     1      -6.937  -7.644   7.463  0.00  0.00    +0.123 HD
BRANCH   7  16
ATOM     16  C   UNL     1      -8.851  -7.766   8.159  0.00  0.00    +0.156 C 
BRANCH  16  19
ATOM      3  O   UNL     1      -8.635  -5.386   8.407  0.00  0.00    -0.467 OA
ATOM     19  C   UNL     1      -9.465  -6.444   8.490  0.00  0.00    +0.119 A 
ATOM     20  C   UNL     1     -10.719  -6.088   8.868  0.00  0.00    +0.046 A 
ATOM     22  C   UNL     1     -10.675  -4.683   9.037  0.00  0.00    +0.041 A 
ATOM     23  C   UNL     1      -9.385  -4.304   8.744  0.00  0.00    +0.195 A 
ENDBRANCH  16  19
ENDBRANCH   7  16
ENDBRANCH  13   7
TORSDOF 6
ENDMDL
MODEL 4
REMARK VINA RESULT:      -3.8     16.206     18.257
REMARK  Name = 11911799
REMARK  7 active torsions:
REMARK  status: ('A' for Active; 'I' for Inactive)
REMARK    1  A    between atoms: O_4  and  C_21
REMARK    2  A    between atoms: O_4  and  C_24
REMARK    3  A    between atoms: N_6  and  C_12
REMARK    4  A    between atoms: N_7  and  C_13
REMARK    5  A    between atoms: N_7  and  C_16
REMARK    6  A    between atoms: C_16  and  C_19
REMARK    7  A    between atoms: C_18  and  C_21
REMARK                            x       y       z     vdW  Elec       q    Type
REMARK                         _______ _______ _______ _____ _____    ______ ____
ROOT
ATOM      1  O   UNL     1      -0.328  -1.194  23.943  0.00  0.00    -0.370 OA
ATOM      2  O   UNL     1       0.643   1.881  24.655  0.00  0.00    -0.370 OA
ATOM     10  C   UNL     1      -0.508   1.179  24.161  0.00  0.00    +0.175 C 
ATOM     11  C   UNL     1       0.009   0.040  23.296  0.00  0.00    +0.168 C 
ATOM     12  C   UNL     1      -1.253   0.517  25.307  0.00  0.00    +0.166 C 
ATOM     13  C   UNL     1       1.516   0.222  23.263  0.00  0.00    +0.111 C 
ATOM     14  C   UNL     1      -0.722  -0.912  25.291  0.00  0.00    +0.189 C 
ATOM     15  C   UNL     1       1.707   1.647  23.730  0.00  0.00    +0.181 C 
ENDROOT
BRANCH  12   6
ATOM      6  N   UNL     1      -2.710   0.606  25.172  0.00  0.00    -0.243 N 
ATOM      8  N   UNL     1      -3.425  -0.467  24.809  0.00  0.00    -0.065 NA
ATOM      9  N   UNL     1      -4.698  -0.091  24.770  0.00  0.00    -0.123 NA
ATOM     17  C   UNL     1      -3.493   1.695  25.375  0.00  0.00    +0.145 A 
ATOM     18  C   UNL     1      -4.758   1.230  25.114  0.00  0.00    +0.189 A 
BRANCH  18  21
ATOM      5  O   UNL     1      -7.002   1.702  24.521  0.00  0.00    -0.243 OA
ATOM     21  C   UNL     1      -5.976   1.972  25.178  0.00  0.00    +0.361 C 
BRANCH  21   4
ATOM      4  O   UNL     1      -5.945   3.049  26.045  0.00  0.00    -0.463 OA
ATOM     24  C   UNL     1      -5.572   4.321  25.503  0.00  0.00    +0.280 C 
ENDBRANCH  21   4
ENDBRANCH  18  21
ENDBRANCH  12   6
BRANCH  13   7
ATOM      7  N   UNL     1       2.041   0.047  21.895  0.00  0.00    -0.302 NA
ATOM     25  H   UNL     1       1.406   0.502  21.240  0.00  0.00    +0.123 HD
BRANCH   7  16
ATOM     16  C   UNL     1       3.370   0.626  21.776  0.00  0.00    +0.156 C 
BRANCH  16  19
ATOM      3  O   UNL     1       3.999  -1.224  23.174  0.00  0.00    -0.467 OA
ATOM     19  C   UNL     1       4.253   0.056  22.838  0.00  0.00    +0.119 A 
ATOM     20  C   UNL     1       5.284   0.581  23.549  0.00  0.00    +0.046 A 
ATOM     22  C   UNL     1       5.716  -0.458  24.408  0.00  0.00    +0.041 A 
ATOM     23  C   UNL     1       4.903  -1.536  24.140  0.00  0.00    +0.195 A 
ENDBRANCH  16  19
ENDBRANCH   7  16
ENDBRANCH  13   7
TORSDOF 6
ENDMDL
MODEL 5
REMARK VINA RESULT:      -3.5     15.290     18.213
REMARK  Name = 11911799
REMARK  7 active torsions:
REMARK  status: ('A' for Active; 'I' for Inactive)
REMARK    1  A    between atoms: O_4  and  C_21
REMARK    2  A    between atoms: O_4  and  C_24
REMARK    3  A    between atoms: N_6  and  C_12
REMARK    4  A    between atoms: N_7  and  C_13
REMARK    5  A    between atoms: N_7  and  C_16
REMARK    6  A    between atoms: C_16  and  C_19
REMARK    7  A    between atoms: C_18  and  C_21
REMARK                            x       y       z     vdW  Elec       q    Type
REMARK                         _______ _______ _______ _____ _____    ______ ____
ROOT
ATOM      1  O   UNL     1      -0.232   1.091  26.199  0.00  0.00    -0.370 OA
ATOM      2  O   UNL     1      -0.187   1.273  22.902  0.00  0.00    -0.370 OA
ATOM     10  C   UNL     1      -1.094   1.455  24.000  0.00  0.00    +0.175 C 
ATOM     11  C   UNL     1      -0.736   0.408  25.044  0.00  0.00    +0.168 C 
ATOM     12  C   UNL     1      -0.852   2.797  24.667  0.00  0.00    +0.166 C 
ATOM     13  C   UNL     1       0.360  -0.426  24.407  0.00  0.00    +0.111 C 
ATOM     14  C   UNL     1       0.056   2.447  25.840  0.00  0.00    +0.189 C 
ATOM     15  C   UNL     1       0.250  -0.087  22.937  0.00  0.00    +0.181 C 
ENDROOT
BRANCH  12   6
ATOM      6  N   UNL     1      -2.091   3.473  25.063  0.00  0.00    -0.243 N 
ATOM      8  N   UNL     1      -2.073   4.758  25.440  0.00  0.00    -0.065 NA
ATOM      9  N   UNL     1      -3.323   5.094  25.737  0.00  0.00    -0.123 NA
ATOM     17  C   UNL     1      -3.342   2.947  25.105  0.00  0.00    +0.145 A 
ATOM     18  C   UNL     1      -4.113   3.997  25.538  0.00  0.00    +0.189 A 
BRANCH  18  21
ATOM      5  O   UNL     1      -6.262   4.989  25.626  0.00  0.00    -0.243 OA
ATOM     21  C   UNL     1      -5.524   3.992  25.759  0.00  0.00    +0.361 C 
BRANCH  21   4
ATOM      4  O   UNL     1      -6.038   2.768  26.146  0.00  0.00    -0.463 OA
ATOM     24  C   UNL     1      -6.364   1.834  25.111  0.00  0.00    +0.280 C 
ENDBRANCH  21   4
ENDBRANCH  18  21
ENDBRANCH  12   6
BRANCH  13   7
ATOM      7  N   UNL     1       0.126  -1.867  24.627  0.00  0.00    -0.302 NA
ATOM     25  H   UNL     1       0.998  -2.296  24.938  0.00  0.00    +0.123 HD
BRANCH   7  16
ATOM     16  C   UNL     1      -0.908  -2.073  25.629  0.00  0.00    +0.156 C 
BRANCH  16  19
ATOM      3  O   UNL     1      -3.061  -1.050  25.324  0.00  0.00    -0.467 OA
ATOM     19  C   UNL     1      -2.247  -2.062  24.964  0.00  0.00    +0.119 A 
ATOM     20  C   UNL     1      -2.820  -2.886  24.050  0.00  0.00    +0.046 A 
ATOM     22  C   UNL     1      -4.108  -2.346  23.814  0.00  0.00    +0.041 A 
ATOM     23  C   UNL     1      -4.204  -1.229  24.612  0.00  0.00    +0.195 A 
ENDBRANCH  16  19
ENDBRANCH   7  16
ENDBRANCH  13   7
TORSDOF 6
ENDMDL
MODEL 6
REMARK VINA RESULT:      -3.0     15.789     18.465
REMARK  Name = 11911799
REMARK  7 active torsions:
REMARK  status: ('A' for Active; 'I' for Inactive)
REMARK    1  A    between atoms: O_4  and  C_21
REMARK    2  A    between atoms: O_4  and  C_24
REMARK    3  A    between atoms: N_6  and  C_12
REMARK    4  A    between atoms: N_7  and  C_13
REMARK    5  A    between atoms: N_7  and  C_16
REMARK    6  A    between atoms: C_16  and  C_19
REMARK    7  A    between atoms: C_18  and  C_21
REMARK                            x       y       z     vdW  Elec       q    Type
REMARK                         _______ _______ _______ _____ _____    ______ ____
ROOT
ATOM      1  O   UNL     1      -1.592   1.522  22.586  0.00  0.00    -0.370 OA
ATOM      2  O   UNL     1      -1.468  -1.166  24.501  0.00  0.00    -0.370 OA
ATOM     10  C   UNL     1      -1.891   0.204  24.557  0.00  0.00    +0.175 C 
ATOM     11  C   UNL     1      -0.898   1.007  23.730  0.00  0.00    +0.168 C 
ATOM     12  C   UNL     1      -3.231   0.371  23.863  0.00  0.00    +0.166 C 
ATOM     13  C   UNL     1       0.156   0.004  23.297  0.00  0.00    +0.111 C 
ATOM     14  C   UNL     1      -2.846   0.841  22.464  0.00  0.00    +0.189 C 
ATOM     15  C   UNL     1      -0.063  -1.162  24.235  0.00  0.00    +0.181 C 
ENDROOT
BRANCH  12   6
ATOM      6  N   UNL     1      -4.131   1.291  24.565  0.00  0.00    -0.243 N 
ATOM      8  N   UNL     1      -5.242   0.832  25.159  0.00  0.00    -0.065 NA
ATOM      9  N   UNL     1      -5.850   1.878  25.707  0.00  0.00    -0.123 NA
ATOM     17  C   UNL     1      -3.993   2.632  24.711  0.00  0.00    +0.145 A 
ATOM     18  C   UNL     1      -5.098   2.989  25.441  0.00  0.00    +0.189 A 
BRANCH  18  21
ATOM      5  O   UNL     1      -6.567   4.830  25.695  0.00  0.00    -0.243 OA
ATOM     21  C   UNL     1      -5.452   4.301  25.880  0.00  0.00    +0.361 C 
BRANCH  21   4
ATOM      4  O   UNL     1      -4.443   4.973  26.546  0.00  0.00    -0.463 OA
ATOM     24  C   UNL     1      -3.127   4.411  26.488  0.00  0.00    +0.280 C 
ENDBRANCH  21   4
ENDBRANCH  18  21
ENDBRANCH  12   6
BRANCH  13   7
ATOM      7  N   UNL     1       1.514   0.557  23.464  0.00  0.00    -0.302 NA
ATOM     25  H   UNL     1       1.854   0.318  24.396  0.00  0.00    +0.123 HD
BRANCH   7  16
ATOM     16  C   UNL     1       2.417   0.019  22.458  0.00  0.00    +0.156 C 
BRANCH  16  19
ATOM      3  O   UNL     1       4.026  -1.307  23.651  0.00  0.00    -0.467 OA
ATOM     19  C   UNL     1       3.782  -0.127  23.048  0.00  0.00    +0.119 A 
ATOM     20  C   UNL     1       4.849   0.711  23.101  0.00  0.00    +0.046 A 
ATOM     22  C   UNL     1       5.853  -0.005  23.797  0.00  0.00    +0.041 A 
ATOM     23  C   UNL     1       5.303  -1.227  24.109  0.00  0.00    +0.195 A 
ENDBRANCH  16  19
ENDBRANCH   7  16
ENDBRANCH  13   7
TORSDOF 6
ENDMDL
MODEL 7
REMARK VINA RESULT:      -3.0     15.747     17.550
REMARK  Name = 11911799
REMARK  7 active torsions:
REMARK  status: ('A' for Active; 'I' for Inactive)
REMARK    1  A    between atoms: O_4  and  C_21
REMARK    2  A    between atoms: O_4  and  C_24
REMARK    3  A    between atoms: N_6  and  C_12
REMARK    4  A    between atoms: N_7  and  C_13
REMARK    5  A    between atoms: N_7  and  C_16
REMARK    6  A    between atoms: C_16  and  C_19
REMARK    7  A    between atoms: C_18  and  C_21
REMARK                            x       y       z     vdW  Elec       q    Type
REMARK                         _______ _______ _______ _____ _____    ______ ____
ROOT
ATOM      1  O   UNL     1      -2.778   2.158  23.212  0.00  0.00    -0.370 OA
ATOM      2  O   UNL     1      -1.687   3.492  26.030  0.00  0.00    -0.370 OA
ATOM     10  C   UNL     1      -1.473   2.336  25.206  0.00  0.00    +0.175 C 
ATOM     11  C   UNL     1      -2.826   1.949  24.630  0.00  0.00    +0.168 C 
ATOM     12  C   UNL     1      -0.606   2.693  24.012  0.00  0.00    +0.166 C 
ATOM     13  C   UNL     1      -3.816   2.906  25.269  0.00  0.00    +0.111 C 
ATOM     14  C   UNL     1      -1.622   2.947  22.904  0.00  0.00    +0.189 C 
ATOM     15  C   UNL     1      -3.053   3.461  26.450  0.00  0.00    +0.181 C 
ENDROOT
BRANCH  12   6
ATOM      6  N   UNL     1       0.376   1.655  23.685  0.00  0.00    -0.243 N 
ATOM      8  N   UNL     1       0.011   0.367  23.632  0.00  0.00    -0.065 NA
ATOM      9  N   UNL     1       1.095  -0.332  23.317  0.00  0.00    -0.123 NA
ATOM     17  C   UNL     1       1.694   1.822  23.408  0.00  0.00    +0.145 A 
ATOM     18  C   UNL     1       2.135   0.544  23.176  0.00  0.00    +0.189 A 
BRANCH  18  21
ATOM      5  O   UNL     1       4.171   0.700  21.977  0.00  0.00    -0.243 OA
ATOM     21  C   UNL     1       3.462   0.141  22.838  0.00  0.00    +0.361 C 
BRANCH  21   4
ATOM      4  O   UNL     1       3.928  -0.950  23.550  0.00  0.00    -0.463 OA
ATOM     24  C   UNL     1       5.258  -0.873  24.076  0.00  0.00    +0.280 C 
ENDBRANCH  21   4
ENDBRANCH  18  21
ENDBRANCH  12   6
BRANCH  13   7
ATOM      7  N   UNL     1      -5.027   2.192  25.720  0.00  0.00    -0.302 NA
ATOM     25  H   UNL     1      -5.759   2.877  25.908  0.00  0.00    +0.123 HD
BRANCH   7  16
ATOM     16  C   UNL     1      -5.480   1.254  24.704  0.00  0.00    +0.156 C 
BRANCH  16  19
ATOM      3  O   UNL     1      -4.161  -0.252  26.032  0.00  0.00    -0.467 OA
ATOM     19  C   UNL     1      -4.697  -0.013  24.819  0.00  0.00    +0.119 A 
ATOM     20  C   UNL     1      -4.409  -0.994  23.925  0.00  0.00    +0.046 A 
ATOM     22  C   UNL     1      -3.624  -1.932  24.639  0.00  0.00    +0.041 A 
ATOM     23  C   UNL     1      -3.503  -1.435  25.916  0.00  0.00    +0.195 A 
ENDBRANCH  16  19
ENDBRANCH   7  16
ENDBRANCH  13   7
TORSDOF 6
ENDMDL
MODEL 8
REMARK VINA RESULT:      -2.2      3.474      4.139
REMARK  Name = 11911799
REMARK  7 active torsions:
REMARK  status: ('A' for Active; 'I' for Inactive)
REMARK    1  A    between atoms: O_4  and  C_21
REMARK    2  A    between atoms: O_4  and  C_24
REMARK    3  A    between atoms: N_6  and  C_12
REMARK    4  A    between atoms: N_7  and  C_13
REMARK    5  A    between atoms: N_7  and  C_16
REMARK    6  A    between atoms: C_16  and  C_19
REMARK    7  A    between atoms: C_18  and  C_21
REMARK                            x       y       z     vdW  Elec       q    Type
REMARK                         _______ _______ _______ _____ _____    ______ ____
ROOT
ATOM      1  O   UNL     1      -3.976 -10.072  12.453  0.00  0.00    -0.370 OA
ATOM      2  O   UNL     1      -3.290 -10.013   9.223  0.00  0.00    -0.370 OA
ATOM     10  C   UNL     1      -3.004  -9.275  10.421  0.00  0.00    +0.175 C 
ATOM     11  C   UNL     1      -4.263  -9.312  11.273  0.00  0.00    +0.168 C 
ATOM     12  C   UNL     1      -1.938  -9.986  11.236  0.00  0.00    +0.166 C 
ATOM     13  C   UNL     1      -5.294 -10.031  10.422  0.00  0.00    +0.111 C 
ATOM     14  C   UNL     1      -2.747 -10.781  12.254  0.00  0.00    +0.189 C 
ATOM     15  C   UNL     1      -4.706  -9.969   9.031  0.00  0.00    +0.181 C 
ENDROOT
BRANCH  12   6
ATOM      6  N   UNL     1      -0.970  -9.067  11.841  0.00  0.00    -0.243 N 
ATOM      8  N   UNL     1      -0.992  -8.828  13.159  0.00  0.00    -0.065 NA
ATOM      9  N   UNL     1      -0.013  -7.968  13.416  0.00  0.00    -0.123 NA
ATOM     17  C   UNL     1       0.015  -8.375  11.215  0.00  0.00    +0.145 A 
ATOM     18  C   UNL     1       0.614  -7.680  12.236  0.00  0.00    +0.189 A 
BRANCH  18  21
ATOM      5  O   UNL     1       1.639  -5.545  12.248  0.00  0.00    -0.243 OA
ATOM     21  C   UNL     1       1.721  -6.784  12.132  0.00  0.00    +0.361 C 
BRANCH  21   4
ATOM      4  O   UNL     1       2.934  -7.401  11.885  0.00  0.00    -0.463 OA
ATOM     24  C   UNL     1       4.118  -6.610  12.036  0.00  0.00    +0.280 C 
ENDBRANCH  21   4
ENDBRANCH  18  21
ENDBRANCH  12   6
BRANCH  13   7
ATOM      7  N   UNL     1      -6.596  -9.338  10.468  0.00  0.00    -0.302 NA
ATOM     25  H   UNL     1      -6.434  -8.347  10.644  0.00  0.00    +0.123 HD
BRANCH   7  16
ATOM     16  C   UNL     1      -7.313  -9.504   9.213  0.00  0.00    +0.156 C 
BRANCH  16  19
ATOM      3  O   UNL     1      -9.343  -8.248   9.484  0.00  0.00    -0.467 OA
ATOM     19  C   UNL     1      -8.112  -8.272   8.936  0.00  0.00    +0.119 A 
ATOM     20  C   UNL     1      -7.841  -7.147   8.225  0.00  0.00    +0.046 A 
ATOM     22  C   UNL     1      -9.003  -6.345   8.336  0.00  0.00    +0.041 A 
ATOM     23  C   UNL     1      -9.886  -7.059   9.112  0.00  0.00    +0.195 A 
ENDBRANCH  16  19
ENDBRANCH   7  16
ENDBRANCH  13   7
TORSDOF 6
ENDMDL
MODEL 9
REMARK VINA RESULT:      -2.1     14.899     17.608
REMARK  Name = 11911799
REMARK  7 active torsions:
REMARK  status: ('A' for Active; 'I' for Inactive)
REMARK    1  A    between atoms: O_4  and  C_21
REMARK    2  A    between atoms: O_4  and  C_24
REMARK    3  A    between atoms: N_6  and  C_12
REMARK    4  A    between atoms: N_7  and  C_13
REMARK    5  A    between atoms: N_7  and  C_16
REMARK    6  A    between atoms: C_16  and  C_19
REMARK    7  A    between atoms: C_18  and  C_21
REMARK                            x       y       z     vdW  Elec       q    Type
REMARK                         _______ _______ _______ _____ _____    ______ ____
ROOT
ATOM      1  O   UNL     1      -0.517   1.940  23.059  0.00  0.00    -0.370 OA
ATOM      2  O   UNL     1       0.391   2.275  26.217  0.00  0.00    -0.370 OA
ATOM     10  C   UNL     1      -0.581   1.580  25.421  0.00  0.00    +0.175 C 
ATOM     11  C   UNL     1      -0.975   2.517  24.289  0.00  0.00    +0.168 C 
ATOM     12  C   UNL     1       0.052   0.373  24.751  0.00  0.00    +0.166 C 
ATOM     13  C   UNL     1      -0.233   3.811  24.571  0.00  0.00    +0.111 C 
ATOM     14  C   UNL     1       0.408   0.889  23.362  0.00  0.00    +0.189 C 
ATOM     15  C   UNL     1       0.171   3.674  26.022  0.00  0.00    +0.181 C 
ENDROOT
BRANCH  12   6
ATOM      6  N   UNL     1      -0.825  -0.801  24.737  0.00  0.00    -0.243 N 
ATOM      8  N   UNL     1      -0.394  -1.977  25.213  0.00  0.00    -0.065 NA
ATOM      9  N   UNL     1      -1.390  -2.843  25.071  0.00  0.00    -0.123 NA
ATOM     17  C   UNL     1      -2.099  -0.874  24.277  0.00  0.00    +0.145 A 
ATOM     18  C   UNL     1      -2.442  -2.184  24.499  0.00  0.00    +0.189 A 
BRANCH  18  21
ATOM      5  O   UNL     1      -3.909  -4.033  24.297  0.00  0.00    -0.243 OA
ATOM     21  C   UNL     1      -3.691  -2.809  24.198  0.00  0.00    +0.361 C 
BRANCH  21   4
ATOM      4  O   UNL     1      -4.678  -1.938  23.772  0.00  0.00    -0.463 OA
ATOM     24  C   UNL     1      -4.738  -0.653  24.400  0.00  0.00    +0.280 C 
ENDBRANCH  21   4
ENDBRANCH  18  21
ENDBRANCH  12   6
BRANCH  13   7
ATOM      7  N   UNL     1      -1.114   4.979  24.384  0.00  0.00    -0.302 NA
ATOM     25  H   UNL     1      -1.613   4.875  23.500  0.00  0.00    +0.123 HD
BRANCH   7  16
ATOM     16  C   UNL     1      -2.067   5.086  25.478  0.00  0.00    +0.156 C 
BRANCH  16  19
ATOM      3  O   UNL     1      -3.842   3.680  26.282  0.00  0.00    -0.467 OA
ATOM     19  C   UNL     1      -3.241   4.206  25.196  0.00  0.00    +0.119 A 
ATOM     20  C   UNL     1      -3.838   3.820  24.038  0.00  0.00    +0.046 A 
ATOM     22  C   UNL     1      -4.906   2.978  24.430  0.00  0.00    +0.041 A 
ATOM     23  C   UNL     1      -4.866   2.926  25.804  0.00  0.00    +0.195 A 
ENDBRANCH  16  19
ENDBRANCH   7  16
ENDBRANCH  13   7
TORSDOF 6
ENDMDL
MODEL 10
REMARK VINA RESULT:      -1.8     15.846     17.786
REMARK  Name = 11911799
REMARK  7 active torsions:
REMARK  status: ('A' for Active; 'I' for Inactive)
REMARK    1  A    between atoms: O_4  and  C_21
REMARK    2  A    between atoms: O_4  and  C_24
REMARK    3  A    between atoms: N_6  and  C_12
REMARK    4  A    between atoms: N_7  and  C_13
REMARK    5  A    between atoms: N_7  and  C_16
REMARK    6  A    between atoms: C_16  and  C_19
REMARK    7  A    between atoms: C_18  and  C_21
REMARK                            x       y       z     vdW  Elec       q    Type
REMARK                         _______ _______ _______ _____ _____    ______ ____
ROOT
ATOM      1  O   UNL     1      -1.432   0.922  25.898  0.00  0.00    -0.370 OA
ATOM      2  O   UNL     1      -3.493   0.142  23.438  0.00  0.00    -0.370 OA
ATOM     10  C   UNL     1      -2.174   0.670  23.640  0.00  0.00    +0.175 C 
ATOM     11  C   UNL     1      -2.234   1.543  24.885  0.00  0.00    +0.168 C 
ATOM     12  C   UNL     1      -1.203  -0.449  23.972  0.00  0.00    +0.166 C 
ATOM     13  C   UNL     1      -3.695   1.542  25.297  0.00  0.00    +0.111 C 
ATOM     14  C   UNL     1      -1.142  -0.422  25.495  0.00  0.00    +0.189 C 
ATOM     15  C   UNL     1      -4.408   1.049  24.058  0.00  0.00    +0.181 C 
ENDROOT
BRANCH  12   6
ATOM      6  N   UNL     1       0.104  -0.285  23.328  0.00  0.00    -0.243 N 
ATOM      8  N   UNL     1       0.294  -0.689  22.065  0.00  0.00    -0.065 NA
ATOM      9  N   UNL     1       1.556  -0.417  21.755  0.00  0.00    -0.123 NA
ATOM     17  C   UNL     1       1.228   0.253  23.865  0.00  0.00    +0.145 A 
ATOM     18  C   UNL     1       2.143   0.160  22.846  0.00  0.00    +0.189 A 
BRANCH  18  21
ATOM      5  O   UNL     1       3.884   1.755  22.657  0.00  0.00    -0.243 OA
ATOM     21  C   UNL     1       3.506   0.586  22.874  0.00  0.00    +0.361 C 
BRANCH  21   4
ATOM      4  O   UNL     1       4.413  -0.417  23.166  0.00  0.00    -0.463 OA
ATOM     24  C   UNL     1       5.633  -0.034  23.809  0.00  0.00    +0.280 C 
ENDBRANCH  21   4
ENDBRANCH  18  21
ENDBRANCH  12   6
BRANCH  13   7
ATOM      7  N   UNL     1      -4.147   2.901  25.652  0.00  0.00    -0.302 NA
ATOM     25  H   UNL     1      -5.062   2.836  26.098  0.00  0.00    +0.123 HD
BRANCH   7  16
ATOM     16  C   UNL     1      -3.203   3.538  26.557  0.00  0.00    +0.156 C 
BRANCH  16  19
ATOM      3  O   UNL     1      -1.004   3.789  25.621  0.00  0.00    -0.467 OA
ATOM     19  C   UNL     1      -2.225   4.342  25.763  0.00  0.00    +0.119 A 
ATOM     20  C   UNL     1      -2.321   5.546  25.143  0.00  0.00    +0.046 A 
ATOM     22  C   UNL     1      -1.051   5.771  24.560  0.00  0.00    +0.041 A 
ATOM     23  C   UNL     1      -0.286   4.672  24.879  0.00  0.00    +0.195 A 
ENDBRANCH  16  19
ENDBRANCH   7  16
ENDBRANCH  13   7
TORSDOF 6
ENDMDL
