MODEL 1
REMARK VINA RESULT:      -3.0      0.000      0.000
REMARK  Name = 26742396
REMARK  6 active torsions:
REMARK  status: ('A' for Active; 'I' for Inactive)
REMARK    1  A    between atoms: N_4  and  C_14
REMARK    2  A    between atoms: C_8  and  C_14
REMARK    3  A    between atoms: C_9  and  C_15
REMARK    4  A    between atoms: C_16  and  C_19
REMARK    5  A    between atoms: C_22  and  C_24
REMARK    6  A    between atoms: C_23  and  C_25
REMARK                            x       y       z     vdW  Elec       q    Type
REMARK                         _______ _______ _______ _____ _____    ______ ____
ROOT
ATOM      3  N   UNL     1      -2.703  -2.236  23.691  0.00  0.00    -0.297 NA
ATOM      7  C   UNL     1      -2.824  -1.237  26.093  0.00  0.00    +0.002 C 
ATOM      8  C   UNL     1      -1.346  -1.829  24.141  0.00  0.00    +0.074 C 
ATOM      9  C   UNL     1      -3.888  -0.575  25.174  0.00  0.00    +0.055 C 
ATOM     10  C   UNL     1      -1.425  -1.049  25.471  0.00  0.00    +0.024 C 
ATOM     11  C   UNL     1      -3.119  -2.752  26.095  0.00  0.00    +0.019 C 
ATOM     12  C   UNL     1      -3.621  -1.071  23.724  0.00  0.00    +0.094 C 
ATOM     13  C   UNL     1      -3.212  -3.253  24.643  0.00  0.00    +0.085 C 
ENDROOT
BRANCH   9  15
ATOM      5  N   UNL     1      -5.300   1.394  25.507  0.00  0.00    -0.237 NA
ATOM      6  N   UNL     1      -4.427   3.637  25.383  0.00  0.00    -0.232 NA
ATOM     15  C   UNL     1      -4.058   0.936  25.245  0.00  0.00    +0.050 A 
ATOM     21  C   UNL     1      -2.966   1.754  25.042  0.00  0.00    +0.052 A 
ATOM     22  C   UNL     1      -3.212   3.110  25.124  0.00  0.00    +0.081 A 
ATOM     23  C   UNL     1      -5.411   2.735  25.561  0.00  0.00    +0.127 A 
ATOM     25  C   UNL     1      -6.768   3.280  25.851  0.00  0.00    +0.088 C 
BRANCH  22  24
ATOM      1  S   UNL     1      -0.678   3.560  24.251  0.00  0.00    -0.095 S 
ATOM     24  C   UNL     1      -2.163   4.075  24.932  0.00  0.00    +0.038 A 
ATOM     26  C   UNL     1      -2.157   5.421  25.224  0.00  0.00    +0.017 A 
ATOM     27  C   UNL     1      -0.919   6.038  24.883  0.00  0.00    +0.008 A 
ATOM     28  C   UNL     1      -0.025   5.140  24.345  0.00  0.00    +0.046 A 
ENDBRANCH  22  24
ENDBRANCH   9  15
BRANCH   8  14
ATOM     14  C   UNL     1      -0.585  -1.050  23.067  0.00  0.00    +0.123 C 
BRANCH  14   4
ATOM      2  O   UNL     1       1.675  -0.280  21.472  0.00  0.00    -0.276 OA
ATOM      4  N   UNL     1       0.703  -0.649  23.542  0.00  0.00    -0.314 N 
ATOM     19  C   UNL     1       1.759  -0.287  22.705  0.00  0.00    +0.216 C 
ATOM     29  H   UNL     1       0.855  -0.633  24.546  0.00  0.00    +0.149 HD
BRANCH  19  16
ATOM     16  C   UNL     1       3.048   0.096  23.458  0.00  0.00    +0.075 C 
ATOM     17  C   UNL     1       4.141  -0.985  23.586  0.00  0.00    +0.013 C 
ATOM     18  C   UNL     1       4.087   0.947  22.700  0.00  0.00    +0.013 C 
ATOM     20  C   UNL     1       5.175   0.152  23.452  0.00  0.00    +0.001 C 
ENDBRANCH  19  16
ENDBRANCH  14   4
ENDBRANCH   8  14
TORSDOF 5
ENDMDL
MODEL 2
REMARK VINA RESULT:      -1.6      2.452      5.750
REMARK  Name = 26742396
REMARK  6 active torsions:
REMARK  status: ('A' for Active; 'I' for Inactive)
REMARK    1  A    between atoms: N_4  and  C_14
REMARK    2  A    between atoms: C_8  and  C_14
REMARK    3  A    between atoms: C_9  and  C_15
REMARK    4  A    between atoms: C_16  and  C_19
REMARK    5  A    between atoms: C_22  and  C_24
REMARK    6  A    between atoms: C_23  and  C_25
REMARK                            x       y       z     vdW  Elec       q    Type
REMARK                         _______ _______ _______ _____ _____    ______ ____
ROOT
ATOM      3  N   UNL     1      -5.122   2.973  23.907  0.00  0.00    -0.297 NA
ATOM      7  C   UNL     1      -3.896   3.559  26.129  0.00  0.00    +0.002 C 
ATOM      8  C   UNL     1      -5.450   1.965  24.949  0.00  0.00    +0.074 C 
ATOM      9  C   UNL     1      -2.899   3.576  24.937  0.00  0.00    +0.055 C 
ATOM     10  C   UNL     1      -4.576   2.176  26.205  0.00  0.00    +0.024 C 
ATOM     11  C   UNL     1      -4.999   4.589  25.802  0.00  0.00    +0.019 C 
ATOM     12  C   UNL     1      -3.654   3.024  23.693  0.00  0.00    +0.094 C 
ATOM     13  C   UNL     1      -5.564   4.299  24.401  0.00  0.00    +0.085 C 
ENDROOT
BRANCH   9  15
ATOM      5  N   UNL     1      -0.957   3.067  26.334  0.00  0.00    -0.237 NA
ATOM      6  N   UNL     1       0.898   1.758  25.526  0.00  0.00    -0.232 NA
ATOM     15  C   UNL     1      -1.541   2.917  25.127  0.00  0.00    +0.050 A 
ATOM     21  C   UNL     1      -0.974   2.213  24.084  0.00  0.00    +0.052 A 
ATOM     22  C   UNL     1       0.258   1.649  24.343  0.00  0.00    +0.081 A 
ATOM     23  C   UNL     1       0.243   2.470  26.463  0.00  0.00    +0.127 A 
ATOM     25  C   UNL     1       0.918   2.611  27.785  0.00  0.00    +0.088 C 
BRANCH  22  24
ATOM      1  S   UNL     1       2.653   1.103  23.180  0.00  0.00    -0.095 S 
ATOM     24  C   UNL     1       0.961   0.889  23.344  0.00  0.00    +0.038 A 
ATOM     26  C   UNL     1       0.468  -0.032  22.447  0.00  0.00    +0.017 A 
ATOM     27  C   UNL     1       1.491  -0.571  21.617  0.00  0.00    +0.008 A 
ATOM     28  C   UNL     1       2.728  -0.040  21.908  0.00  0.00    +0.046 A 
ENDBRANCH  22  24
ENDBRANCH   9  15
BRANCH   8  14
ATOM     14  C   UNL     1      -5.358   0.532  24.425  0.00  0.00    +0.123 C 
BRANCH  14   4
ATOM      2  O   UNL     1      -4.472  -2.129  23.808  0.00  0.00    -0.276 OA
ATOM      4  N   UNL     1      -4.206  -0.133  24.953  0.00  0.00    -0.314 N 
ATOM     19  C   UNL     1      -3.836  -1.432  24.607  0.00  0.00    +0.216 C 
ATOM     29  H   UNL     1      -3.632   0.372  25.622  0.00  0.00    +0.149 HD
BRANCH  19  16
ATOM     16  C   UNL     1      -2.563  -1.928  25.320  0.00  0.00    +0.075 C 
ATOM     17  C   UNL     1      -1.370  -2.341  24.433  0.00  0.00    +0.013 C 
ATOM     18  C   UNL     1      -1.634  -0.863  25.939  0.00  0.00    +0.013 C 
ATOM     20  C   UNL     1      -0.452  -1.766  25.532  0.00  0.00    +0.001 C 
ENDBRANCH  19  16
ENDBRANCH  14   4
ENDBRANCH   8  14
TORSDOF 5
ENDMDL
MODEL 3
REMARK VINA RESULT:      -0.6      2.012      4.966
REMARK  Name = 26742396
REMARK  6 active torsions:
REMARK  status: ('A' for Active; 'I' for Inactive)
REMARK    1  A    between atoms: N_4  and  C_14
REMARK    2  A    between atoms: C_8  and  C_14
REMARK    3  A    between atoms: C_9  and  C_15
REMARK    4  A    between atoms: C_16  and  C_19
REMARK    5  A    between atoms: C_22  and  C_24
REMARK    6  A    between atoms: C_23  and  C_25
REMARK                            x       y       z     vdW  Elec       q    Type
REMARK                         _______ _______ _______ _____ _____    ______ ____
ROOT
ATOM      3  N   UNL     1       0.440   2.871  25.418  0.00  0.00    -0.297 NA
ATOM      7  C   UNL     1      -1.662   3.968  24.338  0.00  0.00    +0.002 C 
ATOM      8  C   UNL     1       0.463   2.672  23.944  0.00  0.00    +0.074 C 
ATOM      9  C   UNL     1      -2.073   3.062  25.531  0.00  0.00    +0.055 C 
ATOM     10  C   UNL     1      -0.870   3.131  23.312  0.00  0.00    +0.024 C 
ATOM     11  C   UNL     1      -0.694   5.031  24.900  0.00  0.00    +0.019 C 
ATOM     12  C   UNL     1      -0.801   2.292  25.990  0.00  0.00    +0.094 C 
ATOM     13  C   UNL     1       0.433   4.331  25.679  0.00  0.00    +0.085 C 
ENDROOT
BRANCH   9  15
ATOM      5  N   UNL     1      -4.490   2.689  25.545  0.00  0.00    -0.237 NA
ATOM      6  N   UNL     1      -5.460   0.538  25.053  0.00  0.00    -0.232 NA
ATOM     15  C   UNL     1      -3.272   2.141  25.355  0.00  0.00    +0.050 A 
ATOM     21  C   UNL     1      -3.070   0.818  25.018  0.00  0.00    +0.052 A 
ATOM     22  C   UNL     1      -4.212   0.056  24.879  0.00  0.00    +0.081 A 
ATOM     23  C   UNL     1      -5.525   1.843  25.380  0.00  0.00    +0.127 A 
ATOM     25  C   UNL     1      -6.889   2.412  25.580  0.00  0.00    +0.088 C 
BRANCH  22  24
ATOM      1  S   UNL     1      -3.163  -2.380  25.471  0.00  0.00    -0.095 S 
ATOM     24  C   UNL     1      -4.146  -1.338  24.531  0.00  0.00    +0.038 A 
ATOM     26  C   UNL     1      -4.779  -2.009  23.508  0.00  0.00    +0.017 A 
ATOM     27  C   UNL     1      -4.454  -3.396  23.497  0.00  0.00    +0.008 A 
ATOM     28  C   UNL     1      -3.585  -3.733  24.510  0.00  0.00    +0.046 A 
ENDBRANCH  22  24
ENDBRANCH   9  15
BRANCH   8  14
ATOM     14  C   UNL     1       0.814   1.235  23.555  0.00  0.00    +0.123 C 
BRANCH  14   4
ATOM      2  O   UNL     1       2.320  -0.233  21.601  0.00  0.00    -0.276 OA
ATOM      4  N   UNL     1       2.231   1.043  23.532  0.00  0.00    -0.314 N 
ATOM     19  C   UNL     1       2.897   0.314  22.547  0.00  0.00    +0.216 C 
ATOM     29  H   UNL     1       2.779   1.459  24.280  0.00  0.00    +0.149 HD
BRANCH  19  16
ATOM     16  C   UNL     1       4.423   0.244  22.749  0.00  0.00    +0.075 C 
ATOM     17  C   UNL     1       5.038   1.154  23.833  0.00  0.00    +0.013 C 
ATOM     18  C   UNL     1       4.980  -0.953  23.548  0.00  0.00    +0.013 C 
ATOM     20  C   UNL     1       6.040   0.016  24.113  0.00  0.00    +0.001 C 
ENDBRANCH  19  16
ENDBRANCH  14   4
ENDBRANCH   8  14
TORSDOF 5
ENDMDL
MODEL 4
REMARK VINA RESULT:      -0.4      2.324      5.772
REMARK  Name = 26742396
REMARK  6 active torsions:
REMARK  status: ('A' for Active; 'I' for Inactive)
REMARK    1  A    between atoms: N_4  and  C_14
REMARK    2  A    between atoms: C_8  and  C_14
REMARK    3  A    between atoms: C_9  and  C_15
REMARK    4  A    between atoms: C_16  and  C_19
REMARK    5  A    between atoms: C_22  and  C_24
REMARK    6  A    between atoms: C_23  and  C_25
REMARK                            x       y       z     vdW  Elec       q    Type
REMARK                         _______ _______ _______ _____ _____    ______ ____
ROOT
ATOM      3  N   UNL     1      -3.195  -2.292  25.982  0.00  0.00    -0.297 NA
ATOM      7  C   UNL     1      -2.472  -1.998  23.497  0.00  0.00    +0.002 C 
ATOM      8  C   UNL     1      -4.186  -1.450  25.261  0.00  0.00    +0.074 C 
ATOM      9  C   UNL     1      -1.288  -1.675  24.450  0.00  0.00    +0.055 C 
ATOM     10  C   UNL     1      -3.672  -1.094  23.849  0.00  0.00    +0.024 C 
ATOM     11  C   UNL     1      -2.898  -3.452  23.795  0.00  0.00    +0.019 C 
ATOM     12  C   UNL     1      -1.848  -1.674  25.902  0.00  0.00    +0.094 C 
ATOM     13  C   UNL     1      -3.141  -3.611  25.306  0.00  0.00    +0.085 C 
ENDROOT
BRANCH   9  15
ATOM      5  N   UNL     1       0.742  -0.649  23.551  0.00  0.00    -0.237 NA
ATOM      6  N   UNL     1       1.110   1.732  23.605  0.00  0.00    -0.232 NA
ATOM     15  C   UNL     1      -0.446  -0.442  24.157  0.00  0.00    +0.050 A 
ATOM     21  C   UNL     1      -0.918   0.805  24.513  0.00  0.00    +0.052 A 
ATOM     22  C   UNL     1      -0.090   1.866  24.210  0.00  0.00    +0.081 A 
ATOM     23  C   UNL     1       1.458   0.465  23.309  0.00  0.00    +0.127 A 
ATOM     25  C   UNL     1       2.777   0.278  22.639  0.00  0.00    +0.088 C 
BRANCH  22  24
ATOM      1  S   UNL     1      -1.467   3.508  25.881  0.00  0.00    -0.095 S 
ATOM     24  C   UNL     1      -0.458   3.220  24.527  0.00  0.00    +0.038 A 
ATOM     26  C   UNL     1      -0.113   4.388  23.882  0.00  0.00    +0.017 A 
ATOM     27  C   UNL     1      -0.683   5.533  24.509  0.00  0.00    +0.008 A 
ATOM     28  C   UNL     1      -1.443   5.198  25.607  0.00  0.00    +0.046 A 
ENDBRANCH  22  24
ENDBRANCH   9  15
BRANCH   8  14
ATOM     14  C   UNL     1      -4.580  -0.204  26.055  0.00  0.00    +0.123 C 
BRANCH  14   4
ATOM      2  O   UNL     1      -6.091   2.200  26.479  0.00  0.00    -0.276 OA
ATOM      4  N   UNL     1      -4.607   0.952  25.213  0.00  0.00    -0.314 N 
ATOM     19  C   UNL     1      -5.368   2.089  25.483  0.00  0.00    +0.216 C 
ATOM     29  H   UNL     1      -4.041   0.938  24.369  0.00  0.00    +0.149 HD
BRANCH  19  16
ATOM     16  C   UNL     1      -5.235   3.195  24.419  0.00  0.00    +0.075 C 
ATOM     17  C   UNL     1      -4.619   4.538  24.866  0.00  0.00    +0.013 C 
ATOM     18  C   UNL     1      -4.067   3.081  23.417  0.00  0.00    +0.013 C 
ATOM     20  C   UNL     1      -3.974   4.621  23.466  0.00  0.00    +0.001 C 
ENDBRANCH  19  16
ENDBRANCH  14   4
ENDBRANCH   8  14
TORSDOF 5
ENDMDL
MODEL 5
REMARK VINA RESULT:      -0.3      2.396      6.802
REMARK  Name = 26742396
REMARK  6 active torsions:
REMARK  status: ('A' for Active; 'I' for Inactive)
REMARK    1  A    between atoms: N_4  and  C_14
REMARK    2  A    between atoms: C_8  and  C_14
REMARK    3  A    between atoms: C_9  and  C_15
REMARK    4  A    between atoms: C_16  and  C_19
REMARK    5  A    between atoms: C_22  and  C_24
REMARK    6  A    between atoms: C_23  and  C_25
REMARK                            x       y       z     vdW  Elec       q    Type
REMARK                         _______ _______ _______ _____ _____    ______ ____
ROOT
ATOM      3  N   UNL     1      -3.405   3.885  24.258  0.00  0.00    -0.297 NA
ATOM      7  C   UNL     1      -0.954   3.998  25.131  0.00  0.00    +0.002 C 
ATOM      8  C   UNL     1      -3.377   3.646  25.725  0.00  0.00    +0.074 C 
ATOM      9  C   UNL     1      -1.050   3.058  23.898  0.00  0.00    +0.055 C 
ATOM     10  C   UNL     1      -1.923   3.504  26.225  0.00  0.00    +0.024 C 
ATOM     11  C   UNL     1      -1.457   5.384  24.673  0.00  0.00    +0.019 C 
ATOM     12  C   UNL     1      -2.559   2.883  23.563  0.00  0.00    +0.094 C 
ATOM     13  C   UNL     1      -2.834   5.230  24.004  0.00  0.00    +0.085 C 
ENDROOT
BRANCH   9  15
ATOM      5  N   UNL     1      -1.036   0.648  24.316  0.00  0.00    -0.237 NA
ATOM      6  N   UNL     1       0.954  -0.688  24.064  0.00  0.00    -0.232 NA
ATOM     15  C   UNL     1      -0.313   1.727  23.950  0.00  0.00    +0.050 A 
ATOM     21  C   UNL     1       1.029   1.679  23.632  0.00  0.00    +0.052 A 
ATOM     22  C   UNL     1       1.616   0.432  23.707  0.00  0.00    +0.081 A 
ATOM     23  C   UNL     1      -0.350  -0.510  24.351  0.00  0.00    +0.127 A 
ATOM     25  C   UNL     1      -1.115  -1.726  24.749  0.00  0.00    +0.088 C 
BRANCH  22  24
ATOM      1  S   UNL     1       3.759  -1.233  23.855  0.00  0.00    -0.095 S 
ATOM     24  C   UNL     1       3.008   0.239  23.402  0.00  0.00    +0.038 A 
ATOM     26  C   UNL     1       3.886   1.093  22.771  0.00  0.00    +0.017 A 
ATOM     27  C   UNL     1       5.190   0.531  22.656  0.00  0.00    +0.008 A 
ATOM     28  C   UNL     1       5.261  -0.729  23.205  0.00  0.00    +0.046 A 
ENDBRANCH  22  24
ENDBRANCH   9  15
BRANCH   8  14
ATOM     14  C   UNL     1      -4.242   2.455  26.138  0.00  0.00    +0.123 C 
BRANCH  14   4
ATOM      2  O   UNL     1      -5.842   0.492  24.785  0.00  0.00    -0.276 OA
ATOM      4  N   UNL     1      -3.781   1.249  25.521  0.00  0.00    -0.314 N 
ATOM     19  C   UNL     1      -4.619   0.338  24.879  0.00  0.00    +0.216 C 
ATOM     29  H   UNL     1      -2.786   1.047  25.560  0.00  0.00    +0.149 HD
BRANCH  19  16
ATOM     16  C   UNL     1      -3.883  -0.887  24.304  0.00  0.00    +0.075 C 
ATOM     17  C   UNL     1      -3.611  -2.065  25.262  0.00  0.00    +0.013 C 
ATOM     18  C   UNL     1      -4.706  -1.874  23.449  0.00  0.00    +0.013 C 
ATOM     20  C   UNL     1      -3.845  -3.000  24.057  0.00  0.00    +0.001 C 
ENDBRANCH  19  16
ENDBRANCH  14   4
ENDBRANCH   8  14
TORSDOF 5
ENDMDL
MODEL 6
REMARK VINA RESULT:      -0.0      2.602      5.866
REMARK  Name = 26742396
REMARK  6 active torsions:
REMARK  status: ('A' for Active; 'I' for Inactive)
REMARK    1  A    between atoms: N_4  and  C_14
REMARK    2  A    between atoms: C_8  and  C_14
REMARK    3  A    between atoms: C_9  and  C_15
REMARK    4  A    between atoms: C_16  and  C_19
REMARK    5  A    between atoms: C_22  and  C_24
REMARK    6  A    between atoms: C_23  and  C_25
REMARK                            x       y       z     vdW  Elec       q    Type
REMARK                         _______ _______ _______ _____ _____    ______ ____
ROOT
ATOM      3  N   UNL     1      -4.290  -1.418  25.708  0.00  0.00    -0.297 NA
ATOM      7  C   UNL     1      -2.942  -1.179  23.493  0.00  0.00    +0.002 C 
ATOM      8  C   UNL     1      -4.883  -0.346  24.865  0.00  0.00    +0.074 C 
ATOM      9  C   UNL     1      -1.984  -1.168  24.717  0.00  0.00    +0.055 C 
ATOM     10  C   UNL     1      -3.980  -0.049  23.648  0.00  0.00    +0.024 C 
ATOM     11  C   UNL     1      -3.714  -2.515  23.544  0.00  0.00    +0.019 C 
ATOM     12  C   UNL     1      -2.867  -1.110  25.996  0.00  0.00    +0.094 C 
ATOM     13  C   UNL     1      -4.344  -2.684  24.938  0.00  0.00    +0.085 C 
ENDROOT
BRANCH   9  15
ATOM      5  N   UNL     1      -0.984   0.868  25.631  0.00  0.00    -0.237 NA
ATOM      6  N   UNL     1       1.118   1.736  24.834  0.00  0.00    -0.232 NA
ATOM     15  C   UNL     1      -0.863  -0.140  24.742  0.00  0.00    +0.050 A 
ATOM     21  C   UNL     1       0.204  -0.275  23.877  0.00  0.00    +0.052 A 
ATOM     22  C   UNL     1       1.175   0.702  23.969  0.00  0.00    +0.081 A 
ATOM     23  C   UNL     1       0.027   1.757  25.624  0.00  0.00    +0.127 A 
ATOM     25  C   UNL     1      -0.070   2.885  26.594  0.00  0.00    +0.088 C 
BRANCH  22  24
ATOM      1  S   UNL     1       2.291  -0.212  21.666  0.00  0.00    -0.095 S 
ATOM     24  C   UNL     1       2.340   0.683  23.126  0.00  0.00    +0.038 A 
ATOM     26  C   UNL     1       3.556   1.302  23.311  0.00  0.00    +0.017 A 
ATOM     27  C   UNL     1       4.459   1.039  22.242  0.00  0.00    +0.008 A 
ATOM     28  C   UNL     1       3.900   0.228  21.280  0.00  0.00    +0.046 A 
ENDBRANCH  22  24
ENDBRANCH   9  15
BRANCH   8  14
ATOM     14  C   UNL     1      -5.196   0.920  25.665  0.00  0.00    +0.123 C 
BRANCH  14   4
ATOM      2  O   UNL     1      -5.864   3.712  25.708  0.00  0.00    -0.276 OA
ATOM      4  N   UNL     1      -4.365   2.007  25.249  0.00  0.00    -0.314 N 
ATOM     19  C   UNL     1      -4.757   3.344  25.297  0.00  0.00    +0.216 C 
ATOM     29  H   UNL     1      -3.439   1.787  24.893  0.00  0.00    +0.149 HD
BRANCH  19  16
ATOM     16  C   UNL     1      -3.687   4.327  24.783  0.00  0.00    +0.075 C 
ATOM     17  C   UNL     1      -2.681   4.882  25.812  0.00  0.00    +0.013 C 
ATOM     18  C   UNL     1      -2.476   3.731  24.035  0.00  0.00    +0.013 C 
ATOM     20  C   UNL     1      -1.625   4.840  24.689  0.00  0.00    +0.001 C 
ENDBRANCH  19  16
ENDBRANCH  14   4
ENDBRANCH   8  14
TORSDOF 5
ENDMDL
MODEL 7
REMARK VINA RESULT:       0.1      2.035      5.063
REMARK  Name = 26742396
REMARK  6 active torsions:
REMARK  status: ('A' for Active; 'I' for Inactive)
REMARK    1  A    between atoms: N_4  and  C_14
REMARK    2  A    between atoms: C_8  and  C_14
REMARK    3  A    between atoms: C_9  and  C_15
REMARK    4  A    between atoms: C_16  and  C_19
REMARK    5  A    between atoms: C_22  and  C_24
REMARK    6  A    between atoms: C_23  and  C_25
REMARK                            x       y       z     vdW  Elec       q    Type
REMARK                         _______ _______ _______ _____ _____    ______ ____
ROOT
ATOM      3  N   UNL     1      -0.563   4.241  25.545  0.00  0.00    -0.297 NA
ATOM      7  C   UNL     1      -2.390   3.966  23.708  0.00  0.00    +0.002 C 
ATOM      8  C   UNL     1      -0.078   3.325  24.479  0.00  0.00    +0.074 C 
ATOM      9  C   UNL     1      -2.998   3.736  25.119  0.00  0.00    +0.055 C 
ATOM     10  C   UNL     1      -1.217   2.987  23.492  0.00  0.00    +0.024 C 
ATOM     11  C   UNL     1      -1.795   5.392  23.707  0.00  0.00    +0.019 C 
ATOM     12  C   UNL     1      -1.820   3.716  26.135  0.00  0.00    +0.094 C 
ATOM     13  C   UNL     1      -0.859   5.552  24.918  0.00  0.00    +0.085 C 
ENDROOT
BRANCH   9  15
ATOM      5  N   UNL     1      -5.134   2.826  25.890  0.00  0.00    -0.237 NA
ATOM      6  N   UNL     1      -5.684   0.489  25.681  0.00  0.00    -0.232 NA
ATOM     15  C   UNL     1      -3.944   2.560  25.311  0.00  0.00    +0.050 A 
ATOM     21  C   UNL     1      -3.558   1.302  24.897  0.00  0.00    +0.052 A 
ATOM     22  C   UNL     1      -4.477   0.294  25.109  0.00  0.00    +0.081 A 
ATOM     23  C   UNL     1      -5.943   1.761  26.042  0.00  0.00    +0.127 A 
ATOM     25  C   UNL     1      -7.268   2.016  26.676  0.00  0.00    +0.088 C 
BRANCH  22  24
ATOM      1  S   UNL     1      -3.170  -2.010  25.714  0.00  0.00    -0.095 S 
ATOM     24  C   UNL     1      -4.203  -1.065  24.726  0.00  0.00    +0.038 A 
ATOM     26  C   UNL     1      -4.660  -1.769  23.635  0.00  0.00    +0.017 A 
ATOM     27  C   UNL     1      -4.158  -3.102  23.609  0.00  0.00    +0.008 A 
ATOM     28  C   UNL     1      -3.335  -3.366  24.680  0.00  0.00    +0.046 A 
ENDBRANCH  22  24
ENDBRANCH   9  15
BRANCH   8  14
ATOM     14  C   UNL     1       0.576   2.065  25.048  0.00  0.00    +0.123 C 
BRANCH  14   4
ATOM      2  O   UNL     1       0.569  -0.222  23.311  0.00  0.00    -0.276 OA
ATOM      4  N   UNL     1       1.647   1.622  24.209  0.00  0.00    -0.314 N 
ATOM     19  C   UNL     1       1.573   0.496  23.388  0.00  0.00    +0.216 C 
ATOM     29  H   UNL     1       2.510   2.157  24.219  0.00  0.00    +0.149 HD
BRANCH  19  16
ATOM     16  C   UNL     1       2.861   0.222  22.589  0.00  0.00    +0.075 C 
ATOM     17  C   UNL     1       3.970   1.293  22.643  0.00  0.00    +0.013 C 
ATOM     18  C   UNL     1       3.883  -0.757  23.204  0.00  0.00    +0.013 C 
ATOM     20  C   UNL     1       4.987   0.133  22.595  0.00  0.00    +0.001 C 
ENDBRANCH  19  16
ENDBRANCH  14   4
ENDBRANCH   8  14
TORSDOF 5
ENDMDL
MODEL 8
REMARK VINA RESULT:       0.6      3.123      5.670
REMARK  Name = 26742396
REMARK  6 active torsions:
REMARK  status: ('A' for Active; 'I' for Inactive)
REMARK    1  A    between atoms: N_4  and  C_14
REMARK    2  A    between atoms: C_8  and  C_14
REMARK    3  A    between atoms: C_9  and  C_15
REMARK    4  A    between atoms: C_16  and  C_19
REMARK    5  A    between atoms: C_22  and  C_24
REMARK    6  A    between atoms: C_23  and  C_25
REMARK                            x       y       z     vdW  Elec       q    Type
REMARK                         _______ _______ _______ _____ _____    ______ ____
ROOT
ATOM      3  N   UNL     1      -5.154   2.947  23.891  0.00  0.00    -0.297 NA
ATOM      7  C   UNL     1      -4.002   3.436  26.176  0.00  0.00    +0.002 C 
ATOM      8  C   UNL     1      -5.470   1.865  24.862  0.00  0.00    +0.074 C 
ATOM      9  C   UNL     1      -2.980   3.562  25.013  0.00  0.00    +0.055 C 
ATOM     10  C   UNL     1      -4.634   2.029  26.150  0.00  0.00    +0.024 C 
ATOM     11  C   UNL     1      -5.134   4.446  25.884  0.00  0.00    +0.019 C 
ATOM     12  C   UNL     1      -3.684   3.062  23.719  0.00  0.00    +0.094 C 
ATOM     13  C   UNL     1      -5.656   4.223  24.454  0.00  0.00    +0.085 C 
ENDROOT
BRANCH   9  15
ATOM      5  N   UNL     1      -1.110   2.240  24.154  0.00  0.00    -0.237 NA
ATOM      6  N   UNL     1       0.863   1.800  25.467  0.00  0.00    -0.232 NA
ATOM     15  C   UNL     1      -1.603   2.940  25.196  0.00  0.00    +0.050 A 
ATOM     21  C   UNL     1      -0.933   3.111  26.391  0.00  0.00    +0.052 A 
ATOM     22  C   UNL     1       0.308   2.513  26.470  0.00  0.00    +0.081 A 
ATOM     23  C   UNL     1       0.110   1.705  24.355  0.00  0.00    +0.127 A 
ATOM     25  C   UNL     1       0.690   0.925  23.224  0.00  0.00    +0.088 C 
BRANCH  22  24
ATOM      1  S   UNL     1       0.480   2.026  29.139  0.00  0.00    -0.095 S 
ATOM     24  C   UNL     1       1.114   2.611  27.658  0.00  0.00    +0.038 A 
ATOM     26  C   UNL     1       2.382   3.128  27.808  0.00  0.00    +0.017 A 
ATOM     27  C   UNL     1       2.840   3.042  29.154  0.00  0.00    +0.008 A 
ATOM     28  C   UNL     1       1.904   2.464  29.982  0.00  0.00    +0.046 A 
ENDBRANCH  22  24
ENDBRANCH   9  15
BRANCH   8  14
ATOM     14  C   UNL     1      -5.313   0.471  24.253  0.00  0.00    +0.123 C 
BRANCH  14   4
ATOM      2  O   UNL     1      -4.505  -2.240  23.763  0.00  0.00    -0.276 OA
ATOM      4  N   UNL     1      -4.149  -0.183  24.766  0.00  0.00    -0.314 N 
ATOM     19  C   UNL     1      -3.818  -1.509  24.485  0.00  0.00    +0.216 C 
ATOM     29  H   UNL     1      -3.533   0.351  25.373  0.00  0.00    +0.149 HD
BRANCH  19  16
ATOM     16  C   UNL     1      -2.520  -1.985  25.165  0.00  0.00    +0.075 C 
ATOM     17  C   UNL     1      -1.279  -2.174  24.268  0.00  0.00    +0.013 C 
ATOM     18  C   UNL     1      -1.701  -0.936  25.945  0.00  0.00    +0.013 C 
ATOM     20  C   UNL     1      -0.436  -1.675  25.460  0.00  0.00    +0.001 C 
ENDBRANCH  19  16
ENDBRANCH  14   4
ENDBRANCH   8  14
TORSDOF 5
ENDMDL
MODEL 9
REMARK VINA RESULT:       0.9      3.467      5.734
REMARK  Name = 26742396
REMARK  6 active torsions:
REMARK  status: ('A' for Active; 'I' for Inactive)
REMARK    1  A    between atoms: N_4  and  C_14
REMARK    2  A    between atoms: C_8  and  C_14
REMARK    3  A    between atoms: C_9  and  C_15
REMARK    4  A    between atoms: C_16  and  C_19
REMARK    5  A    between atoms: C_22  and  C_24
REMARK    6  A    between atoms: C_23  and  C_25
REMARK                            x       y       z     vdW  Elec       q    Type
REMARK                         _______ _______ _______ _____ _____    ______ ____
ROOT
ATOM      3  N   UNL     1      -3.937  -1.603  25.559  0.00  0.00    -0.297 NA
ATOM      7  C   UNL     1      -2.187  -0.929  23.752  0.00  0.00    +0.002 C 
ATOM      8  C   UNL     1      -4.565  -0.707  24.553  0.00  0.00    +0.074 C 
ATOM      9  C   UNL     1      -1.613  -0.698  25.177  0.00  0.00    +0.055 C 
ATOM     10  C   UNL     1      -3.499  -0.133  23.594  0.00  0.00    +0.024 C 
ATOM     11  C   UNL     1      -2.551  -2.427  23.656  0.00  0.00    +0.019 C 
ATOM     12  C   UNL     1      -2.774  -0.927  26.187  0.00  0.00    +0.094 C 
ATOM     13  C   UNL     1      -3.444  -2.809  24.850  0.00  0.00    +0.085 C 
ENDROOT
BRANCH   9  15
ATOM      5  N   UNL     1      -0.732   1.451  24.411  0.00  0.00    -0.237 NA
ATOM      6  N   UNL     1       0.480   2.936  25.872  0.00  0.00    -0.232 NA
ATOM     15  C   UNL     1      -0.861   0.597  25.448  0.00  0.00    +0.050 A 
ATOM     21  C   UNL     1      -0.353   0.838  26.708  0.00  0.00    +0.052 A 
ATOM     22  C   UNL     1       0.314   2.036  26.864  0.00  0.00    +0.081 A 
ATOM     23  C   UNL     1      -0.060   2.585  24.689  0.00  0.00    +0.127 A 
ATOM     25  C   UNL     1       0.102   3.555  23.570  0.00  0.00    +0.088 C 
BRANCH  22  24
ATOM      1  S   UNL     1       2.519   2.954  28.161  0.00  0.00    -0.095 S 
ATOM     24  C   UNL     1       0.893   2.413  28.125  0.00  0.00    +0.038 A 
ATOM     26  C   UNL     1       0.323   2.410  29.379  0.00  0.00    +0.017 A 
ATOM     27  C   UNL     1       1.230   2.858  30.381  0.00  0.00    +0.008 A 
ATOM     28  C   UNL     1       2.460   3.186  29.857  0.00  0.00    +0.046 A 
ENDBRANCH  22  24
ENDBRANCH   9  15
BRANCH   8  14
ATOM     14  C   UNL     1      -5.405   0.396  25.199  0.00  0.00    +0.123 C 
BRANCH  14   4
ATOM      2  O   UNL     1      -6.177   2.831  26.509  0.00  0.00    -0.276 OA
ATOM      4  N   UNL     1      -4.732   1.657  25.132  0.00  0.00    -0.314 N 
ATOM     19  C   UNL     1      -5.167   2.803  25.797  0.00  0.00    +0.216 C 
ATOM     29  H   UNL     1      -3.894   1.717  24.561  0.00  0.00    +0.149 HD
BRANCH  19  16
ATOM     16  C   UNL     1      -4.277   4.038  25.558  0.00  0.00    +0.075 C 
ATOM     17  C   UNL     1      -2.952   4.118  26.343  0.00  0.00    +0.013 C 
ATOM     18  C   UNL     1      -3.428   4.063  24.271  0.00  0.00    +0.013 C 
ATOM     20  C   UNL     1      -2.341   4.786  25.093  0.00  0.00    +0.001 C 
ENDBRANCH  19  16
ENDBRANCH  14   4
ENDBRANCH   8  14
TORSDOF 5
ENDMDL
