MODEL 1
REMARK VINA RESULT:       0.5      0.000      0.000
REMARK  Name = 38030450
REMARK  10 active torsions:
REMARK  status: ('A' for Active; 'I' for Inactive)
REMARK    1  A    between atoms: N_3  and  C_13
REMARK    2  A    between atoms: C_8  and  C_12
REMARK    3  A    between atoms: C_9  and  C_13
REMARK    4  A    between atoms: C_11  and  C_18
REMARK    5  A    between atoms: C_12  and  C_22
REMARK    6  A    between atoms: C_12  and  C_23
REMARK    7  A    between atoms: C_15  and  C_24
REMARK    8  A    between atoms: C_18  and  C_25
REMARK    9  A    between atoms: C_19  and  C_26
REMARK   10  A    between atoms: C_27  and  C_28
REMARK                            x       y       z     vdW  Elec       q    Type
REMARK                         _______ _______ _______ _____ _____    ______ ____
ROOT
ATOM      8  C   UNL     1      -2.577   3.104  25.691  0.00  0.00    +0.000 C 
ATOM      9  C   UNL     1      -4.087   3.180  25.364  0.00  0.00    +0.029 C 
ATOM     10  C   UNL     1      -1.850   2.210  24.677  0.00  0.00    +0.012 C 
ATOM     11  C   UNL     1      -2.037   2.668  23.215  0.00  0.00    +0.024 C 
ATOM     14  C   UNL     1      -4.352   3.369  23.892  0.00  0.00    -0.023 C 
ATOM     15  C   UNL     1      -3.447   3.157  22.919  0.00  0.00    -0.073 C 
ATOM     24  C   UNL     1      -3.791   3.460  21.486  0.00  0.00    +0.039 C 
ENDROOT
BRANCH   8  12
ATOM     12  C   UNL     1      -1.947   4.502  25.750  0.00  0.00    -0.013 C 
ATOM     22  C   UNL     1      -0.648   4.535  24.951  0.00  0.00    +0.007 C 
ATOM     23  C   UNL     1      -2.927   5.550  25.232  0.00  0.00    +0.007 C 
ENDBRANCH   8  12
BRANCH   9  13
ATOM     13  C   UNL     1      -4.835   1.936  25.856  0.00  0.00    +0.092 C 
BRANCH  13   3
ATOM      3  N   UNL     1      -4.191   0.719  25.366  0.00  0.00    -0.302 NA
ATOM     16  C   UNL     1      -4.021  -0.249  26.459  0.00  0.00    +0.085 C 
ATOM     17  C   UNL     1      -4.963   0.138  24.258  0.00  0.00    +0.085 C 
ATOM     19  C   UNL     1      -4.027  -2.144  24.792  0.00  0.00    +0.077 C 
ATOM     20  C   UNL     1      -3.298  -1.506  25.974  0.00  0.00    +0.028 C 
ATOM     21  C   UNL     1      -4.273  -1.107  23.699  0.00  0.00    +0.028 C 
BRANCH  19  26
ATOM      2  O   UNL     1      -3.746  -4.309  23.824  0.00  0.00    -0.276 OA
ATOM      5  N   UNL     1      -1.865  -3.057  24.260  0.00  0.00    -0.329 N 
ATOM     26  C   UNL     1      -3.222  -3.278  24.238  0.00  0.00    +0.214 C 
ATOM     33  H   UNL     1      -1.450  -2.216  24.648  0.00  0.00    +0.145 HD
ATOM     34  H   UNL     1      -1.220  -3.758  23.910  0.00  0.00    +0.145 HD
ENDBRANCH  19  26
ENDBRANCH  13   3
ENDBRANCH   9  13
BRANCH  11  18
ATOM     18  C   UNL     1      -1.593   1.532  22.284  0.00  0.00    +0.105 C 
BRANCH  18  25
ATOM      1  O   UNL     1       0.717   0.857  22.692  0.00  0.00    -0.420 OA
ATOM      4  N   UNL     1      -0.802  -0.371  23.783  0.00  0.00    -0.112 NA
ATOM      6  N   UNL     1       0.451  -0.859  24.103  0.00  0.00    -0.107 NA
ATOM     25  C   UNL     1      -0.599   0.629  22.958  0.00  0.00    +0.218 A 
ATOM     27  C   UNL     1       1.306  -0.112  23.445  0.00  0.00    +0.250 A 
BRANCH  27  28
ATOM      7  N   UNL     1       4.776  -1.402  23.777  0.00  0.00    -0.263 NA
ATOM     28  C   UNL     1       2.738  -0.159  23.397  0.00  0.00    +0.057 A 
ATOM     29  C   UNL     1       3.478   0.929  22.947  0.00  0.00    +0.016 A 
ATOM     30  C   UNL     1       3.429  -1.292  23.797  0.00  0.00    +0.124 A 
ATOM     31  C   UNL     1       4.866   0.853  22.910  0.00  0.00    +0.020 A 
ATOM     32  C   UNL     1       5.461  -0.325  23.333  0.00  0.00    +0.111 A 
ENDBRANCH  27  28
ENDBRANCH  18  25
ENDBRANCH  11  18
TORSDOF 7
ENDMDL
MODEL 2
REMARK VINA RESULT:       1.0      1.868      5.992
REMARK  Name = 38030450
REMARK  10 active torsions:
REMARK  status: ('A' for Active; 'I' for Inactive)
REMARK    1  A    between atoms: N_3  and  C_13
REMARK    2  A    between atoms: C_8  and  C_12
REMARK    3  A    between atoms: C_9  and  C_13
REMARK    4  A    between atoms: C_11  and  C_18
REMARK    5  A    between atoms: C_12  and  C_22
REMARK    6  A    between atoms: C_12  and  C_23
REMARK    7  A    between atoms: C_15  and  C_24
REMARK    8  A    between atoms: C_18  and  C_25
REMARK    9  A    between atoms: C_19  and  C_26
REMARK   10  A    between atoms: C_27  and  C_28
REMARK                            x       y       z     vdW  Elec       q    Type
REMARK                         _______ _______ _______ _____ _____    ______ ____
ROOT
ATOM      8  C   UNL     1      -2.008   3.946  23.717  0.00  0.00    +0.000 C 
ATOM      9  C   UNL     1      -1.234   3.074  24.734  0.00  0.00    +0.029 C 
ATOM     10  C   UNL     1      -3.519   3.861  23.975  0.00  0.00    +0.012 C 
ATOM     11  C   UNL     1      -3.918   4.269  25.409  0.00  0.00    +0.024 C 
ATOM     14  C   UNL     1      -1.751   3.229  26.141  0.00  0.00    -0.023 C 
ATOM     15  C   UNL     1      -2.940   3.770  26.464  0.00  0.00    -0.073 C 
ATOM     24  C   UNL     1      -3.322   3.956  27.907  0.00  0.00    +0.039 C 
ENDROOT
BRANCH   8  12
ATOM     12  C   UNL     1      -1.522   5.401  23.743  0.00  0.00    -0.013 C 
ATOM     22  C   UNL     1      -2.705   6.356  23.854  0.00  0.00    +0.007 C 
ATOM     23  C   UNL     1      -0.545   5.615  24.894  0.00  0.00    +0.007 C 
ENDBRANCH   8  12
BRANCH   9  13
ATOM     13  C   UNL     1      -1.263   1.592  24.346  0.00  0.00    +0.092 C 
BRANCH  13   3
ATOM      3  N   UNL     1       0.094   1.058  24.244  0.00  0.00    -0.302 NA
ATOM     16  C   UNL     1       0.120  -0.116  23.360  0.00  0.00    +0.085 C 
ATOM     17  C   UNL     1       1.022   2.096  23.774  0.00  0.00    +0.085 C 
ATOM     19  C   UNL     1       2.551   0.320  22.840  0.00  0.00    +0.077 C 
ATOM     20  C   UNL     1       1.523  -0.720  23.287  0.00  0.00    +0.028 C 
ATOM     21  C   UNL     1       2.456   1.569  23.713  0.00  0.00    +0.028 C 
BRANCH  19  26
ATOM      2  O   UNL     1       4.878   0.238  22.311  0.00  0.00    -0.276 OA
ATOM      5  N   UNL     1       4.026  -1.360  23.730  0.00  0.00    -0.329 N 
ATOM     26  C   UNL     1       3.933  -0.250  22.926  0.00  0.00    +0.214 C 
ATOM     33  H   UNL     1       3.224  -1.774  24.193  0.00  0.00    +0.145 HD
ATOM     34  H   UNL     1       4.916  -1.832  23.862  0.00  0.00    +0.145 HD
ENDBRANCH  19  26
ENDBRANCH  13   3
ENDBRANCH   9  13
BRANCH  11  18
ATOM     18  C   UNL     1      -5.358   3.808  25.667  0.00  0.00    +0.105 C 
BRANCH  18  25
ATOM      1  O   UNL     1      -4.485   1.560  25.295  0.00  0.00    -0.420 OA
ATOM      4  N   UNL     1      -6.650   1.798  24.785  0.00  0.00    -0.112 NA
ATOM      6  N   UNL     1      -6.293   0.487  24.529  0.00  0.00    -0.107 NA
ATOM     25  C   UNL     1      -5.565   2.386  25.231  0.00  0.00    +0.218 A 
ATOM     27  C   UNL     1      -5.021   0.394  24.841  0.00  0.00    +0.250 A 
BRANCH  27  28
ATOM      7  N   UNL     1      -2.097  -1.790  25.542  0.00  0.00    -0.263 NA
ATOM     28  C   UNL     1      -4.127  -0.725  24.777  0.00  0.00    +0.057 A 
ATOM     29  C   UNL     1      -4.383  -1.801  23.935  0.00  0.00    +0.016 A 
ATOM     30  C   UNL     1      -2.980  -0.768  25.554  0.00  0.00    +0.124 A 
ATOM     31  C   UNL     1      -3.497  -2.873  23.895  0.00  0.00    +0.020 A 
ATOM     32  C   UNL     1      -2.379  -2.819  24.711  0.00  0.00    +0.111 A 
ENDBRANCH  27  28
ENDBRANCH  18  25
ENDBRANCH  11  18
TORSDOF 7
ENDMDL
MODEL 3
REMARK VINA RESULT:       1.9      1.582      2.763
REMARK  Name = 38030450
REMARK  10 active torsions:
REMARK  status: ('A' for Active; 'I' for Inactive)
REMARK    1  A    between atoms: N_3  and  C_13
REMARK    2  A    between atoms: C_8  and  C_12
REMARK    3  A    between atoms: C_9  and  C_13
REMARK    4  A    between atoms: C_11  and  C_18
REMARK    5  A    between atoms: C_12  and  C_22
REMARK    6  A    between atoms: C_12  and  C_23
REMARK    7  A    between atoms: C_15  and  C_24
REMARK    8  A    between atoms: C_18  and  C_25
REMARK    9  A    between atoms: C_19  and  C_26
REMARK   10  A    between atoms: C_27  and  C_28
REMARK                            x       y       z     vdW  Elec       q    Type
REMARK                         _______ _______ _______ _____ _____    ______ ____
ROOT
ATOM      8  C   UNL     1      -4.462   2.899  25.297  0.00  0.00    +0.000 C 
ATOM      9  C   UNL     1      -4.191   3.532  23.912  0.00  0.00    +0.029 C 
ATOM     10  C   UNL     1      -3.141   2.584  26.013  0.00  0.00    +0.012 C 
ATOM     11  C   UNL     1      -2.229   3.818  26.183  0.00  0.00    +0.024 C 
ATOM     14  C   UNL     1      -3.109   4.581  23.957  0.00  0.00    -0.023 C 
ATOM     15  C   UNL     1      -2.232   4.733  24.966  0.00  0.00    -0.073 C 
ATOM     24  C   UNL     1      -1.246   5.869  24.950  0.00  0.00    +0.039 C 
ENDROOT
BRANCH   8  12
ATOM     12  C   UNL     1      -5.360   3.798  26.157  0.00  0.00    -0.013 C 
ATOM     22  C   UNL     1      -5.963   4.914  25.312  0.00  0.00    +0.007 C 
ATOM     23  C   UNL     1      -6.455   2.973  26.825  0.00  0.00    +0.007 C 
ENDBRANCH   8  12
BRANCH   9  13
ATOM     13  C   UNL     1      -3.823   2.473  22.868  0.00  0.00    +0.092 C 
BRANCH  13   3
ATOM      3  N   UNL     1      -3.418   1.227  23.516  0.00  0.00    -0.302 NA
ATOM     16  C   UNL     1      -4.582   0.550  24.103  0.00  0.00    +0.085 C 
ATOM     17  C   UNL     1      -2.721   0.353  22.561  0.00  0.00    +0.085 C 
ATOM     19  C   UNL     1      -3.399  -1.671  23.907  0.00  0.00    +0.077 C 
ATOM     20  C   UNL     1      -4.166  -0.728  24.834  0.00  0.00    +0.028 C 
ATOM     21  C   UNL     1      -2.242  -0.932  23.238  0.00  0.00    +0.028 C 
BRANCH  19  26
ATOM      2  O   UNL     1      -3.610  -3.699  25.150  0.00  0.00    -0.276 OA
ATOM      5  N   UNL     1      -1.503  -2.835  24.823  0.00  0.00    -0.329 N 
ATOM     26  C   UNL     1      -2.870  -2.838  24.680  0.00  0.00    +0.214 C 
ATOM     33  H   UNL     1      -0.913  -2.091  24.466  0.00  0.00    +0.145 HD
ATOM     34  H   UNL     1      -1.032  -3.578  25.330  0.00  0.00    +0.145 HD
ENDBRANCH  19  26
ENDBRANCH  13   3
ENDBRANCH   9  13
BRANCH  11  18
ATOM     18  C   UNL     1      -0.823   3.340  26.566  0.00  0.00    +0.105 C 
BRANCH  18  25
ATOM      1  O   UNL     1       0.520   2.184  24.887  0.00  0.00    -0.420 OA
ATOM      4  N   UNL     1      -0.935   0.867  25.963  0.00  0.00    -0.112 NA
ATOM      6  N   UNL     1      -0.249   0.088  25.050  0.00  0.00    -0.107 NA
ATOM     25  C   UNL     1      -0.454   2.081  25.833  0.00  0.00    +0.218 A 
ATOM     27  C   UNL     1       0.590   0.897  24.446  0.00  0.00    +0.250 A 
BRANCH  27  28
ATOM      7  N   UNL     1       2.074  -0.404  21.296  0.00  0.00    -0.263 NA
ATOM     28  C   UNL     1       1.549   0.641  23.412  0.00  0.00    +0.057 A 
ATOM     29  C   UNL     1       2.840   1.152  23.487  0.00  0.00    +0.016 A 
ATOM     30  C   UNL     1       1.219  -0.125  22.305  0.00  0.00    +0.124 A 
ATOM     31  C   UNL     1       3.749   0.887  22.468  0.00  0.00    +0.020 A 
ATOM     32  C   UNL     1       3.319   0.110  21.404  0.00  0.00    +0.111 A 
ENDBRANCH  27  28
ENDBRANCH  18  25
ENDBRANCH  11  18
TORSDOF 7
ENDMDL
MODEL 4
REMARK VINA RESULT:       2.1      2.104      5.003
REMARK  Name = 38030450
REMARK  10 active torsions:
REMARK  status: ('A' for Active; 'I' for Inactive)
REMARK    1  A    between atoms: N_3  and  C_13
REMARK    2  A    between atoms: C_8  and  C_12
REMARK    3  A    between atoms: C_9  and  C_13
REMARK    4  A    between atoms: C_11  and  C_18
REMARK    5  A    between atoms: C_12  and  C_22
REMARK    6  A    between atoms: C_12  and  C_23
REMARK    7  A    between atoms: C_15  and  C_24
REMARK    8  A    between atoms: C_18  and  C_25
REMARK    9  A    between atoms: C_19  and  C_26
REMARK   10  A    between atoms: C_27  and  C_28
REMARK                            x       y       z     vdW  Elec       q    Type
REMARK                         _______ _______ _______ _____ _____    ______ ____
ROOT
ATOM      8  C   UNL     1      -4.232  -0.999  23.852  0.00  0.00    +0.000 C 
ATOM      9  C   UNL     1      -4.398  -0.570  25.329  0.00  0.00    +0.029 C 
ATOM     10  C   UNL     1      -3.129  -0.177  23.172  0.00  0.00    +0.012 C 
ATOM     11  C   UNL     1      -1.766  -0.272  23.891  0.00  0.00    +0.024 C 
ATOM     14  C   UNL     1      -3.076  -0.388  26.031  0.00  0.00    -0.023 C 
ATOM     15  C   UNL     1      -1.890  -0.265  25.408  0.00  0.00    -0.073 C 
ATOM     24  C   UNL     1      -0.619  -0.175  26.208  0.00  0.00    +0.039 C 
ENDROOT
BRANCH   8  12
ATOM     12  C   UNL     1      -3.955  -2.504  23.735  0.00  0.00    -0.013 C 
ATOM     22  C   UNL     1      -3.580  -3.084  25.094  0.00  0.00    +0.007 C 
ATOM     23  C   UNL     1      -5.168  -3.224  23.156  0.00  0.00    +0.007 C 
ENDBRANCH   8  12
BRANCH   9  13
ATOM     13  C   UNL     1      -5.217   0.719  25.455  0.00  0.00    +0.092 C 
BRANCH  13   3
ATOM      3  N   UNL     1      -4.368   1.893  25.255  0.00  0.00    -0.302 NA
ATOM     16  C   UNL     1      -4.386   2.307  23.846  0.00  0.00    +0.085 C 
ATOM     17  C   UNL     1      -4.792   2.990  26.137  0.00  0.00    +0.085 C 
ATOM     19  C   UNL     1      -3.818   4.670  24.525  0.00  0.00    +0.077 C 
ATOM     20  C   UNL     1      -3.458   3.500  23.610  0.00  0.00    +0.028 C 
ATOM     21  C   UNL     1      -3.880   4.207  25.980  0.00  0.00    +0.028 C 
BRANCH  19  26
ATOM      2  O   UNL     1      -2.951   6.693  23.598  0.00  0.00    -0.276 OA
ATOM      5  N   UNL     1      -1.711   5.613  25.207  0.00  0.00    -0.329 N 
ATOM     26  C   UNL     1      -2.805   5.764  24.389  0.00  0.00    +0.214 C 
ATOM     33  H   UNL     1      -1.589   4.814  25.821  0.00  0.00    +0.145 HD
ATOM     34  H   UNL     1      -0.959   6.294  25.199  0.00  0.00    +0.145 HD
ENDBRANCH  19  26
ENDBRANCH  13   3
ENDBRANCH   9  13
BRANCH  11  18
ATOM     18  C   UNL     1      -0.854   0.843  23.363  0.00  0.00    +0.105 C 
BRANCH  18  25
ATOM      1  O   UNL     1       1.531   0.346  23.513  0.00  0.00    -0.420 OA
ATOM      4  N   UNL     1       0.586  -0.270  21.580  0.00  0.00    -0.112 NA
ATOM      6  N   UNL     1       1.925  -0.609  21.528  0.00  0.00    -0.107 NA
ATOM     25  C   UNL     1       0.401   0.284  22.756  0.00  0.00    +0.218 A 
ATOM     27  C   UNL     1       2.437  -0.232  22.676  0.00  0.00    +0.250 A 
BRANCH  27  28
ATOM      7  N   UNL     1       5.498  -1.672  24.215  0.00  0.00    -0.263 NA
ATOM     28  C   UNL     1       3.777  -0.331  23.176  0.00  0.00    +0.057 A 
ATOM     29  C   UNL     1       4.645   0.754  23.122  0.00  0.00    +0.016 A 
ATOM     30  C   UNL     1       4.248  -1.511  23.727  0.00  0.00    +0.124 A 
ATOM     31  C   UNL     1       5.940   0.628  23.614  0.00  0.00    +0.020 A 
ATOM     32  C   UNL     1       6.313  -0.596  24.146  0.00  0.00    +0.111 A 
ENDBRANCH  27  28
ENDBRANCH  18  25
ENDBRANCH  11  18
TORSDOF 7
ENDMDL
MODEL 5
REMARK VINA RESULT:       2.1      2.876      4.672
REMARK  Name = 38030450
REMARK  10 active torsions:
REMARK  status: ('A' for Active; 'I' for Inactive)
REMARK    1  A    between atoms: N_3  and  C_13
REMARK    2  A    between atoms: C_8  and  C_12
REMARK    3  A    between atoms: C_9  and  C_13
REMARK    4  A    between atoms: C_11  and  C_18
REMARK    5  A    between atoms: C_12  and  C_22
REMARK    6  A    between atoms: C_12  and  C_23
REMARK    7  A    between atoms: C_15  and  C_24
REMARK    8  A    between atoms: C_18  and  C_25
REMARK    9  A    between atoms: C_19  and  C_26
REMARK   10  A    between atoms: C_27  and  C_28
REMARK                            x       y       z     vdW  Elec       q    Type
REMARK                         _______ _______ _______ _____ _____    ______ ____
ROOT
ATOM      8  C   UNL     1      -4.810   1.911  26.055  0.00  0.00    +0.000 C 
ATOM      9  C   UNL     1      -4.466   0.815  25.019  0.00  0.00    +0.029 C 
ATOM     10  C   UNL     1      -3.775   3.043  26.007  0.00  0.00    +0.012 C 
ATOM     11  C   UNL     1      -3.636   3.684  24.610  0.00  0.00    +0.024 C 
ATOM     14  C   UNL     1      -4.062   1.388  23.685  0.00  0.00    -0.023 C 
ATOM     15  C   UNL     1      -3.699   2.668  23.479  0.00  0.00    -0.073 C 
ATOM     24  C   UNL     1      -3.398   3.156  22.089  0.00  0.00    +0.039 C 
ENDROOT
BRANCH   8  12
ATOM     12  C   UNL     1      -6.232   2.450  25.848  0.00  0.00    -0.013 C 
ATOM     22  C   UNL     1      -6.207   3.964  25.666  0.00  0.00    +0.007 C 
ATOM     23  C   UNL     1      -6.889   1.772  24.650  0.00  0.00    +0.007 C 
ENDBRANCH   8  12
BRANCH   9  13
ATOM     13  C   UNL     1      -3.358  -0.114  25.525  0.00  0.00    +0.092 C 
BRANCH  13   3
ATOM      3  N   UNL     1      -2.100   0.156  24.832  0.00  0.00    -0.302 NA
ATOM     16  C   UNL     1      -1.033  -0.716  25.343  0.00  0.00    +0.085 C 
ATOM     17  C   UNL     1      -2.267  -0.004  23.381  0.00  0.00    +0.085 C 
ATOM     19  C   UNL     1       0.192  -0.516  23.146  0.00  0.00    +0.077 C 
ATOM     20  C   UNL     1       0.303  -0.406  24.666  0.00  0.00    +0.028 C 
ATOM     21  C   UNL     1      -0.974   0.329  22.636  0.00  0.00    +0.028 C 
BRANCH  19  26
ATOM      2  O   UNL     1       1.834  -0.490  21.411  0.00  0.00    -0.276 OA
ATOM      5  N   UNL     1       2.167   0.856  23.247  0.00  0.00    -0.329 N 
ATOM     26  C   UNL     1       1.464  -0.059  22.500  0.00  0.00    +0.214 C 
ATOM     33  H   UNL     1       1.866   1.165  24.165  0.00  0.00    +0.145 HD
ATOM     34  H   UNL     1       3.046   1.236  22.909  0.00  0.00    +0.145 HD
ENDBRANCH  19  26
ENDBRANCH  13   3
ENDBRANCH   9  13
BRANCH  11  18
ATOM     18  C   UNL     1      -2.353   4.526  24.583  0.00  0.00    +0.105 C 
BRANCH  18  25
ATOM      1  O   UNL     1      -0.803   3.767  26.309  0.00  0.00    -0.420 OA
ATOM      4  N   UNL     1      -0.379   2.946  24.271  0.00  0.00    -0.112 NA
ATOM      6  N   UNL     1       0.567   2.438  25.141  0.00  0.00    -0.107 NA
ATOM     25  C   UNL     1      -1.158   3.716  24.995  0.00  0.00    +0.218 A 
ATOM     27  C   UNL     1       0.281   2.943  26.318  0.00  0.00    +0.250 A 
BRANCH  27  28
ATOM      7  N   UNL     1       2.954   2.795  28.897  0.00  0.00    -0.263 NA
ATOM     28  C   UNL     1       0.922   2.765  27.588  0.00  0.00    +0.057 A 
ATOM     29  C   UNL     1       0.193   2.406  28.716  0.00  0.00    +0.016 A 
ATOM     30  C   UNL     1       2.288   2.946  27.730  0.00  0.00    +0.124 A 
ATOM     31  C   UNL     1       0.842   2.241  29.935  0.00  0.00    +0.020 A 
ATOM     32  C   UNL     1       2.212   2.446  29.971  0.00  0.00    +0.111 A 
ENDBRANCH  27  28
ENDBRANCH  18  25
ENDBRANCH  11  18
TORSDOF 7
ENDMDL
MODEL 6
REMARK VINA RESULT:       3.2      2.208      6.448
REMARK  Name = 38030450
REMARK  10 active torsions:
REMARK  status: ('A' for Active; 'I' for Inactive)
REMARK    1  A    between atoms: N_3  and  C_13
REMARK    2  A    between atoms: C_8  and  C_12
REMARK    3  A    between atoms: C_9  and  C_13
REMARK    4  A    between atoms: C_11  and  C_18
REMARK    5  A    between atoms: C_12  and  C_22
REMARK    6  A    between atoms: C_12  and  C_23
REMARK    7  A    between atoms: C_15  and  C_24
REMARK    8  A    between atoms: C_18  and  C_25
REMARK    9  A    between atoms: C_19  and  C_26
REMARK   10  A    between atoms: C_27  and  C_28
REMARK                            x       y       z     vdW  Elec       q    Type
REMARK                         _______ _______ _______ _____ _____    ______ ____
ROOT
ATOM      8  C   UNL     1      -3.058  -1.524  25.491  0.00  0.00    +0.000 C 
ATOM      9  C   UNL     1      -2.184  -0.554  24.662  0.00  0.00    +0.029 C 
ATOM     10  C   UNL     1      -4.205  -0.767  26.174  0.00  0.00    +0.012 C 
ATOM     11  C   UNL     1      -5.099   0.011  25.183  0.00  0.00    +0.024 C 
ATOM     14  C   UNL     1      -3.005   0.420  23.857  0.00  0.00    -0.023 C 
ATOM     15  C   UNL     1      -4.309   0.678  24.066  0.00  0.00    -0.073 C 
ATOM     24  C   UNL     1      -5.055   1.606  23.147  0.00  0.00    +0.039 C 
ENDROOT
BRANCH   8  12
ATOM     12  C   UNL     1      -3.590  -2.675  24.627  0.00  0.00    -0.013 C 
ATOM     22  C   UNL     1      -4.640  -2.164  23.646  0.00  0.00    +0.007 C 
ATOM     23  C   UNL     1      -2.445  -3.357  23.885  0.00  0.00    +0.007 C 
ENDBRANCH   8  12
BRANCH   9  13
ATOM     13  C   UNL     1      -1.205   0.222  25.549  0.00  0.00    +0.092 C 
BRANCH  13   3
ATOM      3  N   UNL     1       0.123   0.266  24.938  0.00  0.00    -0.302 NA
ATOM     16  C   UNL     1       0.316  -0.884  24.045  0.00  0.00    +0.085 C 
ATOM     17  C   UNL     1       0.318   1.534  24.221  0.00  0.00    +0.085 C 
ATOM     19  C   UNL     1       2.009   0.427  22.709  0.00  0.00    +0.077 C 
ATOM     20  C   UNL     1       1.722  -0.883  23.441  0.00  0.00    +0.028 C 
ATOM     21  C   UNL     1       1.723   1.618  23.622  0.00  0.00    +0.028 C 
BRANCH  19  26
ATOM      2  O   UNL     1       3.753   0.385  21.078  0.00  0.00    -0.276 OA
ATOM      5  N   UNL     1       4.338   0.584  23.294  0.00  0.00    -0.329 N 
ATOM     26  C   UNL     1       3.437   0.468  22.263  0.00  0.00    +0.214 C 
ATOM     33  H   UNL     1       4.058   0.606  24.270  0.00  0.00    +0.145 HD
ATOM     34  H   UNL     1       5.336   0.621  23.111  0.00  0.00    +0.145 HD
ENDBRANCH  19  26
ENDBRANCH  13   3
ENDBRANCH   9  13
BRANCH  11  18
ATOM     18  C   UNL     1      -5.963   1.000  25.975  0.00  0.00    +0.105 C 
BRANCH  18  25
ATOM      1  O   UNL     1      -4.081   2.521  25.653  0.00  0.00    -0.420 OA
ATOM      4  N   UNL     1      -6.039   3.546  26.003  0.00  0.00    -0.112 NA
ATOM      6  N   UNL     1      -5.071   4.519  25.838  0.00  0.00    -0.107 NA
ATOM     25  C   UNL     1      -5.417   2.397  25.887  0.00  0.00    +0.218 A 
ATOM     27  C   UNL     1      -3.945   3.876  25.636  0.00  0.00    +0.250 A 
BRANCH  27  28
ATOM      7  N   UNL     1      -0.232   4.008  25.526  0.00  0.00    -0.263 NA
ATOM     28  C   UNL     1      -2.619   4.369  25.405  0.00  0.00    +0.057 A 
ATOM     29  C   UNL     1      -2.407   5.631  24.861  0.00  0.00    +0.016 A 
ATOM     30  C   UNL     1      -1.507   3.603  25.718  0.00  0.00    +0.124 A 
ATOM     31  C   UNL     1      -1.109   6.083  24.649  0.00  0.00    +0.020 A 
ATOM     32  C   UNL     1      -0.066   5.240  24.995  0.00  0.00    +0.111 A 
ENDBRANCH  27  28
ENDBRANCH  18  25
ENDBRANCH  11  18
TORSDOF 7
ENDMDL
MODEL 7
REMARK VINA RESULT:       3.3      2.172      6.581
REMARK  Name = 38030450
REMARK  10 active torsions:
REMARK  status: ('A' for Active; 'I' for Inactive)
REMARK    1  A    between atoms: N_3  and  C_13
REMARK    2  A    between atoms: C_8  and  C_12
REMARK    3  A    between atoms: C_9  and  C_13
REMARK    4  A    between atoms: C_11  and  C_18
REMARK    5  A    between atoms: C_12  and  C_22
REMARK    6  A    between atoms: C_12  and  C_23
REMARK    7  A    between atoms: C_15  and  C_24
REMARK    8  A    between atoms: C_18  and  C_25
REMARK    9  A    between atoms: C_19  and  C_26
REMARK   10  A    between atoms: C_27  and  C_28
REMARK                            x       y       z     vdW  Elec       q    Type
REMARK                         _______ _______ _______ _____ _____    ______ ____
ROOT
ATOM      8  C   UNL     1      -1.530  -0.347  25.314  0.00  0.00    +0.000 C 
ATOM      9  C   UNL     1      -1.460  -0.791  23.834  0.00  0.00    +0.029 C 
ATOM     10  C   UNL     1      -2.905   0.257  25.631  0.00  0.00    +0.012 C 
ATOM     11  C   UNL     1      -4.077  -0.701  25.327  0.00  0.00    +0.024 C 
ATOM     14  C   UNL     1      -2.703  -1.517  23.389  0.00  0.00    -0.023 C 
ATOM     15  C   UNL     1      -3.877  -1.499  24.047  0.00  0.00    -0.073 C 
ATOM     24  C   UNL     1      -5.032  -2.330  23.560  0.00  0.00    +0.039 C 
ENDROOT
BRANCH   8  12
ATOM     12  C   UNL     1      -1.201  -1.507  26.263  0.00  0.00    -0.013 C 
ATOM     22  C   UNL     1      -0.084  -2.369  25.683  0.00  0.00    +0.007 C 
ATOM     23  C   UNL     1      -0.815  -0.976  27.639  0.00  0.00    +0.007 C 
ENDBRANCH   8  12
BRANCH   9  13
ATOM     13  C   UNL     1      -1.206   0.396  22.898  0.00  0.00    +0.092 C 
BRANCH  13   3
ATOM      3  N   UNL     1       0.228   0.619  22.724  0.00  0.00    -0.302 NA
ATOM     16  C   UNL     1       0.838   1.057  23.987  0.00  0.00    +0.085 C 
ATOM     17  C   UNL     1       0.880  -0.596  22.214  0.00  0.00    +0.085 C 
ATOM     19  C   UNL     1       3.066   0.135  23.241  0.00  0.00    +0.077 C 
ATOM     20  C   UNL     1       2.329   1.348  23.808  0.00  0.00    +0.028 C 
ATOM     21  C   UNL     1       2.372  -0.363  21.974  0.00  0.00    +0.028 C 
BRANCH  19  26
ATOM      2  O   UNL     1       4.898   0.579  21.775  0.00  0.00    -0.276 OA
ATOM      5  N   UNL     1       5.266   0.688  24.043  0.00  0.00    -0.329 N 
ATOM     26  C   UNL     1       4.485   0.492  22.929  0.00  0.00    +0.214 C 
ATOM     33  H   UNL     1       4.917   0.567  24.988  0.00  0.00    +0.145 HD
ATOM     34  H   UNL     1       6.247   0.934  23.953  0.00  0.00    +0.145 HD
ENDBRANCH  19  26
ENDBRANCH  13   3
ENDBRANCH   9  13
BRANCH  11  18
ATOM     18  C   UNL     1      -5.382   0.106  25.329  0.00  0.00    +0.105 C 
BRANCH  18  25
ATOM      1  O   UNL     1      -3.829   1.977  25.123  0.00  0.00    -0.420 OA
ATOM      4  N   UNL     1      -5.940   2.581  25.555  0.00  0.00    -0.112 NA
ATOM      6  N   UNL     1      -5.177   3.730  25.465  0.00  0.00    -0.107 NA
ATOM     25  C   UNL     1      -5.113   1.583  25.349  0.00  0.00    +0.218 A 
ATOM     27  C   UNL     1      -3.953   3.331  25.212  0.00  0.00    +0.250 A 
BRANCH  27  28
ATOM      7  N   UNL     1      -0.409   4.116  24.412  0.00  0.00    -0.263 NA
ATOM     28  C   UNL     1      -2.748   4.084  25.019  0.00  0.00    +0.057 A 
ATOM     29  C   UNL     1      -2.719   5.458  25.232  0.00  0.00    +0.016 A 
ATOM     30  C   UNL     1      -1.577   3.466  24.613  0.00  0.00    +0.124 A 
ATOM     31  C   UNL     1      -1.536   6.162  25.036  0.00  0.00    +0.020 A 
ATOM     32  C   UNL     1      -0.419   5.450  24.630  0.00  0.00    +0.111 A 
ENDBRANCH  27  28
ENDBRANCH  18  25
ENDBRANCH  11  18
TORSDOF 7
ENDMDL
MODEL 8
REMARK VINA RESULT:       3.6      1.636      2.465
REMARK  Name = 38030450
REMARK  10 active torsions:
REMARK  status: ('A' for Active; 'I' for Inactive)
REMARK    1  A    between atoms: N_3  and  C_13
REMARK    2  A    between atoms: C_8  and  C_12
REMARK    3  A    between atoms: C_9  and  C_13
REMARK    4  A    between atoms: C_11  and  C_18
REMARK    5  A    between atoms: C_12  and  C_22
REMARK    6  A    between atoms: C_12  and  C_23
REMARK    7  A    between atoms: C_15  and  C_24
REMARK    8  A    between atoms: C_18  and  C_25
REMARK    9  A    between atoms: C_19  and  C_26
REMARK   10  A    between atoms: C_27  and  C_28
REMARK                            x       y       z     vdW  Elec       q    Type
REMARK                         _______ _______ _______ _____ _____    ______ ____
ROOT
ATOM      8  C   UNL     1      -5.370   3.568  25.728  0.00  0.00    +0.000 C 
ATOM      9  C   UNL     1      -5.449   2.303  24.841  0.00  0.00    +0.029 C 
ATOM     10  C   UNL     1      -3.922   3.838  26.156  0.00  0.00    +0.012 C 
ATOM     11  C   UNL     1      -2.950   3.985  24.966  0.00  0.00    +0.024 C 
ATOM     14  C   UNL     1      -4.353   2.254  23.807  0.00  0.00    -0.023 C 
ATOM     15  C   UNL     1      -3.237   3.004  23.838  0.00  0.00    -0.073 C 
ATOM     24  C   UNL     1      -2.247   2.938  22.707  0.00  0.00    +0.039 C 
ENDROOT
BRANCH   8  12
ATOM     12  C   UNL     1      -5.976   4.787  25.018  0.00  0.00    -0.013 C 
ATOM     22  C   UNL     1      -6.673   5.697  26.024  0.00  0.00    +0.007 C 
ATOM     23  C   UNL     1      -4.897   5.550  24.257  0.00  0.00    +0.007 C 
ENDBRANCH   8  12
BRANCH   9  13
ATOM     13  C   UNL     1      -5.409   1.021  25.680  0.00  0.00    +0.092 C 
BRANCH  13   3
ATOM      3  N   UNL     1      -4.257   0.200  25.314  0.00  0.00    -0.302 NA
ATOM     16  C   UNL     1      -3.966  -0.779  26.371  0.00  0.00    +0.085 C 
ATOM     17  C   UNL     1      -4.487  -0.465  24.024  0.00  0.00    +0.085 C 
ATOM     19  C   UNL     1      -2.883  -2.301  24.674  0.00  0.00    +0.077 C 
ATOM     20  C   UNL     1      -2.728  -1.609  26.028  0.00  0.00    +0.028 C 
ATOM     21  C   UNL     1      -3.269  -1.286  23.600  0.00  0.00    +0.028 C 
BRANCH  19  26
ATOM      2  O   UNL     1      -1.536  -3.751  23.337  0.00  0.00    -0.276 OA
ATOM      5  N   UNL     1      -0.544  -2.667  25.108  0.00  0.00    -0.329 N 
ATOM     26  C   UNL     1      -1.604  -2.978  24.290  0.00  0.00    +0.214 C 
ATOM     33  H   UNL     1      -0.632  -2.061  25.917  0.00  0.00    +0.145 HD
ATOM     34  H   UNL     1       0.374  -3.068  24.943  0.00  0.00    +0.145 HD
ENDBRANCH  19  26
ENDBRANCH  13   3
ENDBRANCH   9  13
BRANCH  11  18
ATOM     18  C   UNL     1      -1.512   3.886  25.491  0.00  0.00    +0.105 C 
BRANCH  18  25
ATOM      1  O   UNL     1       0.076   2.495  24.266  0.00  0.00    -0.420 OA
ATOM      4  N   UNL     1      -1.203   1.367  25.715  0.00  0.00    -0.112 NA
ATOM      6  N   UNL     1      -0.359   0.463  25.098  0.00  0.00    -0.107 NA
ATOM     25  C   UNL     1      -0.915   2.539  25.200  0.00  0.00    +0.218 A 
ATOM     27  C   UNL     1       0.369   1.165  24.261  0.00  0.00    +0.250 A 
BRANCH  27  28
ATOM      7  N   UNL     1       3.721   0.890  22.677  0.00  0.00    -0.263 NA
ATOM     28  C   UNL     1       1.406   0.755  23.359  0.00  0.00    +0.057 A 
ATOM     29  C   UNL     1       1.146  -0.137  22.325  0.00  0.00    +0.016 A 
ATOM     30  C   UNL     1       2.699   1.235  23.492  0.00  0.00    +0.124 A 
ATOM     31  C   UNL     1       2.172  -0.517  21.466  0.00  0.00    +0.020 A 
ATOM     32  C   UNL     1       3.430   0.022  21.683  0.00  0.00    +0.111 A 
ENDBRANCH  27  28
ENDBRANCH  18  25
ENDBRANCH  11  18
TORSDOF 7
ENDMDL
