MODEL 1
REMARK VINA RESULT:      -5.1      0.000      0.000
REMARK  Name = 26743888
REMARK  8 active torsions:
REMARK  status: ('A' for Active; 'I' for Inactive)
REMARK    1  A    between atoms: S_1  and  C_21
REMARK    2  A    between atoms: S_1  and  C_25
REMARK    3  A    between atoms: O_2  and  C_11
REMARK    4  A    between atoms: N_6  and  C_13
REMARK    5  A    between atoms: C_9  and  C_14
REMARK    6  A    between atoms: C_13  and  C_15
REMARK    7  A    between atoms: C_18  and  C_22
REMARK    8  A    between atoms: C_26  and  C_29
REMARK                            x       y       z     vdW  Elec       q    Type
REMARK                         _______ _______ _______ _____ _____    ______ ____
ROOT
ATOM      6  N   UNL     1      -7.636  -9.071  10.836  0.00  0.00    -0.285 NA
ATOM      9  C   UNL     1      -6.454  -9.602  10.128  0.00  0.00    +0.149 C 
ATOM     10  C   UNL     1      -6.043  -8.484   9.153  0.00  0.00    +0.061 C 
ATOM     11  C   UNL     1      -7.080  -7.386   9.353  0.00  0.00    +0.130 C 
ATOM     12  C   UNL     1      -8.275  -8.126   9.923  0.00  0.00    +0.116 C 
ENDROOT
BRANCH   9  14
ATOM      3  O   UNL     1      -4.210 -10.495  10.503  0.00  0.00    -0.336 OA
ATOM      7  N   UNL     1      -5.290  -9.923  12.379  0.00  0.00    -0.190 NA
ATOM      8  N   UNL     1      -3.335 -10.781  11.559  0.00  0.00    -0.056 NA
ATOM     14  C   UNL     1      -5.337  -9.994  11.072  0.00  0.00    +0.245 A 
ATOM     18  C   UNL     1      -4.044 -10.416  12.631  0.00  0.00    +0.202 A 
BRANCH  18  22
ATOM     22  C   UNL     1      -3.536 -10.531  13.967  0.00  0.00    +0.023 A 
ATOM     23  C   UNL     1      -4.418 -10.572  15.048  0.00  0.00    +0.015 A 
ATOM     24  C   UNL     1      -2.160 -10.600  14.188  0.00  0.00    +0.012 A 
ATOM     26  C   UNL     1      -3.924 -10.685  16.348  0.00  0.00    -0.050 A 
ATOM     27  C   UNL     1      -1.667 -10.711  15.487  0.00  0.00    +0.001 A 
ATOM     28  C   UNL     1      -2.548 -10.754  16.567  0.00  0.00    +0.003 A 
ATOM     29  C   UNL     1      -4.866 -10.730  17.502  0.00  0.00    +0.044 C 
ENDBRANCH  18  22
ENDBRANCH   9  14
BRANCH  11   2
ATOM      2  O   UNL     1      -7.389  -6.757   8.124  0.00  0.00    -0.390 OA
ATOM     30  H   UNL     1      -7.750  -5.877   8.328  0.00  0.00    +0.210 HD
ENDBRANCH  11   2
BRANCH   6  13
ATOM     13  C   UNL     1      -8.555 -10.111  11.281  0.00  0.00    +0.120 C 
BRANCH  13  15
ATOM     15  C   UNL     1      -8.860  -9.999  12.750  0.00  0.00    -0.033 A 
ATOM     16  C   UNL     1     -10.167  -9.757  13.174  0.00  0.00    +0.007 A 
ATOM     17  C   UNL     1      -7.838 -10.137  13.689  0.00  0.00    +0.007 A 
ATOM     19  C   UNL     1     -10.450  -9.653  14.536  0.00  0.00    +0.027 A 
ATOM     20  C   UNL     1      -8.120 -10.032  15.050  0.00  0.00    +0.027 A 
ATOM     21  C   UNL     1      -9.428  -9.791  15.474  0.00  0.00    +0.088 A 
BRANCH  21   1
ATOM      1  S   UNL     1      -9.783  -9.664  17.179  0.00  0.00    -0.006 S 
ATOM      4  O   UNL     1     -10.693 -10.737  17.553  0.00  0.00    -0.170 OA
ATOM      5  O   UNL     1      -8.521  -9.506  17.889  0.00  0.00    -0.170 OA
ATOM     25  C   UNL     1     -10.688  -8.140  17.329  0.00  0.00    +0.200 C 
ENDBRANCH  21   1
ENDBRANCH  13  15
ENDBRANCH   6  13
TORSDOF 6
ENDMDL
