MODEL 1
REMARK VINA RESULT:      -3.1      0.000      0.000
REMARK  Name = 45784239
REMARK  4 active torsions:
REMARK  status: ('A' for Active; 'I' for Inactive)
REMARK    1  A    between atoms: N_2  and  C_10
REMARK    2  A    between atoms: C_5  and  C_9
REMARK    3  A    between atoms: C_10  and  C_11
REMARK    4  A    between atoms: C_14  and  C_19
REMARK                            x       y       z     vdW  Elec       q    Type
REMARK                         _______ _______ _______ _____ _____    ______ ____
ROOT
ATOM      2  N   UNL     1       0.768  -0.525  23.827  0.00  0.00    -0.297 NA
ATOM      5  C   UNL     1      -1.106  -0.070  25.161  0.00  0.00    +0.070 C 
ATOM      6  C   UNL     1      -1.232  -1.481  24.560  0.00  0.00    +0.028 C 
ATOM      7  C   UNL     1      -0.009   0.610  24.330  0.00  0.00    +0.096 C 
ATOM      8  C   UNL     1      -0.229  -1.512  23.415  0.00  0.00    +0.085 C 
ENDROOT
BRANCH   5   9
ATOM      1  F   UNL     1      -6.265   5.030  25.554  0.00  0.00    -0.205 F 
ATOM      3  N   UNL     1      -2.388   2.079  25.372  0.00  0.00    -0.341 N 
ATOM      4  N   UNL     1      -3.612   0.247  25.077  0.00  0.00    -0.232 NA
ATOM      9  C   UNL     1      -2.392   0.722  25.198  0.00  0.00    +0.113 A 
ATOM     12  C   UNL     1      -3.690   2.507  25.361  0.00  0.00    +0.069 A 
ATOM     13  C   UNL     1      -4.435   1.345  25.176  0.00  0.00    +0.089 A 
ATOM     16  C   UNL     1      -4.263   3.772  25.494  0.00  0.00    +0.066 A 
ATOM     17  C   UNL     1      -5.836   1.433  25.118  0.00  0.00    +0.032 A 
ATOM     21  C   UNL     1      -5.660   3.840  25.433  0.00  0.00    +0.125 A 
ATOM     22  C   UNL     1      -6.434   2.692  25.248  0.00  0.00    +0.040 A 
ATOM     24  H   UNL     1      -1.572   2.665  25.487  0.00  0.00    +0.167 HD
ENDBRANCH   5   9
BRANCH   2  10
ATOM     10  C   UNL     1       1.659  -0.148  22.740  0.00  0.00    +0.119 C 
BRANCH  10  11
ATOM     11  C   UNL     1       3.108  -0.284  23.130  0.00  0.00    -0.030 A 
ATOM     14  C   UNL     1       3.989   0.790  22.996  0.00  0.00    -0.046 A 
ATOM     15  C   UNL     1       3.563  -1.502  23.631  0.00  0.00    +0.005 A 
ATOM     18  C   UNL     1       5.327   0.642  23.364  0.00  0.00    +0.003 A 
ATOM     19  C   UNL     1       3.525   2.105  22.463  0.00  0.00    +0.044 C 
ATOM     20  C   UNL     1       4.901  -1.650  23.998  0.00  0.00    +0.000 A 
ATOM     23  C   UNL     1       5.783  -0.578  23.865  0.00  0.00    +0.000 A 
ENDBRANCH  10  11
ENDBRANCH   2  10
TORSDOF 3
ENDMDL
MODEL 2
REMARK VINA RESULT:      -2.7      3.145      7.807
REMARK  Name = 45784239
REMARK  4 active torsions:
REMARK  status: ('A' for Active; 'I' for Inactive)
REMARK    1  A    between atoms: N_2  and  C_10
REMARK    2  A    between atoms: C_5  and  C_9
REMARK    3  A    between atoms: C_10  and  C_11
REMARK    4  A    between atoms: C_14  and  C_19
REMARK                            x       y       z     vdW  Elec       q    Type
REMARK                         _______ _______ _______ _____ _____    ______ ____
ROOT
ATOM      2  N   UNL     1      -3.039  -0.276  24.484  0.00  0.00    -0.297 NA
ATOM      5  C   UNL     1      -0.911  -1.077  23.911  0.00  0.00    +0.070 C 
ATOM      6  C   UNL     1      -1.220  -1.439  25.375  0.00  0.00    +0.028 C 
ATOM      7  C   UNL     1      -1.945  -0.002  23.550  0.00  0.00    +0.096 C 
ATOM      8  C   UNL     1      -2.384  -0.537  25.766  0.00  0.00    +0.085 C 
ENDROOT
BRANCH   5   9
ATOM      1  F   UNL     1       6.302  -0.442  23.320  0.00  0.00    -0.205 F 
ATOM      3  N   UNL     1       1.573  -1.439  23.968  0.00  0.00    -0.341 N 
ATOM      4  N   UNL     1       0.897   0.505  23.127  0.00  0.00    -0.232 NA
ATOM      9  C   UNL     1       0.511  -0.636  23.653  0.00  0.00    +0.113 A 
ATOM     12  C   UNL     1       2.720  -0.772  23.620  0.00  0.00    +0.069 A 
ATOM     13  C   UNL     1       2.271   0.439  23.098  0.00  0.00    +0.089 A 
ATOM     16  C   UNL     1       4.069  -1.113  23.716  0.00  0.00    +0.066 A 
ATOM     17  C   UNL     1       3.212   1.376  22.638  0.00  0.00    +0.032 A 
ATOM     21  C   UNL     1       4.992  -0.168  23.253  0.00  0.00    +0.125 A 
ATOM     22  C   UNL     1       4.572   1.055  22.724  0.00  0.00    +0.040 A 
ATOM     24  H   UNL     1       1.525  -2.360  24.382  0.00  0.00    +0.167 HD
ENDBRANCH   5   9
BRANCH   2  10
ATOM     10  C   UNL     1      -3.990   0.822  24.561  0.00  0.00    +0.119 C 
BRANCH  10  11
ATOM     11  C   UNL     1      -3.319   2.121  24.925  0.00  0.00    -0.030 A 
ATOM     14  C   UNL     1      -4.042   3.164  25.503  0.00  0.00    -0.046 A 
ATOM     15  C   UNL     1      -1.956   2.271  24.676  0.00  0.00    +0.005 A 
ATOM     18  C   UNL     1      -3.400   4.358  25.832  0.00  0.00    +0.003 A 
ATOM     19  C   UNL     1      -5.503   3.028  25.779  0.00  0.00    +0.044 C 
ATOM     20  C   UNL     1      -1.313   3.465  25.005  0.00  0.00    +0.000 A 
ATOM     23  C   UNL     1      -2.035   4.509  25.584  0.00  0.00    +0.000 A 
ENDBRANCH  10  11
ENDBRANCH   2  10
TORSDOF 3
ENDMDL
MODEL 3
REMARK VINA RESULT:      -2.7      3.108      7.990
REMARK  Name = 45784239
REMARK  4 active torsions:
REMARK  status: ('A' for Active; 'I' for Inactive)
REMARK    1  A    between atoms: N_2  and  C_10
REMARK    2  A    between atoms: C_5  and  C_9
REMARK    3  A    between atoms: C_10  and  C_11
REMARK    4  A    between atoms: C_14  and  C_19
REMARK                            x       y       z     vdW  Elec       q    Type
REMARK                         _______ _______ _______ _____ _____    ______ ____
ROOT
ATOM      2  N   UNL     1      -3.165  -0.895  24.487  0.00  0.00    -0.297 NA
ATOM      5  C   UNL     1      -0.866  -1.356  24.523  0.00  0.00    +0.070 C 
ATOM      6  C   UNL     1      -1.316  -0.872  25.913  0.00  0.00    +0.028 C 
ATOM      7  C   UNL     1      -2.014  -0.961  23.584  0.00  0.00    +0.096 C 
ATOM      8  C   UNL     1      -2.668  -0.211  25.681  0.00  0.00    +0.085 C 
ENDROOT
BRANCH   5   9
ATOM      1  F   UNL     1       6.141  -0.248  22.959  0.00  0.00    -0.205 F 
ATOM      3  N   UNL     1       1.622  -1.547  24.252  0.00  0.00    -0.341 N 
ATOM      4  N   UNL     1       0.705   0.325  23.477  0.00  0.00    -0.232 NA
ATOM      9  C   UNL     1       0.474  -0.826  24.069  0.00  0.00    +0.113 A 
ATOM     12  C   UNL     1       2.663  -0.813  23.742  0.00  0.00    +0.069 A 
ATOM     13  C   UNL     1       2.065   0.351  23.265  0.00  0.00    +0.089 A 
ATOM     16  C   UNL     1       4.033  -1.059  23.661  0.00  0.00    +0.066 A 
ATOM     17  C   UNL     1       2.868   1.338  22.668  0.00  0.00    +0.032 A 
ATOM     21  C   UNL     1       4.818  -0.065  23.064  0.00  0.00    +0.125 A 
ATOM     22  C   UNL     1       4.246   1.112  22.576  0.00  0.00    +0.040 A 
ATOM     24  H   UNL     1       1.695  -2.458  24.683  0.00  0.00    +0.167 HD
ENDBRANCH   5   9
BRANCH   2  10
ATOM     10  C   UNL     1      -4.301  -0.210  23.888  0.00  0.00    +0.119 C 
BRANCH  10  11
ATOM     11  C   UNL     1      -4.429   1.206  24.386  0.00  0.00    -0.030 A 
ATOM     14  C   UNL     1      -3.689   2.238  23.809  0.00  0.00    -0.046 A 
ATOM     15  C   UNL     1      -5.301   1.476  25.439  0.00  0.00    +0.005 A 
ATOM     18  C   UNL     1      -3.823   3.542  24.286  0.00  0.00    +0.003 A 
ATOM     19  C   UNL     1      -2.748   1.973  22.680  0.00  0.00    +0.044 C 
ATOM     20  C   UNL     1      -5.434   2.780  25.917  0.00  0.00    +0.000 A 
ATOM     23  C   UNL     1      -4.696   3.814  25.340  0.00  0.00    +0.000 A 
ENDBRANCH  10  11
ENDBRANCH   2  10
TORSDOF 3
ENDMDL
MODEL 4
REMARK VINA RESULT:      -1.7      3.199      8.630
REMARK  Name = 45784239
REMARK  4 active torsions:
REMARK  status: ('A' for Active; 'I' for Inactive)
REMARK    1  A    between atoms: N_2  and  C_10
REMARK    2  A    between atoms: C_5  and  C_9
REMARK    3  A    between atoms: C_10  and  C_11
REMARK    4  A    between atoms: C_14  and  C_19
REMARK                            x       y       z     vdW  Elec       q    Type
REMARK                         _______ _______ _______ _____ _____    ______ ____
ROOT
ATOM      2  N   UNL     1      -1.736   1.333  23.790  0.00  0.00    -0.297 NA
ATOM      5  C   UNL     1       0.034  -0.055  23.126  0.00  0.00    +0.070 C 
ATOM      6  C   UNL     1      -0.823  -0.781  24.178  0.00  0.00    +0.028 C 
ATOM      7  C   UNL     1      -0.383   1.418  23.234  0.00  0.00    +0.096 C 
ATOM      8  C   UNL     1      -1.650   0.315  24.837  0.00  0.00    +0.085 C 
ENDROOT
BRANCH   5   9
ATOM      1  F   UNL     1       7.271   0.556  23.318  0.00  0.00    -0.205 F 
ATOM      3  N   UNL     1       2.409   0.748  22.993  0.00  0.00    -0.341 N 
ATOM      4  N   UNL     1       2.134  -1.354  23.662  0.00  0.00    -0.232 NA
ATOM      9  C   UNL     1       1.524  -0.257  23.272  0.00  0.00    +0.113 A 
ATOM     12  C   UNL     1       3.673   0.268  23.218  0.00  0.00    +0.069 A 
ATOM     13  C   UNL     1       3.476  -1.046  23.634  0.00  0.00    +0.089 A 
ATOM     16  C   UNL     1       4.934   0.852  23.096  0.00  0.00    +0.066 A 
ATOM     17  C   UNL     1       4.591  -1.839  23.952  0.00  0.00    +0.032 A 
ATOM     21  C   UNL     1       6.034   0.048  23.416  0.00  0.00    +0.125 A 
ATOM     22  C   UNL     1       5.867  -1.274  23.837  0.00  0.00    +0.040 A 
ATOM     24  H   UNL     1       2.176   1.680  22.677  0.00  0.00    +0.167 HD
ENDBRANCH   5   9
BRANCH   2  10
ATOM     10  C   UNL     1      -2.208   2.613  24.297  0.00  0.00    +0.119 C 
BRANCH  10  11
ATOM     11  C   UNL     1      -3.625   2.527  24.800  0.00  0.00    -0.030 A 
ATOM     14  C   UNL     1      -4.105   3.431  25.749  0.00  0.00    -0.046 A 
ATOM     15  C   UNL     1      -4.460   1.527  24.304  0.00  0.00    +0.005 A 
ATOM     18  C   UNL     1      -5.421   3.333  26.201  0.00  0.00    +0.003 A 
ATOM     19  C   UNL     1      -3.230   4.510  26.295  0.00  0.00    +0.044 C 
ATOM     20  C   UNL     1      -5.777   1.430  24.756  0.00  0.00    +0.000 A 
ATOM     23  C   UNL     1      -6.258   2.333  25.704  0.00  0.00    +0.000 A 
ENDBRANCH  10  11
ENDBRANCH   2  10
TORSDOF 3
ENDMDL
MODEL 5
REMARK VINA RESULT:      -1.6      0.712      1.471
REMARK  Name = 45784239
REMARK  4 active torsions:
REMARK  status: ('A' for Active; 'I' for Inactive)
REMARK    1  A    between atoms: N_2  and  C_10
REMARK    2  A    between atoms: C_5  and  C_9
REMARK    3  A    between atoms: C_10  and  C_11
REMARK    4  A    between atoms: C_14  and  C_19
REMARK                            x       y       z     vdW  Elec       q    Type
REMARK                         _______ _______ _______ _____ _____    ______ ____
ROOT
ATOM      2  N   UNL     1       0.914  -0.584  23.584  0.00  0.00    -0.297 NA
ATOM      5  C   UNL     1      -0.766   0.184  25.029  0.00  0.00    +0.070 C 
ATOM      6  C   UNL     1      -1.286  -1.026  24.233  0.00  0.00    +0.028 C 
ATOM      7  C   UNL     1       0.489   0.637  24.271  0.00  0.00    +0.096 C 
ATOM      8  C   UNL     1      -0.321  -1.172  23.064  0.00  0.00    +0.085 C 
ENDROOT
BRANCH   5   9
ATOM      1  F   UNL     1      -6.693   4.357  25.514  0.00  0.00    -0.205 F 
ATOM      3  N   UNL     1      -3.108   1.090  25.016  0.00  0.00    -0.341 N 
ATOM      4  N   UNL     1      -1.515   2.532  25.589  0.00  0.00    -0.232 NA
ATOM      9  C   UNL     1      -1.771   1.296  25.222  0.00  0.00    +0.113 A 
ATOM     12  C   UNL     1      -3.757   2.271  25.269  0.00  0.00    +0.069 A 
ATOM     13  C   UNL     1      -2.742   3.156  25.624  0.00  0.00    +0.089 A 
ATOM     16  C   UNL     1      -5.104   2.631  25.217  0.00  0.00    +0.066 A 
ATOM     17  C   UNL     1      -3.072   4.481  25.951  0.00  0.00    +0.032 A 
ATOM     21  C   UNL     1      -5.415   3.955  25.546  0.00  0.00    +0.125 A 
ATOM     22  C   UNL     1      -4.418   4.865  25.906  0.00  0.00    +0.040 A 
ATOM     24  H   UNL     1      -3.543   0.223  24.730  0.00  0.00    +0.167 HD
ENDBRANCH   5   9
BRANCH   2  10
ATOM     10  C   UNL     1       1.887  -0.320  22.535  0.00  0.00    +0.119 C 
BRANCH  10  11
ATOM     11  C   UNL     1       3.300  -0.374  23.056  0.00  0.00    -0.030 A 
ATOM     14  C   UNL     1       4.132   0.744  22.987  0.00  0.00    -0.046 A 
ATOM     15  C   UNL     1       3.772  -1.562  23.612  0.00  0.00    +0.005 A 
ATOM     18  C   UNL     1       5.437   0.672  23.476  0.00  0.00    +0.003 A 
ATOM     19  C   UNL     1       3.650   2.027  22.396  0.00  0.00    +0.044 C 
ATOM     20  C   UNL     1       5.076  -1.634  24.101  0.00  0.00    +0.000 A 
ATOM     23  C   UNL     1       5.909  -0.517  24.033  0.00  0.00    +0.000 A 
ENDBRANCH  10  11
ENDBRANCH   2  10
TORSDOF 3
ENDMDL
MODEL 6
REMARK VINA RESULT:      -1.5      3.415      7.768
REMARK  Name = 45784239
REMARK  4 active torsions:
REMARK  status: ('A' for Active; 'I' for Inactive)
REMARK    1  A    between atoms: N_2  and  C_10
REMARK    2  A    between atoms: C_5  and  C_9
REMARK    3  A    between atoms: C_10  and  C_11
REMARK    4  A    between atoms: C_14  and  C_19
REMARK                            x       y       z     vdW  Elec       q    Type
REMARK                         _______ _______ _______ _____ _____    ______ ____
ROOT
ATOM      2  N   UNL     1      -3.010   1.664  24.569  0.00  0.00    -0.297 NA
ATOM      5  C   UNL     1      -0.785   1.997  23.906  0.00  0.00    +0.070 C 
ATOM      6  C   UNL     1      -1.700   2.027  22.669  0.00  0.00    +0.028 C 
ATOM      7  C   UNL     1      -1.645   1.369  25.011  0.00  0.00    +0.096 C 
ATOM      8  C   UNL     1      -3.006   1.394  23.131  0.00  0.00    +0.085 C 
ENDROOT
BRANCH   5   9
ATOM      1  F   UNL     1       6.137   0.098  22.786  0.00  0.00    -0.205 F 
ATOM      3  N   UNL     1       1.689   1.971  23.482  0.00  0.00    -0.341 N 
ATOM      4  N   UNL     1       0.727  -0.020  23.717  0.00  0.00    -0.232 NA
ATOM      9  C   UNL     1       0.530   1.280  23.706  0.00  0.00    +0.113 A 
ATOM     12  C   UNL     1       2.702   1.056  23.342  0.00  0.00    +0.069 A 
ATOM     13  C   UNL     1       2.076  -0.179  23.492  0.00  0.00    +0.089 A 
ATOM     16  C   UNL     1       4.068   1.199  23.102  0.00  0.00    +0.066 A 
ATOM     17  C   UNL     1       2.845  -1.351  23.401  0.00  0.00    +0.032 A 
ATOM     21  C   UNL     1       4.819   0.021  23.014  0.00  0.00    +0.125 A 
ATOM     22  C   UNL     1       4.219  -1.232  23.161  0.00  0.00    +0.040 A 
ATOM     24  H   UNL     1       1.787   2.976  23.430  0.00  0.00    +0.167 HD
ENDBRANCH   5   9
BRANCH   2  10
ATOM     10  C   UNL     1      -4.006   0.876  25.279  0.00  0.00    +0.119 C 
BRANCH  10  11
ATOM     11  C   UNL     1      -3.916  -0.587  24.931  0.00  0.00    -0.030 A 
ATOM     14  C   UNL     1      -3.156  -1.462  25.707  0.00  0.00    -0.046 A 
ATOM     15  C   UNL     1      -4.604  -1.061  23.815  0.00  0.00    +0.005 A 
ATOM     18  C   UNL     1      -3.087  -2.813  25.366  0.00  0.00    +0.003 A 
ATOM     19  C   UNL     1      -2.410  -0.978  26.906  0.00  0.00    +0.044 C 
ATOM     20  C   UNL     1      -4.534  -2.411  23.474  0.00  0.00    +0.000 A 
ATOM     23  C   UNL     1      -3.776  -3.288  24.250  0.00  0.00    +0.000 A 
ENDBRANCH  10  11
ENDBRANCH   2  10
TORSDOF 3
ENDMDL
MODEL 7
REMARK VINA RESULT:      -0.9      3.346      8.027
REMARK  Name = 45784239
REMARK  4 active torsions:
REMARK  status: ('A' for Active; 'I' for Inactive)
REMARK    1  A    between atoms: N_2  and  C_10
REMARK    2  A    between atoms: C_5  and  C_9
REMARK    3  A    between atoms: C_10  and  C_11
REMARK    4  A    between atoms: C_14  and  C_19
REMARK                            x       y       z     vdW  Elec       q    Type
REMARK                         _______ _______ _______ _____ _____    ______ ____
ROOT
ATOM      2  N   UNL     1      -2.084   0.598  24.283  0.00  0.00    -0.297 NA
ATOM      5  C   UNL     1      -0.175  -0.103  23.116  0.00  0.00    +0.070 C 
ATOM      6  C   UNL     1      -1.005  -1.331  23.529  0.00  0.00    +0.028 C 
ATOM      7  C   UNL     1      -0.724   1.044  23.974  0.00  0.00    +0.096 C 
ATOM      8  C   UNL     1      -1.950  -0.822  24.610  0.00  0.00    +0.085 C 
ENDROOT
BRANCH   5   9
ATOM      1  F   UNL     1       7.049   0.655  23.229  0.00  0.00    -0.205 F 
ATOM      3  N   UNL     1       2.182   0.746  22.953  0.00  0.00    -0.341 N 
ATOM      4  N   UNL     1       1.957  -1.357  23.638  0.00  0.00    -0.232 NA
ATOM      9  C   UNL     1       1.321  -0.274  23.248  0.00  0.00    +0.113 A 
ATOM     12  C   UNL     1       3.458   0.293  23.168  0.00  0.00    +0.069 A 
ATOM     13  C   UNL     1       3.291  -1.022  23.595  0.00  0.00    +0.089 A 
ATOM     16  C   UNL     1       4.706   0.901  23.029  0.00  0.00    +0.066 A 
ATOM     17  C   UNL     1       4.426  -1.790  23.906  0.00  0.00    +0.032 A 
ATOM     21  C   UNL     1       5.825   0.122  23.344  0.00  0.00    +0.125 A 
ATOM     22  C   UNL     1       5.688  -1.200  23.775  0.00  0.00    +0.040 A 
ATOM     24  H   UNL     1       1.927   1.672  22.633  0.00  0.00    +0.167 HD
ENDBRANCH   5   9
BRANCH   2  10
ATOM     10  C   UNL     1      -2.686   1.362  25.365  0.00  0.00    +0.119 C 
BRANCH  10  11
ATOM     11  C   UNL     1      -2.333   2.824  25.283  0.00  0.00    -0.030 A 
ATOM     14  C   UNL     1      -3.327   3.803  25.294  0.00  0.00    -0.046 A 
ATOM     15  C   UNL     1      -0.992   3.192  25.194  0.00  0.00    +0.005 A 
ATOM     18  C   UNL     1      -2.977   5.151  25.217  0.00  0.00    +0.003 A 
ATOM     19  C   UNL     1      -4.770   3.434  25.388  0.00  0.00    +0.044 C 
ATOM     20  C   UNL     1      -0.642   4.540  25.117  0.00  0.00    +0.000 A 
ATOM     23  C   UNL     1      -1.634   5.521  25.129  0.00  0.00    +0.000 A 
ENDBRANCH  10  11
ENDBRANCH   2  10
TORSDOF 3
ENDMDL
MODEL 8
REMARK VINA RESULT:       0.1      3.483      6.975
REMARK  Name = 45784239
REMARK  4 active torsions:
REMARK  status: ('A' for Active; 'I' for Inactive)
REMARK    1  A    between atoms: N_2  and  C_10
REMARK    2  A    between atoms: C_5  and  C_9
REMARK    3  A    between atoms: C_10  and  C_11
REMARK    4  A    between atoms: C_14  and  C_19
REMARK                            x       y       z     vdW  Elec       q    Type
REMARK                         _______ _______ _______ _____ _____    ______ ____
ROOT
ATOM      2  N   UNL     1      -0.401   3.719  25.308  0.00  0.00    -0.297 NA
ATOM      5  C   UNL     1      -0.224   1.381  25.238  0.00  0.00    +0.070 C 
ATOM      6  C   UNL     1       0.543   1.991  24.051  0.00  0.00    +0.028 C 
ATOM      7  C   UNL     1      -1.116   2.520  25.750  0.00  0.00    +0.096 C 
ATOM      8  C   UNL     1       0.027   3.420  23.941  0.00  0.00    +0.085 C 
ENDROOT
BRANCH   5   9
ATOM      1  F   UNL     1      -5.222  -3.596  23.498  0.00  0.00    -0.205 F 
ATOM      3  N   UNL     1      -2.331   0.172  24.603  0.00  0.00    -0.341 N 
ATOM      4  N   UNL     1      -0.532  -1.103  24.889  0.00  0.00    -0.232 NA
ATOM      9  C   UNL     1      -1.000   0.126  24.914  0.00  0.00    +0.113 A 
ATOM     12  C   UNL     1      -2.749  -1.111  24.361  0.00  0.00    +0.069 A 
ATOM     13  C   UNL     1      -1.609  -1.888  24.546  0.00  0.00    +0.089 A 
ATOM     16  C   UNL     1      -3.990  -1.642  24.008  0.00  0.00    +0.066 A 
ATOM     17  C   UNL     1      -1.693  -3.280  24.371  0.00  0.00    +0.032 A 
ATOM     21  C   UNL     1      -4.056  -3.030  23.838  0.00  0.00    +0.125 A 
ATOM     22  C   UNL     1      -2.928  -3.835  24.017  0.00  0.00    +0.040 A 
ATOM     24  H   UNL     1      -2.906   1.002  24.559  0.00  0.00    +0.167 HD
ENDBRANCH   5   9
BRANCH   2  10
ATOM     10  C   UNL     1      -1.224   4.916  25.382  0.00  0.00    +0.119 C 
BRANCH  10  11
ATOM     11  C   UNL     1      -2.690   4.597  25.242  0.00  0.00    -0.030 A 
ATOM     14  C   UNL     1      -3.477   4.334  26.364  0.00  0.00    -0.046 A 
ATOM     15  C   UNL     1      -3.257   4.566  23.969  0.00  0.00    +0.005 A 
ATOM     18  C   UNL     1      -4.832   4.041  26.210  0.00  0.00    +0.003 A 
ATOM     19  C   UNL     1      -2.892   4.361  27.737  0.00  0.00    +0.044 C 
ATOM     20  C   UNL     1      -4.612   4.273  23.816  0.00  0.00    +0.000 A 
ATOM     23  C   UNL     1      -5.400   4.011  24.936  0.00  0.00    +0.000 A 
ENDBRANCH  10  11
ENDBRANCH   2  10
TORSDOF 3
ENDMDL
MODEL 9
REMARK VINA RESULT:       0.2      4.339      6.699
REMARK  Name = 45784239
REMARK  4 active torsions:
REMARK  status: ('A' for Active; 'I' for Inactive)
REMARK    1  A    between atoms: N_2  and  C_10
REMARK    2  A    between atoms: C_5  and  C_9
REMARK    3  A    between atoms: C_10  and  C_11
REMARK    4  A    between atoms: C_14  and  C_19
REMARK                            x       y       z     vdW  Elec       q    Type
REMARK                         _______ _______ _______ _____ _____    ______ ____
ROOT
ATOM      2  N   UNL     1      -5.090   3.839  25.116  0.00  0.00    -0.297 NA
ATOM      5  C   UNL     1      -5.201   1.565  24.552  0.00  0.00    +0.070 C 
ATOM      6  C   UNL     1      -6.014   1.817  25.834  0.00  0.00    +0.028 C 
ATOM      7  C   UNL     1      -4.330   2.819  24.391  0.00  0.00    +0.096 C 
ATOM      8  C   UNL     1      -5.542   3.174  26.339  0.00  0.00    +0.085 C 
ENDROOT
BRANCH   5   9
ATOM      1  F   UNL     1      -0.157  -3.621  25.214  0.00  0.00    -0.205 F 
ATOM      3  N   UNL     1      -3.113   0.252  25.021  0.00  0.00    -0.341 N 
ATOM      4  N   UNL     1      -4.796  -0.893  24.126  0.00  0.00    -0.232 NA
ATOM      9  C   UNL     1      -4.397   0.286  24.551  0.00  0.00    +0.113 A 
ATOM     12  C   UNL     1      -2.653  -1.034  24.891  0.00  0.00    +0.069 A 
ATOM     13  C   UNL     1      -3.722  -1.729  24.330  0.00  0.00    +0.089 A 
ATOM     16  C   UNL     1      -1.432  -1.629  25.206  0.00  0.00    +0.066 A 
ATOM     17  C   UNL     1      -3.580  -3.100  24.062  0.00  0.00    +0.032 A 
ATOM     21  C   UNL     1      -1.308  -2.996  24.932  0.00  0.00    +0.125 A 
ATOM     22  C   UNL     1      -2.363  -3.720  24.369  0.00  0.00    +0.040 A 
ATOM     24  H   UNL     1      -2.593   1.033  25.397  0.00  0.00    +0.167 HD
ENDBRANCH   5   9
BRANCH   2  10
ATOM     10  C   UNL     1      -4.300   5.029  25.391  0.00  0.00    +0.119 C 
BRANCH  10  11
ATOM     11  C   UNL     1      -2.822   4.737  25.374  0.00  0.00    -0.030 A 
ATOM     14  C   UNL     1      -1.944   5.527  24.631  0.00  0.00    -0.046 A 
ATOM     15  C   UNL     1      -2.336   3.659  26.112  0.00  0.00    +0.005 A 
ATOM     18  C   UNL     1      -0.580   5.238  24.629  0.00  0.00    +0.003 A 
ATOM     19  C   UNL     1      -2.441   6.686  23.831  0.00  0.00    +0.044 C 
ATOM     20  C   UNL     1      -0.972   3.371  26.110  0.00  0.00    +0.000 A 
ATOM     23  C   UNL     1      -0.093   4.160  25.369  0.00  0.00    +0.000 A 
ENDBRANCH  10  11
ENDBRANCH   2  10
TORSDOF 3
ENDMDL
MODEL 10
REMARK VINA RESULT:       0.3      3.236      8.077
REMARK  Name = 45784239
REMARK  4 active torsions:
REMARK  status: ('A' for Active; 'I' for Inactive)
REMARK    1  A    between atoms: N_2  and  C_10
REMARK    2  A    between atoms: C_5  and  C_9
REMARK    3  A    between atoms: C_10  and  C_11
REMARK    4  A    between atoms: C_14  and  C_19
REMARK                            x       y       z     vdW  Elec       q    Type
REMARK                         _______ _______ _______ _____ _____    ______ ____
ROOT
ATOM      2  N   UNL     1      -2.859   4.447  25.907  0.00  0.00    -0.297 NA
ATOM      5  C   UNL     1      -0.819   3.318  25.654  0.00  0.00    +0.070 C 
ATOM      6  C   UNL     1      -0.630   4.805  25.306  0.00  0.00    +0.028 C 
ATOM      7  C   UNL     1      -2.339   3.105  25.639  0.00  0.00    +0.096 C 
ATOM      8  C   UNL     1      -2.039   5.340  25.087  0.00  0.00    +0.085 C 
ENDROOT
BRANCH   5   9
ATOM      1  F   UNL     1       4.018  -0.290  21.609  0.00  0.00    -0.205 F 
ATOM      3  N   UNL     1       1.242   2.536  24.452  0.00  0.00    -0.341 N 
ATOM      4  N   UNL     1      -0.575   1.286  24.171  0.00  0.00    -0.232 NA
ATOM      9  C   UNL     1      -0.080   2.356  24.752  0.00  0.00    +0.113 A 
ATOM     12  C   UNL     1       1.626   1.513  23.623  0.00  0.00    +0.069 A 
ATOM     13  C   UNL     1       0.474   0.747  23.462  0.00  0.00    +0.089 A 
ATOM     16  C   UNL     1       2.844   1.204  23.018  0.00  0.00    +0.066 A 
ATOM     17  C   UNL     1       0.524  -0.401  22.654  0.00  0.00    +0.032 A 
ATOM     21  C   UNL     1       2.874   0.057  22.216  0.00  0.00    +0.125 A 
ATOM     22  C   UNL     1       1.735  -0.732  22.036  0.00  0.00    +0.040 A 
ATOM     24  H   UNL     1       1.834   3.287  24.781  0.00  0.00    +0.167 HD
ENDBRANCH   5   9
BRANCH   2  10
ATOM     10  C   UNL     1      -4.277   4.564  25.606  0.00  0.00    +0.119 C 
BRANCH  10  11
ATOM     11  C   UNL     1      -4.924   3.215  25.427  0.00  0.00    -0.030 A 
ATOM     14  C   UNL     1      -4.726   2.474  24.261  0.00  0.00    -0.046 A 
ATOM     15  C   UNL     1      -5.731   2.711  26.445  0.00  0.00    +0.005 A 
ATOM     18  C   UNL     1      -5.335   1.228  24.116  0.00  0.00    +0.003 A 
ATOM     19  C   UNL     1      -3.867   2.994  23.156  0.00  0.00    +0.044 C 
ATOM     20  C   UNL     1      -6.340   1.464  26.301  0.00  0.00    +0.000 A 
ATOM     23  C   UNL     1      -6.142   0.722  25.136  0.00  0.00    +0.000 A 
ENDBRANCH  10  11
ENDBRANCH   2  10
TORSDOF 3
ENDMDL
