MODEL 1
REMARK VINA RESULT:      -0.7      0.000      0.000
REMARK  Name = 38030682
REMARK  10 active torsions:
REMARK  status: ('A' for Active; 'I' for Inactive)
REMARK    1  A    between atoms: N_3  and  C_11
REMARK    2  A    between atoms: C_6  and  C_10
REMARK    3  A    between atoms: C_7  and  C_11
REMARK    4  A    between atoms: C_9  and  C_14
REMARK    5  A    between atoms: C_10  and  C_15
REMARK    6  A    between atoms: C_10  and  C_16
REMARK    7  A    between atoms: C_13  and  C_17
REMARK    8  A    between atoms: C_14  and  C_20
REMARK    9  A    between atoms: C_23  and  C_24
REMARK   10  A    between atoms: C_29  and  C_30
REMARK                            x       y       z     vdW  Elec       q    Type
REMARK                         _______ _______ _______ _____ _____    ______ ____
ROOT
ATOM      6  C   UNL     1      -2.741   2.444  25.865  0.00  0.00    +0.000 C 
ATOM      7  C   UNL     1      -4.244   2.452  25.506  0.00  0.00    +0.029 C 
ATOM      8  C   UNL     1      -1.929   1.743  24.767  0.00  0.00    +0.012 C 
ATOM      9  C   UNL     1      -2.119   2.373  23.370  0.00  0.00    +0.024 C 
ATOM     12  C   UNL     1      -4.492   2.812  24.063  0.00  0.00    -0.023 C 
ATOM     13  C   UNL     1      -3.555   2.795  23.098  0.00  0.00    -0.073 C 
ATOM     17  C   UNL     1      -3.891   3.257  21.706  0.00  0.00    +0.039 C 
ENDROOT
BRANCH   6  10
ATOM     10  C   UNL     1      -2.217   3.864  26.122  0.00  0.00    -0.013 C 
ATOM     15  C   UNL     1      -1.046   4.175  25.195  0.00  0.00    +0.007 C 
ATOM     16  C   UNL     1      -3.336   4.885  25.942  0.00  0.00    +0.007 C 
ENDBRANCH   6  10
BRANCH   7  11
ATOM     11  C   UNL     1      -4.907   1.105  25.810  0.00  0.00    +0.092 C 
BRANCH  11   3
ATOM      1  O   UNL     1      -3.744  -2.738  24.589  0.00  0.00    -0.377 OA
ATOM      3  N   UNL     1      -4.142   0.009  25.220  0.00  0.00    -0.297 NA
ATOM     18  C   UNL     1      -4.914  -0.656  24.162  0.00  0.00    +0.112 C 
ATOM     19  C   UNL     1      -3.751  -0.967  26.247  0.00  0.00    +0.112 C 
ATOM     21  C   UNL     1      -4.102  -1.804  23.570  0.00  0.00    +0.175 C 
ATOM     22  C   UNL     1      -2.965  -2.107  25.605  0.00  0.00    +0.175 C 
ENDBRANCH  11   3
ENDBRANCH   7  11
BRANCH   9  14
ATOM     14  C   UNL     1      -1.572   1.402  22.317  0.00  0.00    +0.105 C 
BRANCH  14  20
ATOM      2  O   UNL     1       0.746   0.745  22.712  0.00  0.00    -0.420 OA
ATOM      4  N   UNL     1      -0.765  -0.637  23.612  0.00  0.00    -0.112 NA
ATOM      5  N   UNL     1       0.492  -1.127  23.910  0.00  0.00    -0.107 NA
ATOM     20  C   UNL     1      -0.569   0.455  22.912  0.00  0.00    +0.218 A 
ATOM     23  C   UNL     1       1.343  -0.288  23.366  0.00  0.00    +0.248 A 
BRANCH  23  24
ATOM     24  C   UNL     1       2.777  -0.293  23.354  0.00  0.00    +0.038 A 
ATOM     25  C   UNL     1       3.474  -1.423  23.783  0.00  0.00    +0.013 A 
ATOM     26  C   UNL     1       3.474   0.830  22.911  0.00  0.00    +0.013 A 
ATOM     27  C   UNL     1       4.869  -1.428  23.771  0.00  0.00    +0.004 A 
ATOM     28  C   UNL     1       4.869   0.825  22.899  0.00  0.00    +0.004 A 
ATOM     29  C   UNL     1       5.567  -0.304  23.328  0.00  0.00    -0.050 A 
ATOM     30  C   UNL     1       7.058  -0.309  23.316  0.00  0.00    +0.044 C 
ENDBRANCH  23  24
ENDBRANCH  14  20
ENDBRANCH   9  14
TORSDOF 6
ENDMDL
MODEL 2
REMARK VINA RESULT:      -0.6      1.454      2.315
REMARK  Name = 38030682
REMARK  10 active torsions:
REMARK  status: ('A' for Active; 'I' for Inactive)
REMARK    1  A    between atoms: N_3  and  C_11
REMARK    2  A    between atoms: C_6  and  C_10
REMARK    3  A    between atoms: C_7  and  C_11
REMARK    4  A    between atoms: C_9  and  C_14
REMARK    5  A    between atoms: C_10  and  C_15
REMARK    6  A    between atoms: C_10  and  C_16
REMARK    7  A    between atoms: C_13  and  C_17
REMARK    8  A    between atoms: C_14  and  C_20
REMARK    9  A    between atoms: C_23  and  C_24
REMARK   10  A    between atoms: C_29  and  C_30
REMARK                            x       y       z     vdW  Elec       q    Type
REMARK                         _______ _______ _______ _____ _____    ______ ____
ROOT
ATOM      6  C   UNL     1      -4.475   1.984  25.565  0.00  0.00    +0.000 C 
ATOM      7  C   UNL     1      -4.537   0.621  24.838  0.00  0.00    +0.029 C 
ATOM      8  C   UNL     1      -3.059   2.571  25.487  0.00  0.00    +0.012 C 
ATOM      9  C   UNL     1      -2.544   2.737  24.041  0.00  0.00    +0.024 C 
ATOM     12  C   UNL     1      -3.817   0.638  23.513  0.00  0.00    -0.023 C 
ATOM     13  C   UNL     1      -2.934   1.580  23.134  0.00  0.00    -0.073 C 
ATOM     17  C   UNL     1      -2.338   1.548  21.753  0.00  0.00    +0.039 C 
ENDROOT
BRANCH   6  10
ATOM     10  C   UNL     1      -5.514   2.966  25.005  0.00  0.00    -0.013 C 
ATOM     15  C   UNL     1      -6.902   2.331  25.007  0.00  0.00    +0.007 C 
ATOM     16  C   UNL     1      -5.511   4.262  25.809  0.00  0.00    +0.007 C 
ENDBRANCH   6  10
BRANCH   7  11
ATOM     11  C   UNL     1      -3.971  -0.509  25.704  0.00  0.00    +0.092 C 
BRANCH  11   3
ATOM      1  O   UNL     1      -0.578  -2.885  25.031  0.00  0.00    -0.377 OA
ATOM      3  N   UNL     1      -2.726  -1.020  25.136  0.00  0.00    -0.297 NA
ATOM     18  C   UNL     1      -2.913  -2.378  24.607  0.00  0.00    +0.112 C 
ATOM     19  C   UNL     1      -1.653  -1.013  26.140  0.00  0.00    +0.112 C 
ATOM     21  C   UNL     1      -1.598  -2.896  24.032  0.00  0.00    +0.175 C 
ATOM     22  C   UNL     1      -0.367  -1.563  25.527  0.00  0.00    +0.175 C 
ENDBRANCH  11   3
ENDBRANCH   7  11
BRANCH   9  14
ATOM     14  C   UNL     1      -1.030   2.976  24.086  0.00  0.00    +0.105 C 
BRANCH  14  20
ATOM      2  O   UNL     1       1.089   1.799  23.793  0.00  0.00    -0.420 OA
ATOM      4  N   UNL     1      -0.712   0.603  23.218  0.00  0.00    -0.112 NA
ATOM      5  N   UNL     1       0.407  -0.179  23.003  0.00  0.00    -0.107 NA
ATOM     20  C   UNL     1      -0.267   1.748  23.679  0.00  0.00    +0.218 A 
ATOM     23  C   UNL     1       1.434   0.559  23.352  0.00  0.00    +0.248 A 
BRANCH  23  24
ATOM     24  C   UNL     1       2.838   0.266  23.341  0.00  0.00    +0.038 A 
ATOM     25  C   UNL     1       3.753   1.252  22.970  0.00  0.00    +0.013 A 
ATOM     26  C   UNL     1       3.289  -1.003  23.704  0.00  0.00    +0.013 A 
ATOM     27  C   UNL     1       5.119   0.968  22.959  0.00  0.00    +0.004 A 
ATOM     28  C   UNL     1       4.655  -1.287  23.692  0.00  0.00    +0.004 A 
ATOM     29  C   UNL     1       5.570  -0.302  23.321  0.00  0.00    -0.050 A 
ATOM     30  C   UNL     1       7.029  -0.606  23.308  0.00  0.00    +0.044 C 
ENDBRANCH  23  24
ENDBRANCH  14  20
ENDBRANCH   9  14
TORSDOF 6
ENDMDL
MODEL 3
REMARK VINA RESULT:       0.4      2.115      6.127
REMARK  Name = 38030682
REMARK  10 active torsions:
REMARK  status: ('A' for Active; 'I' for Inactive)
REMARK    1  A    between atoms: N_3  and  C_11
REMARK    2  A    between atoms: C_6  and  C_10
REMARK    3  A    between atoms: C_7  and  C_11
REMARK    4  A    between atoms: C_9  and  C_14
REMARK    5  A    between atoms: C_10  and  C_15
REMARK    6  A    between atoms: C_10  and  C_16
REMARK    7  A    between atoms: C_13  and  C_17
REMARK    8  A    between atoms: C_14  and  C_20
REMARK    9  A    between atoms: C_23  and  C_24
REMARK   10  A    between atoms: C_29  and  C_30
REMARK                            x       y       z     vdW  Elec       q    Type
REMARK                         _______ _______ _______ _____ _____    ______ ____
ROOT
ATOM      6  C   UNL     1      -1.122   3.687  24.149  0.00  0.00    +0.000 C 
ATOM      7  C   UNL     1      -0.776   2.724  25.307  0.00  0.00    +0.029 C 
ATOM      8  C   UNL     1      -2.634   3.949  24.101  0.00  0.00    +0.012 C 
ATOM      9  C   UNL     1      -3.199   4.512  25.423  0.00  0.00    +0.024 C 
ATOM     12  C   UNL     1      -1.507   3.064  26.582  0.00  0.00    -0.023 C 
ATOM     13  C   UNL     1      -2.581   3.870  26.656  0.00  0.00    -0.073 C 
ATOM     17  C   UNL     1      -3.181   4.213  27.992  0.00  0.00    +0.039 C 
ENDROOT
BRANCH   6  10
ATOM     10  C   UNL     1      -0.334   5.000  24.257  0.00  0.00    -0.013 C 
ATOM     15  C   UNL     1       0.320   5.340  22.921  0.00  0.00    +0.007 C 
ATOM     16  C   UNL     1      -1.247   6.133  24.717  0.00  0.00    +0.007 C 
ENDBRANCH   6  10
BRANCH   7  11
ATOM     11  C   UNL     1      -1.064   1.265  24.936  0.00  0.00    +0.092 C 
BRANCH  11   3
ATOM      1  O   UNL     1       1.953   0.195  22.222  0.00  0.00    -0.377 OA
ATOM      3  N   UNL     1       0.120   0.637  24.355  0.00  0.00    -0.297 NA
ATOM     18  C   UNL     1       1.114   1.650  23.974  0.00  0.00    +0.112 C 
ATOM     19  C   UNL     1      -0.242  -0.178  23.187  0.00  0.00    +0.112 C 
ATOM     21  C   UNL     1       2.335   0.972  23.358  0.00  0.00    +0.175 C 
ATOM     22  C   UNL     1       1.012  -0.813  22.591  0.00  0.00    +0.175 C 
ENDBRANCH  11   3
ENDBRANCH   7  11
BRANCH   9  14
ATOM     14  C   UNL     1      -4.728   4.394  25.391  0.00  0.00    +0.105 C 
BRANCH  14  20
ATOM      2  O   UNL     1      -4.333   2.003  25.094  0.00  0.00    -0.420 OA
ATOM      4  N   UNL     1      -6.269   2.495  26.101  0.00  0.00    -0.112 NA
ATOM      5  N   UNL     1      -6.178   1.119  25.999  0.00  0.00    -0.107 NA
ATOM     20  C   UNL     1      -5.172   2.969  25.560  0.00  0.00    +0.218 A 
ATOM     23  C   UNL     1      -5.032   0.878  25.406  0.00  0.00    +0.248 A 
BRANCH  23  24
ATOM     24  C   UNL     1      -4.415  -0.364  25.042  0.00  0.00    +0.038 A 
ATOM     25  C   UNL     1      -4.754  -0.985  23.839  0.00  0.00    +0.013 A 
ATOM     26  C   UNL     1      -3.475  -0.951  25.889  0.00  0.00    +0.013 A 
ATOM     27  C   UNL     1      -4.154  -2.193  23.484  0.00  0.00    +0.004 A 
ATOM     28  C   UNL     1      -2.875  -2.159  25.534  0.00  0.00    +0.004 A 
ATOM     29  C   UNL     1      -3.214  -2.781  24.332  0.00  0.00    -0.050 A 
ATOM     30  C   UNL     1      -2.573  -4.072  23.954  0.00  0.00    +0.044 C 
ENDBRANCH  23  24
ENDBRANCH  14  20
ENDBRANCH   9  14
TORSDOF 6
ENDMDL
MODEL 4
REMARK VINA RESULT:       0.7      2.807      5.917
REMARK  Name = 38030682
REMARK  10 active torsions:
REMARK  status: ('A' for Active; 'I' for Inactive)
REMARK    1  A    between atoms: N_3  and  C_11
REMARK    2  A    between atoms: C_6  and  C_10
REMARK    3  A    between atoms: C_7  and  C_11
REMARK    4  A    between atoms: C_9  and  C_14
REMARK    5  A    between atoms: C_10  and  C_15
REMARK    6  A    between atoms: C_10  and  C_16
REMARK    7  A    between atoms: C_13  and  C_17
REMARK    8  A    between atoms: C_14  and  C_20
REMARK    9  A    between atoms: C_23  and  C_24
REMARK   10  A    between atoms: C_29  and  C_30
REMARK                            x       y       z     vdW  Elec       q    Type
REMARK                         _______ _______ _______ _____ _____    ______ ____
ROOT
ATOM      6  C   UNL     1      -3.800  -1.671  23.606  0.00  0.00    +0.000 C 
ATOM      7  C   UNL     1      -4.202  -0.524  24.561  0.00  0.00    +0.029 C 
ATOM      8  C   UNL     1      -2.281  -1.886  23.632  0.00  0.00    +0.012 C 
ATOM      9  C   UNL     1      -1.729  -2.178  25.044  0.00  0.00    +0.024 C 
ATOM     12  C   UNL     1      -3.491  -0.601  25.889  0.00  0.00    -0.023 C 
ATOM     13  C   UNL     1      -2.394  -1.342  26.128  0.00  0.00    -0.073 C 
ATOM     17  C   UNL     1      -1.815  -1.414  27.514  0.00  0.00    +0.039 C 
ENDROOT
BRANCH   6  10
ATOM     10  C   UNL     1      -4.550  -2.968  23.940  0.00  0.00    -0.013 C 
ATOM     15  C   UNL     1      -5.406  -3.408  22.756  0.00  0.00    +0.007 C 
ATOM     16  C   UNL     1      -3.567  -4.065  24.335  0.00  0.00    +0.007 C 
ENDBRANCH   6  10
BRANCH   7  11
ATOM     11  C   UNL     1      -3.950   0.851  23.933  0.00  0.00    +0.092 C 
BRANCH  11   3
ATOM      1  O   UNL     1      -6.106   4.018  25.647  0.00  0.00    -0.377 OA
ATOM      3  N   UNL     1      -4.361   1.917  24.844  0.00  0.00    -0.297 NA
ATOM     18  C   UNL     1      -5.689   1.639  25.407  0.00  0.00    +0.112 C 
ATOM     19  C   UNL     1      -4.366   3.216  24.157  0.00  0.00    +0.112 C 
ATOM     21  C   UNL     1      -6.102   2.771  26.344  0.00  0.00    +0.175 C 
ATOM     22  C   UNL     1      -4.809   4.311  25.125  0.00  0.00    +0.175 C 
ENDBRANCH  11   3
ENDBRANCH   7  11
BRANCH   9  14
ATOM     14  C   UNL     1      -0.204  -2.015  25.017  0.00  0.00    +0.105 C 
BRANCH  14  20
ATOM      2  O   UNL     1      -0.485   0.407  24.918  0.00  0.00    -0.420 OA
ATOM      4  N   UNL     1       1.122  -0.385  23.578  0.00  0.00    -0.112 NA
ATOM      5  N   UNL     1       1.073   0.988  23.422  0.00  0.00    -0.107 NA
ATOM     20  C   UNL     1       0.196  -0.679  24.460  0.00  0.00    +0.218 A 
ATOM     23  C   UNL     1       0.121   1.407  24.223  0.00  0.00    +0.248 A 
BRANCH  23  24
ATOM     24  C   UNL     1      -0.368   2.732  24.473  0.00  0.00    +0.038 A 
ATOM     25  C   UNL     1      -0.101   3.757  23.566  0.00  0.00    +0.013 A 
ATOM     26  C   UNL     1      -1.114   2.994  25.622  0.00  0.00    +0.013 A 
ATOM     27  C   UNL     1      -0.577   5.046  23.809  0.00  0.00    +0.004 A 
ATOM     28  C   UNL     1      -1.590   4.282  25.865  0.00  0.00    +0.004 A 
ATOM     29  C   UNL     1      -1.323   5.308  24.959  0.00  0.00    -0.050 A 
ATOM     30  C   UNL     1      -1.831   6.685  25.219  0.00  0.00    +0.044 C 
ENDBRANCH  23  24
ENDBRANCH  14  20
ENDBRANCH   9  14
TORSDOF 6
ENDMDL
MODEL 5
REMARK VINA RESULT:       1.2      2.055      3.465
REMARK  Name = 38030682
REMARK  10 active torsions:
REMARK  status: ('A' for Active; 'I' for Inactive)
REMARK    1  A    between atoms: N_3  and  C_11
REMARK    2  A    between atoms: C_6  and  C_10
REMARK    3  A    between atoms: C_7  and  C_11
REMARK    4  A    between atoms: C_9  and  C_14
REMARK    5  A    between atoms: C_10  and  C_15
REMARK    6  A    between atoms: C_10  and  C_16
REMARK    7  A    between atoms: C_13  and  C_17
REMARK    8  A    between atoms: C_14  and  C_20
REMARK    9  A    between atoms: C_23  and  C_24
REMARK   10  A    between atoms: C_29  and  C_30
REMARK                            x       y       z     vdW  Elec       q    Type
REMARK                         _______ _______ _______ _____ _____    ______ ____
ROOT
ATOM      6  C   UNL     1      -4.751   1.661  25.263  0.00  0.00    +0.000 C 
ATOM      7  C   UNL     1      -4.481   1.659  23.741  0.00  0.00    +0.029 C 
ATOM      8  C   UNL     1      -3.710   2.520  25.994  0.00  0.00    +0.012 C 
ATOM      9  C   UNL     1      -3.649   3.975  25.482  0.00  0.00    +0.024 C 
ATOM     12  C   UNL     1      -4.152   3.032  23.210  0.00  0.00    -0.023 C 
ATOM     13  C   UNL     1      -3.792   4.081  23.971  0.00  0.00    -0.073 C 
ATOM     17  C   UNL     1      -3.571   5.431  23.346  0.00  0.00    +0.039 C 
ENDROOT
BRANCH   6  10
ATOM     10  C   UNL     1      -6.178   2.131  25.578  0.00  0.00    -0.013 C 
ATOM     15  C   UNL     1      -7.134   1.713  24.465  0.00  0.00    +0.007 C 
ATOM     16  C   UNL     1      -6.637   1.576  26.922  0.00  0.00    +0.007 C 
ENDBRANCH   6  10
BRANCH   7  11
ATOM     11  C   UNL     1      -3.353   0.692  23.367  0.00  0.00    +0.092 C 
BRANCH  11   3
ATOM      1  O   UNL     1      -2.705  -3.203  24.790  0.00  0.00    -0.377 OA
ATOM      3  N   UNL     1      -3.405  -0.507  24.200  0.00  0.00    -0.297 NA
ATOM     18  C   UNL     1      -2.064  -0.865  24.685  0.00  0.00    +0.112 C 
ATOM     19  C   UNL     1      -3.989  -1.633  23.458  0.00  0.00    +0.112 C 
ATOM     21  C   UNL     1      -2.142  -2.126  25.540  0.00  0.00    +0.175 C 
ATOM     22  C   UNL     1      -4.021  -2.876  24.344  0.00  0.00    +0.175 C 
ENDBRANCH  11   3
ENDBRANCH   7  11
BRANCH   9  14
ATOM     14  C   UNL     1      -2.363   4.625  26.007  0.00  0.00    +0.105 C 
BRANCH  14  20
ATOM      2  O   UNL     1      -0.827   3.112  24.863  0.00  0.00    -0.420 OA
ATOM      4  N   UNL     1      -0.546   3.199  27.081  0.00  0.00    -0.112 NA
ATOM      5  N   UNL     1       0.381   2.312  26.567  0.00  0.00    -0.107 NA
ATOM     20  C   UNL     1      -1.229   3.641  26.052  0.00  0.00    +0.218 A 
ATOM     23  C   UNL     1       0.181   2.294  25.270  0.00  0.00    +0.248 A 
BRANCH  23  24
ATOM     24  C   UNL     1       0.847   1.557  24.235  0.00  0.00    +0.038 A 
ATOM     25  C   UNL     1       0.190   0.508  23.592  0.00  0.00    +0.013 A 
ATOM     26  C   UNL     1       2.151   1.891  23.870  0.00  0.00    +0.013 A 
ATOM     27  C   UNL     1       0.837  -0.209  22.586  0.00  0.00    +0.004 A 
ATOM     28  C   UNL     1       2.798   1.175  22.864  0.00  0.00    +0.004 A 
ATOM     29  C   UNL     1       2.142   0.125  22.221  0.00  0.00    -0.050 A 
ATOM     30  C   UNL     1       2.834  -0.641  21.146  0.00  0.00    +0.044 C 
ENDBRANCH  23  24
ENDBRANCH  14  20
ENDBRANCH   9  14
TORSDOF 6
ENDMDL
MODEL 6
REMARK VINA RESULT:       1.4      1.823      4.129
REMARK  Name = 38030682
REMARK  10 active torsions:
REMARK  status: ('A' for Active; 'I' for Inactive)
REMARK    1  A    between atoms: N_3  and  C_11
REMARK    2  A    between atoms: C_6  and  C_10
REMARK    3  A    between atoms: C_7  and  C_11
REMARK    4  A    between atoms: C_9  and  C_14
REMARK    5  A    between atoms: C_10  and  C_15
REMARK    6  A    between atoms: C_10  and  C_16
REMARK    7  A    between atoms: C_13  and  C_17
REMARK    8  A    between atoms: C_14  and  C_20
REMARK    9  A    between atoms: C_23  and  C_24
REMARK   10  A    between atoms: C_29  and  C_30
REMARK                            x       y       z     vdW  Elec       q    Type
REMARK                         _______ _______ _______ _____ _____    ______ ____
ROOT
ATOM      6  C   UNL     1      -3.303   3.032  24.255  0.00  0.00    +0.000 C 
ATOM      7  C   UNL     1      -4.149   3.813  25.287  0.00  0.00    +0.029 C 
ATOM      8  C   UNL     1      -3.165   1.562  24.675  0.00  0.00    +0.012 C 
ATOM      9  C   UNL     1      -4.522   0.851  24.868  0.00  0.00    +0.024 C 
ATOM     12  C   UNL     1      -5.376   3.052  25.724  0.00  0.00    -0.023 C 
ATOM     13  C   UNL     1      -5.567   1.734  25.535  0.00  0.00    -0.073 C 
ATOM     17  C   UNL     1      -6.867   1.091  25.933  0.00  0.00    +0.039 C 
ENDROOT
BRANCH   6  10
ATOM     10  C   UNL     1      -3.890   3.153  22.842  0.00  0.00    -0.013 C 
ATOM     15  C   UNL     1      -4.193   4.613  22.515  0.00  0.00    +0.007 C 
ATOM     16  C   UNL     1      -2.934   2.555  21.815  0.00  0.00    +0.007 C 
ENDBRANCH   6  10
BRANCH   7  11
ATOM     11  C   UNL     1      -3.327   4.194  26.522  0.00  0.00    +0.092 C 
BRANCH  11   3
ATOM      1  O   UNL     1       0.328   3.803  24.495  0.00  0.00    -0.377 OA
ATOM      3  N   UNL     1      -1.909   4.300  26.184  0.00  0.00    -0.297 NA
ATOM     18  C   UNL     1      -1.726   5.023  24.918  0.00  0.00    +0.112 C 
ATOM     19  C   UNL     1      -1.292   2.969  26.098  0.00  0.00    +0.112 C 
ATOM     21  C   UNL     1      -0.241   5.110  24.580  0.00  0.00    +0.175 C 
ATOM     22  C   UNL     1       0.184   3.106  25.732  0.00  0.00    +0.175 C 
ENDBRANCH  11   3
ENDBRANCH   7  11
BRANCH   9  14
ATOM     14  C   UNL     1      -4.283  -0.463  25.621  0.00  0.00    +0.105 C 
BRANCH  14  20
ATOM      2  O   UNL     1      -2.004  -0.341  24.755  0.00  0.00    -0.420 OA
ATOM      4  N   UNL     1      -2.758  -2.425  25.061  0.00  0.00    -0.112 NA
ATOM      5  N   UNL     1      -1.468  -2.504  24.572  0.00  0.00    -0.107 NA
ATOM     20  C   UNL     1      -3.029  -1.144  25.152  0.00  0.00    +0.218 A 
ATOM     23  C   UNL     1      -1.068  -1.265  24.408  0.00  0.00    +0.248 A 
BRANCH  23  24
ATOM     24  C   UNL     1       0.180  -0.744  23.930  0.00  0.00    +0.038 A 
ATOM     25  C   UNL     1       1.319  -1.550  23.932  0.00  0.00    +0.013 A 
ATOM     26  C   UNL     1       0.254   0.567  23.460  0.00  0.00    +0.013 A 
ATOM     27  C   UNL     1       2.532  -1.044  23.467  0.00  0.00    +0.004 A 
ATOM     28  C   UNL     1       1.468   1.073  22.994  0.00  0.00    +0.004 A 
ATOM     29  C   UNL     1       2.607   0.267  22.997  0.00  0.00    -0.050 A 
ATOM     30  C   UNL     1       3.904   0.808  22.500  0.00  0.00    +0.044 C 
ENDBRANCH  23  24
ENDBRANCH  14  20
ENDBRANCH   9  14
TORSDOF 6
ENDMDL
MODEL 7
REMARK VINA RESULT:       1.9      3.111      4.455
REMARK  Name = 38030682
REMARK  10 active torsions:
REMARK  status: ('A' for Active; 'I' for Inactive)
REMARK    1  A    between atoms: N_3  and  C_11
REMARK    2  A    between atoms: C_6  and  C_10
REMARK    3  A    between atoms: C_7  and  C_11
REMARK    4  A    between atoms: C_9  and  C_14
REMARK    5  A    between atoms: C_10  and  C_15
REMARK    6  A    between atoms: C_10  and  C_16
REMARK    7  A    between atoms: C_13  and  C_17
REMARK    8  A    between atoms: C_14  and  C_20
REMARK    9  A    between atoms: C_23  and  C_24
REMARK   10  A    between atoms: C_29  and  C_30
REMARK                            x       y       z     vdW  Elec       q    Type
REMARK                         _______ _______ _______ _____ _____    ______ ____
ROOT
ATOM      6  C   UNL     1      -4.576   2.430  25.538  0.00  0.00    +0.000 C 
ATOM      7  C   UNL     1      -4.282   1.031  24.950  0.00  0.00    +0.029 C 
ATOM      8  C   UNL     1      -3.393   3.378  25.292  0.00  0.00    +0.012 C 
ATOM      9  C   UNL     1      -3.022   3.516  23.800  0.00  0.00    +0.024 C 
ATOM     12  C   UNL     1      -3.665   1.100  23.576  0.00  0.00    -0.023 C 
ATOM     13  C   UNL     1      -3.110   2.201  23.039  0.00  0.00    -0.073 C 
ATOM     17  C   UNL     1      -2.601   2.182  21.624  0.00  0.00    +0.039 C 
ENDROOT
BRANCH   6  10
ATOM     10  C   UNL     1      -5.880   3.012  24.975  0.00  0.00    -0.013 C 
ATOM     15  C   UNL     1      -6.989   1.965  25.011  0.00  0.00    +0.007 C 
ATOM     16  C   UNL     1      -6.288   4.259  25.753  0.00  0.00    +0.007 C 
ENDBRANCH   6  10
BRANCH   7  11
ATOM     11  C   UNL     1      -3.372   0.211  25.870  0.00  0.00    +0.092 C 
BRANCH  11   3
ATOM      1  O   UNL     1      -0.741  -2.874  24.784  0.00  0.00    -0.377 OA
ATOM      3  N   UNL     1      -2.477  -0.638  25.086  0.00  0.00    -0.297 NA
ATOM     18  C   UNL     1      -2.998  -2.009  25.003  0.00  0.00    +0.112 C 
ATOM     19  C   UNL     1      -1.126  -0.647  25.666  0.00  0.00    +0.112 C 
ATOM     21  C   UNL     1      -2.041  -2.879  24.193  0.00  0.00    +0.175 C 
ATOM     22  C   UNL     1      -0.214  -1.548  24.838  0.00  0.00    +0.175 C 
ENDBRANCH  11   3
ENDBRANCH   7  11
BRANCH   9  14
ATOM     14  C   UNL     1      -1.640   4.173  23.699  0.00  0.00    +0.105 C 
BRANCH  14  20
ATOM      2  O   UNL     1      -0.501   3.494  25.748  0.00  0.00    -0.420 OA
ATOM      4  N   UNL     1       0.275   2.507  23.897  0.00  0.00    -0.112 NA
ATOM      5  N   UNL     1       1.005   2.034  24.972  0.00  0.00    -0.107 NA
ATOM     20  C   UNL     1      -0.591   3.356  24.397  0.00  0.00    +0.218 A 
ATOM     23  C   UNL     1       0.517   2.637  26.031  0.00  0.00    +0.248 A 
BRANCH  23  24
ATOM     24  C   UNL     1       0.885   2.534  27.413  0.00  0.00    +0.038 A 
ATOM     25  C   UNL     1      -0.090   2.273  28.377  0.00  0.00    +0.013 A 
ATOM     26  C   UNL     1       2.217   2.693  27.794  0.00  0.00    +0.013 A 
ATOM     27  C   UNL     1       0.267   2.173  29.721  0.00  0.00    +0.004 A 
ATOM     28  C   UNL     1       2.574   2.593  29.139  0.00  0.00    +0.004 A 
ATOM     29  C   UNL     1       1.600   2.332  30.103  0.00  0.00    -0.050 A 
ATOM     30  C   UNL     1       1.982   2.226  31.540  0.00  0.00    +0.044 C 
ENDBRANCH  23  24
ENDBRANCH  14  20
ENDBRANCH   9  14
TORSDOF 6
ENDMDL
MODEL 8
REMARK VINA RESULT:       3.0      1.737      2.363
REMARK  Name = 38030682
REMARK  10 active torsions:
REMARK  status: ('A' for Active; 'I' for Inactive)
REMARK    1  A    between atoms: N_3  and  C_11
REMARK    2  A    between atoms: C_6  and  C_10
REMARK    3  A    between atoms: C_7  and  C_11
REMARK    4  A    between atoms: C_9  and  C_14
REMARK    5  A    between atoms: C_10  and  C_15
REMARK    6  A    between atoms: C_10  and  C_16
REMARK    7  A    between atoms: C_13  and  C_17
REMARK    8  A    between atoms: C_14  and  C_20
REMARK    9  A    between atoms: C_23  and  C_24
REMARK   10  A    between atoms: C_29  and  C_30
REMARK                            x       y       z     vdW  Elec       q    Type
REMARK                         _______ _______ _______ _____ _____    ______ ____
ROOT
ATOM      6  C   UNL     1      -2.376   3.919  25.693  0.00  0.00    +0.000 C 
ATOM      7  C   UNL     1      -3.407   4.553  24.730  0.00  0.00    +0.029 C 
ATOM      8  C   UNL     1      -2.382   2.390  25.557  0.00  0.00    +0.012 C 
ATOM      9  C   UNL     1      -2.107   1.903  24.118  0.00  0.00    +0.024 C 
ATOM     12  C   UNL     1      -3.372   3.934  23.356  0.00  0.00    -0.023 C 
ATOM     13  C   UNL     1      -2.786   2.759  23.060  0.00  0.00    -0.073 C 
ATOM     17  C   UNL     1      -2.734   2.275  21.637  0.00  0.00    +0.039 C 
ENDROOT
BRANCH   6  10
ATOM     10  C   UNL     1      -0.970   4.492  25.463  0.00  0.00    -0.013 C 
ATOM     15  C   UNL     1      -0.057   3.432  24.854  0.00  0.00    +0.007 C 
ATOM     16  C   UNL     1      -1.037   5.727  24.571  0.00  0.00    +0.007 C 
ENDBRANCH   6  10
BRANCH   7  11
ATOM     11  C   UNL     1      -4.832   4.462  25.287  0.00  0.00    +0.092 C 
BRANCH  11   3
ATOM      1  O   UNL     1      -6.996   0.939  26.008  0.00  0.00    -0.377 OA
ATOM      3  N   UNL     1      -5.160   3.083  25.643  0.00  0.00    -0.297 NA
ATOM     18  C   UNL     1      -5.753   2.376  24.499  0.00  0.00    +0.112 C 
ATOM     19  C   UNL     1      -6.077   3.044  26.790  0.00  0.00    +0.112 C 
ATOM     21  C   UNL     1      -6.099   0.944  24.897  0.00  0.00    +0.175 C 
ATOM     22  C   UNL     1      -6.414   1.595  27.134  0.00  0.00    +0.175 C 
ENDBRANCH  11   3
ENDBRANCH   7  11
BRANCH   9  14
ATOM     14  C   UNL     1      -2.489   0.421  24.022  0.00  0.00    +0.105 C 
BRANCH  14  20
ATOM      2  O   UNL     1      -0.080   0.115  23.769  0.00  0.00    -0.420 OA
ATOM      4  N   UNL     1      -1.182  -1.737  24.371  0.00  0.00    -0.112 NA
ATOM      5  N   UNL     1       0.160  -2.053  24.265  0.00  0.00    -0.107 NA
ATOM     20  C   UNL     1      -1.275  -0.463  24.073  0.00  0.00    +0.218 A 
ATOM     23  C   UNL     1       0.764  -0.943  23.912  0.00  0.00    +0.248 A 
BRANCH  23  24
ATOM     24  C   UNL     1       2.150  -0.677  23.658  0.00  0.00    +0.038 A 
ATOM     25  C   UNL     1       3.120  -1.601  24.048  0.00  0.00    +0.013 A 
ATOM     26  C   UNL     1       2.529   0.504  23.020  0.00  0.00    +0.013 A 
ATOM     27  C   UNL     1       4.469  -1.343  23.801  0.00  0.00    +0.004 A 
ATOM     28  C   UNL     1       3.877   0.762  22.773  0.00  0.00    +0.004 A 
ATOM     29  C   UNL     1       4.848  -0.161  23.163  0.00  0.00    -0.050 A 
ATOM     30  C   UNL     1       6.289   0.115  22.900  0.00  0.00    +0.044 C 
ENDBRANCH  23  24
ENDBRANCH  14  20
ENDBRANCH   9  14
TORSDOF 6
ENDMDL
