MODEL 1
REMARK VINA RESULT:      -1.9      0.000      0.000
REMARK  Name = 56774195
REMARK  10 active torsions:
REMARK  status: ('A' for Active; 'I' for Inactive)
REMARK    1  A    between atoms: O_2  and  C_27
REMARK    2  A    between atoms: O_2  and  C_28
REMARK    3  A    between atoms: N_3  and  C_8
REMARK    4  A    between atoms: N_3  and  C_14
REMARK    5  A    between atoms: C_6  and  C_11
REMARK    6  A    between atoms: C_6  and  C_12
REMARK    7  A    between atoms: C_7  and  C_10
REMARK    8  A    between atoms: C_10  and  C_13
REMARK    9  A    between atoms: C_14  and  C_16
REMARK   10  A    between atoms: C_17  and  C_20
REMARK                            x       y       z     vdW  Elec       q    Type
REMARK                         _______ _______ _______ _____ _____    ______ ____
ROOT
ATOM      6  C   UNL     1      -6.917  -9.956  10.708  0.00  0.00    -0.016 C 
ATOM      7  C   UNL     1      -5.622 -10.781  10.550  0.00  0.00    +0.004 C 
ATOM      8  C   UNL     1      -6.779  -9.595   9.214  0.00  0.00    +0.060 C 
ATOM      9  C   UNL     1      -5.265  -9.852   9.371  0.00  0.00    +0.023 C 
ATOM     11  C   UNL     1      -8.177 -10.755  10.989  0.00  0.00    +0.013 C 
ATOM     12  C   UNL     1      -6.806  -8.830  11.714  0.00  0.00    +0.013 C 
ENDROOT
BRANCH   8   3
ATOM      3  N   UNL     1      -6.997  -8.166   8.990  0.00  0.00    -0.309 NA
ATOM     29  H   UNL     1      -6.227  -7.713   8.497  0.00  0.00    +0.123 HD
BRANCH   3  14
ATOM     14  C   UNL     1      -8.216  -7.975   8.213  0.00  0.00    +0.116 C 
BRANCH  14  16
ATOM      5  N   UNL     1      -9.943  -4.090   8.868  0.00  0.00    -0.263 NA
ATOM     16  C   UNL     1      -8.821  -6.615   8.443  0.00  0.00    -0.031 A 
ATOM     18  C   UNL     1     -10.180  -6.491   8.706  0.00  0.00    +0.024 A 
ATOM     19  C   UNL     1      -8.021  -5.479   8.392  0.00  0.00    +0.024 A 
ATOM     21  C   UNL     1     -10.688  -5.218   8.909  0.00  0.00    +0.111 A 
ATOM     22  C   UNL     1      -8.625  -4.250   8.609  0.00  0.00    +0.111 A 
ENDBRANCH  14  16
ENDBRANCH   3  14
ENDBRANCH   8   3
BRANCH   7  10
ATOM     10  C   UNL     1      -4.625 -10.747  11.716  0.00  0.00    +0.063 C 
BRANCH  10  13
ATOM      1  O   UNL     1      -2.014  -8.924  10.098  0.00  0.00    -0.354 OA
ATOM      4  N   UNL     1      -3.250  -9.559  10.099  0.00  0.00    -0.083 NA
ATOM     13  C   UNL     1      -3.405 -10.011  11.348  0.00  0.00    +0.084 A 
ATOM     15  C   UNL     1      -2.309  -9.695  12.169  0.00  0.00    +0.076 A 
ATOM     17  C   UNL     1      -1.463  -9.011  11.336  0.00  0.00    +0.167 A 
BRANCH  17  20
ATOM     20  C   UNL     1      -0.170  -8.392  11.491  0.00  0.00    +0.020 A 
ATOM     23  C   UNL     1      -0.002  -7.349  12.403  0.00  0.00    +0.015 A 
ATOM     24  C   UNL     1       0.912  -8.837  10.732  0.00  0.00    +0.015 A 
ATOM     25  C   UNL     1       1.249  -6.750  12.553  0.00  0.00    +0.046 A 
ATOM     26  C   UNL     1       2.163  -8.238  10.883  0.00  0.00    +0.046 A 
ATOM     27  C   UNL     1       2.331  -7.195  11.793  0.00  0.00    +0.120 A 
BRANCH  27   2
ATOM      2  O   UNL     1       3.552  -6.612  11.943  0.00  0.00    -0.495 OA
ATOM     28  C   UNL     1       4.614  -7.443  12.413  0.00  0.00    +0.277 C 
ENDBRANCH  27   2
ENDBRANCH  17  20
ENDBRANCH  10  13
ENDBRANCH   7  10
TORSDOF 7
ENDMDL
MODEL 2
REMARK VINA RESULT:      -1.6     15.532     17.889
REMARK  Name = 56774195
REMARK  10 active torsions:
REMARK  status: ('A' for Active; 'I' for Inactive)
REMARK    1  A    between atoms: O_2  and  C_27
REMARK    2  A    between atoms: O_2  and  C_28
REMARK    3  A    between atoms: N_3  and  C_8
REMARK    4  A    between atoms: N_3  and  C_14
REMARK    5  A    between atoms: C_6  and  C_11
REMARK    6  A    between atoms: C_6  and  C_12
REMARK    7  A    between atoms: C_7  and  C_10
REMARK    8  A    between atoms: C_10  and  C_13
REMARK    9  A    between atoms: C_14  and  C_16
REMARK   10  A    between atoms: C_17  and  C_20
REMARK                            x       y       z     vdW  Elec       q    Type
REMARK                         _______ _______ _______ _____ _____    ______ ____
ROOT
ATOM      6  C   UNL     1      -4.707   3.852  25.140  0.00  0.00    -0.016 C 
ATOM      7  C   UNL     1      -3.622   4.123  26.203  0.00  0.00    +0.004 C 
ATOM      8  C   UNL     1      -4.709   2.387  25.624  0.00  0.00    +0.060 C 
ATOM      9  C   UNL     1      -3.262   2.625  26.105  0.00  0.00    +0.023 C 
ATOM     11  C   UNL     1      -6.043   4.534  25.375  0.00  0.00    +0.013 C 
ATOM     12  C   UNL     1      -4.254   4.121  23.720  0.00  0.00    +0.013 C 
ENDROOT
BRANCH   8   3
ATOM      3  N   UNL     1      -4.687   1.455  24.497  0.00  0.00    -0.309 NA
ATOM     29  H   UNL     1      -3.769   1.376  24.057  0.00  0.00    +0.123 HD
BRANCH   3  14
ATOM     14  C   UNL     1      -5.094   0.130  24.952  0.00  0.00    +0.116 C 
BRANCH  14  16
ATOM      5  N   UNL     1      -1.931  -2.753  24.526  0.00  0.00    -0.263 NA
ATOM     16  C   UNL     1      -3.987  -0.878  24.802  0.00  0.00    -0.031 A 
ATOM     18  C   UNL     1      -4.154  -1.979  23.970  0.00  0.00    +0.024 A 
ATOM     19  C   UNL     1      -2.793  -0.713  25.496  0.00  0.00    +0.024 A 
ATOM     21  C   UNL     1      -3.105  -2.880  23.867  0.00  0.00    +0.111 A 
ATOM     22  C   UNL     1      -1.805  -1.670  25.326  0.00  0.00    +0.111 A 
ENDBRANCH  14  16
ENDBRANCH   3  14
ENDBRANCH   8   3
BRANCH   7  10
ATOM     10  C   UNL     1      -2.487   5.080  25.815  0.00  0.00    +0.063 C 
BRANCH  10  13
ATOM      1  O   UNL     1       0.173   4.078  23.652  0.00  0.00    -0.354 OA
ATOM      4  N   UNL     1      -0.723   5.021  24.142  0.00  0.00    -0.083 NA
ATOM     13  C   UNL     1      -1.428   4.374  25.075  0.00  0.00    +0.084 A 
ATOM     15  C   UNL     1      -1.026   3.035  25.215  0.00  0.00    +0.076 A 
ATOM     17  C   UNL     1      -0.017   2.900  24.298  0.00  0.00    +0.167 A 
BRANCH  17  20
ATOM     20  C   UNL     1       0.848   1.818  23.896  0.00  0.00    +0.020 A 
ATOM     23  C   UNL     1       2.180   2.075  23.569  0.00  0.00    +0.015 A 
ATOM     24  C   UNL     1       0.353   0.516  23.835  0.00  0.00    +0.015 A 
ATOM     25  C   UNL     1       3.017   1.028  23.181  0.00  0.00    +0.046 A 
ATOM     26  C   UNL     1       1.190  -0.531  23.446  0.00  0.00    +0.046 A 
ATOM     27  C   UNL     1       2.521  -0.274  23.119  0.00  0.00    +0.120 A 
BRANCH  27   2
ATOM      2  O   UNL     1       3.339  -1.295  22.743  0.00  0.00    -0.495 OA
ATOM     28  C   UNL     1       4.508  -1.515  23.533  0.00  0.00    +0.277 C 
ENDBRANCH  27   2
ENDBRANCH  17  20
ENDBRANCH  10  13
ENDBRANCH   7  10
TORSDOF 7
ENDMDL
MODEL 3
REMARK VINA RESULT:      -1.4     16.065     17.659
REMARK  Name = 56774195
REMARK  10 active torsions:
REMARK  status: ('A' for Active; 'I' for Inactive)
REMARK    1  A    between atoms: O_2  and  C_27
REMARK    2  A    between atoms: O_2  and  C_28
REMARK    3  A    between atoms: N_3  and  C_8
REMARK    4  A    between atoms: N_3  and  C_14
REMARK    5  A    between atoms: C_6  and  C_11
REMARK    6  A    between atoms: C_6  and  C_12
REMARK    7  A    between atoms: C_7  and  C_10
REMARK    8  A    between atoms: C_10  and  C_13
REMARK    9  A    between atoms: C_14  and  C_16
REMARK   10  A    between atoms: C_17  and  C_20
REMARK                            x       y       z     vdW  Elec       q    Type
REMARK                         _______ _______ _______ _____ _____    ______ ____
ROOT
ATOM      6  C   UNL     1      -5.504   1.615  25.012  0.00  0.00    -0.016 C 
ATOM      7  C   UNL     1      -4.519   0.834  24.116  0.00  0.00    +0.004 C 
ATOM      8  C   UNL     1      -4.679   2.878  24.687  0.00  0.00    +0.060 C 
ATOM      9  C   UNL     1      -3.485   1.937  24.424  0.00  0.00    +0.023 C 
ATOM     11  C   UNL     1      -6.928   1.712  24.495  0.00  0.00    +0.013 C 
ATOM     12  C   UNL     1      -5.527   1.145  26.451  0.00  0.00    +0.013 C 
ENDROOT
BRANCH   8   3
ATOM      3  N   UNL     1      -4.410   3.662  25.892  0.00  0.00    -0.309 NA
ATOM     29  H   UNL     1      -4.100   3.094  26.680  0.00  0.00    +0.123 HD
BRANCH   3  14
ATOM     14  C   UNL     1      -3.380   4.655  25.607  0.00  0.00    +0.116 C 
BRANCH  14  16
ATOM      5  N   UNL     1       0.555   2.919  25.564  0.00  0.00    -0.263 NA
ATOM     16  C   UNL     1      -2.004   4.047  25.592  0.00  0.00    -0.031 A 
ATOM     18  C   UNL     1      -1.653   3.089  26.537  0.00  0.00    +0.024 A 
ATOM     19  C   UNL     1      -1.077   4.441  24.632  0.00  0.00    +0.024 A 
ATOM     21  C   UNL     1      -0.373   2.561  26.481  0.00  0.00    +0.111 A 
ATOM     22  C   UNL     1       0.177   3.852  24.662  0.00  0.00    +0.111 A 
ENDBRANCH  14  16
ENDBRANCH   3  14
ENDBRANCH   8   3
BRANCH   7  10
ATOM     10  C   UNL     1      -4.114  -0.571  24.583  0.00  0.00    +0.063 C 
BRANCH  10  13
ATOM      1  O   UNL     1      -0.780  -1.843  24.433  0.00  0.00    -0.354 OA
ATOM      4  N   UNL     1      -2.135  -1.979  24.710  0.00  0.00    -0.083 NA
ATOM     13  C   UNL     1      -2.669  -0.791  24.408  0.00  0.00    +0.084 A 
ATOM     15  C   UNL     1      -1.709   0.123  23.942  0.00  0.00    +0.076 A 
ATOM     17  C   UNL     1      -0.538  -0.588  23.976  0.00  0.00    +0.167 A 
BRANCH  17  20
ATOM     20  C   UNL     1       0.835  -0.296  23.642  0.00  0.00    +0.020 A 
ATOM     23  C   UNL     1       1.200   0.995  23.261  0.00  0.00    +0.015 A 
ATOM     24  C   UNL     1       1.796  -1.304  23.703  0.00  0.00    +0.015 A 
ATOM     25  C   UNL     1       2.527   1.277  22.938  0.00  0.00    +0.046 A 
ATOM     26  C   UNL     1       3.123  -1.022  23.381  0.00  0.00    +0.046 A 
ATOM     27  C   UNL     1       3.489   0.269  22.998  0.00  0.00    +0.120 A 
BRANCH  27   2
ATOM      2  O   UNL     1       4.784   0.546  22.687  0.00  0.00    -0.495 OA
ATOM     28  C   UNL     1       5.788   0.016  23.554  0.00  0.00    +0.277 C 
ENDBRANCH  27   2
ENDBRANCH  17  20
ENDBRANCH  10  13
ENDBRANCH   7  10
TORSDOF 7
ENDMDL
MODEL 4
REMARK VINA RESULT:       1.3     15.609     17.130
REMARK  Name = 56774195
REMARK  10 active torsions:
REMARK  status: ('A' for Active; 'I' for Inactive)
REMARK    1  A    between atoms: O_2  and  C_27
REMARK    2  A    between atoms: O_2  and  C_28
REMARK    3  A    between atoms: N_3  and  C_8
REMARK    4  A    between atoms: N_3  and  C_14
REMARK    5  A    between atoms: C_6  and  C_11
REMARK    6  A    between atoms: C_6  and  C_12
REMARK    7  A    between atoms: C_7  and  C_10
REMARK    8  A    between atoms: C_10  and  C_13
REMARK    9  A    between atoms: C_14  and  C_16
REMARK   10  A    between atoms: C_17  and  C_20
REMARK                            x       y       z     vdW  Elec       q    Type
REMARK                         _______ _______ _______ _____ _____    ______ ____
ROOT
ATOM      6  C   UNL     1      -2.742   0.586  24.778  0.00  0.00    -0.016 C 
ATOM      7  C   UNL     1      -2.507  -0.905  25.097  0.00  0.00    +0.004 C 
ATOM      8  C   UNL     1      -4.036   0.482  25.611  0.00  0.00    +0.060 C 
ATOM      9  C   UNL     1      -4.034  -1.026  25.286  0.00  0.00    +0.023 C 
ATOM     11  C   UNL     1      -1.745   1.555  25.387  0.00  0.00    +0.013 C 
ATOM     12  C   UNL     1      -2.883   0.881  23.299  0.00  0.00    +0.013 C 
ENDROOT
BRANCH   8   3
ATOM      3  N   UNL     1      -5.163   1.114  24.925  0.00  0.00    -0.309 NA
ATOM     29  H   UNL     1      -6.003   0.535  24.913  0.00  0.00    +0.123 HD
BRANCH   3  14
ATOM     14  C   UNL     1      -5.485   2.378  25.578  0.00  0.00    +0.116 C 
BRANCH  14  16
ATOM      5  N   UNL     1      -2.313   5.253  25.162  0.00  0.00    -0.263 NA
ATOM     16  C   UNL     1      -4.374   3.383  25.433  0.00  0.00    -0.031 A 
ATOM     18  C   UNL     1      -3.695   3.840  26.556  0.00  0.00    +0.024 A 
ATOM     19  C   UNL     1      -4.024   3.859  24.174  0.00  0.00    +0.024 A 
ATOM     21  C   UNL     1      -2.682   4.767  26.369  0.00  0.00    +0.111 A 
ATOM     22  C   UNL     1      -2.996   4.785  24.093  0.00  0.00    +0.111 A 
ENDBRANCH  14  16
ENDBRANCH   3  14
ENDBRANCH   8   3
BRANCH   7  10
ATOM     10  C   UNL     1      -1.930  -1.778  23.974  0.00  0.00    +0.063 C 
BRANCH  10  13
ATOM      1  O   UNL     1       0.832  -0.303  22.257  0.00  0.00    -0.354 OA
ATOM      4  N   UNL     1      -0.514  -0.635  22.362  0.00  0.00    -0.083 NA
ATOM     13  C   UNL     1      -0.620  -1.274  23.531  0.00  0.00    +0.084 A 
ATOM     15  C   UNL     1       0.612  -1.374  24.200  0.00  0.00    +0.076 A 
ATOM     17  C   UNL     1       1.492  -0.748  23.357  0.00  0.00    +0.167 A 
BRANCH  17  20
ATOM     20  C   UNL     1       2.908  -0.473  23.392  0.00  0.00    +0.020 A 
ATOM     23  C   UNL     1       3.786  -1.409  23.937  0.00  0.00    +0.015 A 
ATOM     24  C   UNL     1       3.397   0.728  22.879  0.00  0.00    +0.015 A 
ATOM     25  C   UNL     1       5.155  -1.143  23.970  0.00  0.00    +0.046 A 
ATOM     26  C   UNL     1       4.766   0.994  22.913  0.00  0.00    +0.046 A 
ATOM     27  C   UNL     1       5.644   0.058  23.459  0.00  0.00    +0.120 A 
BRANCH  27   2
ATOM      2  O   UNL     1       6.980   0.315  23.489  0.00  0.00    -0.495 OA
ATOM     28  C   UNL     1       7.832  -0.591  22.788  0.00  0.00    +0.277 C 
ENDBRANCH  27   2
ENDBRANCH  17  20
ENDBRANCH  10  13
ENDBRANCH   7  10
TORSDOF 7
ENDMDL
MODEL 5
REMARK VINA RESULT:       1.5     15.737     17.246
REMARK  Name = 56774195
REMARK  10 active torsions:
REMARK  status: ('A' for Active; 'I' for Inactive)
REMARK    1  A    between atoms: O_2  and  C_27
REMARK    2  A    between atoms: O_2  and  C_28
REMARK    3  A    between atoms: N_3  and  C_8
REMARK    4  A    between atoms: N_3  and  C_14
REMARK    5  A    between atoms: C_6  and  C_11
REMARK    6  A    between atoms: C_6  and  C_12
REMARK    7  A    between atoms: C_7  and  C_10
REMARK    8  A    between atoms: C_10  and  C_13
REMARK    9  A    between atoms: C_14  and  C_16
REMARK   10  A    between atoms: C_17  and  C_20
REMARK                            x       y       z     vdW  Elec       q    Type
REMARK                         _______ _______ _______ _____ _____    ______ ____
ROOT
ATOM      6  C   UNL     1      -4.590   1.157  25.352  0.00  0.00    -0.016 C 
ATOM      7  C   UNL     1      -4.587  -0.375  25.164  0.00  0.00    +0.004 C 
ATOM      8  C   UNL     1      -4.900   1.265  23.845  0.00  0.00    +0.060 C 
ATOM      9  C   UNL     1      -4.229  -0.116  23.686  0.00  0.00    +0.023 C 
ATOM     11  C   UNL     1      -5.713   1.713  26.209  0.00  0.00    +0.013 C 
ATOM     12  C   UNL     1      -3.269   1.716  25.838  0.00  0.00    +0.013 C 
ENDROOT
BRANCH   8   3
ATOM      3  N   UNL     1      -4.063   2.276  23.201  0.00  0.00    -0.309 NA
ATOM     29  H   UNL     1      -4.362   2.502  22.252  0.00  0.00    +0.123 HD
BRANCH   3  14
ATOM     14  C   UNL     1      -4.083   3.502  23.992  0.00  0.00    +0.116 C 
BRANCH  14  16
ATOM      5  N   UNL     1      -0.114   4.932  24.830  0.00  0.00    -0.263 NA
ATOM     16  C   UNL     1      -2.694   4.002  24.286  0.00  0.00    -0.031 A 
ATOM     18  C   UNL     1      -2.512   5.244  24.884  0.00  0.00    +0.024 A 
ATOM     19  C   UNL     1      -1.589   3.224  23.960  0.00  0.00    +0.024 A 
ATOM     21  C   UNL     1      -1.214   5.660  25.133  0.00  0.00    +0.111 A 
ATOM     22  C   UNL     1      -0.331   3.730  24.250  0.00  0.00    +0.111 A 
ENDBRANCH  14  16
ENDBRANCH   3  14
ENDBRANCH   8   3
BRANCH   7  10
ATOM     10  C   UNL     1      -3.535  -1.173  25.947  0.00  0.00    +0.063 C 
BRANCH  10  13
ATOM      1  O   UNL     1      -0.795  -2.070  23.839  0.00  0.00    -0.354 OA
ATOM      4  N   UNL     1      -2.058  -2.295  24.375  0.00  0.00    -0.083 NA
ATOM     13  C   UNL     1      -2.272  -1.263  25.196  0.00  0.00    +0.084 A 
ATOM     15  C   UNL     1      -1.191  -0.365  25.220  0.00  0.00    +0.076 A 
ATOM     17  C   UNL     1      -0.289  -0.919  24.350  0.00  0.00    +0.167 A 
BRANCH  17  20
ATOM     20  C   UNL     1       1.025  -0.550  23.882  0.00  0.00    +0.020 A 
ATOM     23  C   UNL     1       1.251   0.729  23.374  0.00  0.00    +0.015 A 
ATOM     24  C   UNL     1       2.069  -1.472  23.940  0.00  0.00    +0.015 A 
ATOM     25  C   UNL     1       2.521   1.086  22.922  0.00  0.00    +0.046 A 
ATOM     26  C   UNL     1       3.340  -1.116  23.488  0.00  0.00    +0.046 A 
ATOM     27  C   UNL     1       3.565   0.163  22.979  0.00  0.00    +0.120 A 
BRANCH  27   2
ATOM      2  O   UNL     1       4.806   0.513  22.542  0.00  0.00    -0.495 OA
ATOM     28  C   UNL     1       5.920   0.030  23.293  0.00  0.00    +0.277 C 
ENDBRANCH  27   2
ENDBRANCH  17  20
ENDBRANCH  10  13
ENDBRANCH   7  10
TORSDOF 7
ENDMDL
MODEL 6
REMARK VINA RESULT:       1.6     15.789     17.696
REMARK  Name = 56774195
REMARK  10 active torsions:
REMARK  status: ('A' for Active; 'I' for Inactive)
REMARK    1  A    between atoms: O_2  and  C_27
REMARK    2  A    between atoms: O_2  and  C_28
REMARK    3  A    between atoms: N_3  and  C_8
REMARK    4  A    between atoms: N_3  and  C_14
REMARK    5  A    between atoms: C_6  and  C_11
REMARK    6  A    between atoms: C_6  and  C_12
REMARK    7  A    between atoms: C_7  and  C_10
REMARK    8  A    between atoms: C_10  and  C_13
REMARK    9  A    between atoms: C_14  and  C_16
REMARK   10  A    between atoms: C_17  and  C_20
REMARK                            x       y       z     vdW  Elec       q    Type
REMARK                         _______ _______ _______ _____ _____    ______ ____
ROOT
ATOM      6  C   UNL     1      -3.031  -2.675  25.342  0.00  0.00    -0.016 C 
ATOM      7  C   UNL     1      -1.778  -2.844  24.458  0.00  0.00    +0.004 C 
ATOM      8  C   UNL     1      -3.805  -2.344  24.049  0.00  0.00    +0.060 C 
ATOM      9  C   UNL     1      -2.458  -1.896  23.448  0.00  0.00    +0.023 C 
ATOM     11  C   UNL     1      -3.542  -3.941  26.008  0.00  0.00    +0.013 C 
ATOM     12  C   UNL     1      -2.904  -1.582  26.382  0.00  0.00    +0.013 C 
ENDROOT
BRANCH   8   3
ATOM      3  N   UNL     1      -4.660  -1.171  24.228  0.00  0.00    -0.309 NA
ATOM     29  H   UNL     1      -4.841  -0.950  25.208  0.00  0.00    +0.123 HD
BRANCH   3  14
ATOM     14  C   UNL     1      -4.033  -0.011  23.603  0.00  0.00    +0.116 C 
BRANCH  14  16
ATOM      5  N   UNL     1      -5.312   3.673  25.417  0.00  0.00    -0.263 NA
ATOM     16  C   UNL     1      -4.480   1.278  24.239  0.00  0.00    -0.031 A 
ATOM     18  C   UNL     1      -5.256   1.255  25.392  0.00  0.00    +0.024 A 
ATOM     19  C   UNL     1      -4.119   2.496  23.674  0.00  0.00    +0.024 A 
ATOM     21  C   UNL     1      -5.643   2.469  25.937  0.00  0.00    +0.111 A 
ATOM     22  C   UNL     1      -4.557   3.655  24.296  0.00  0.00    +0.111 A 
ENDBRANCH  14  16
ENDBRANCH   3  14
ENDBRANCH   8   3
BRANCH   7  10
ATOM     10  C   UNL     1      -0.448  -2.328  25.024  0.00  0.00    +0.063 C 
BRANCH  10  13
ATOM      1  O   UNL     1       0.552   0.939  23.983  0.00  0.00    -0.354 OA
ATOM      4  N   UNL     1       0.694  -0.444  23.995  0.00  0.00    -0.083 NA
ATOM     13  C   UNL     1      -0.293  -0.885  24.781  0.00  0.00    +0.084 A 
ATOM     15  C   UNL     1      -1.080   0.163  25.288  0.00  0.00    +0.076 A 
ATOM     17  C   UNL     1      -0.507   1.289  24.756  0.00  0.00    +0.167 A 
BRANCH  17  20
ATOM     20  C   UNL     1      -0.783   2.702  24.839  0.00  0.00    +0.020 A 
ATOM     23  C   UNL     1      -0.232   3.576  23.902  0.00  0.00    +0.015 A 
ATOM     24  C   UNL     1      -1.601   3.194  25.856  0.00  0.00    +0.015 A 
ATOM     25  C   UNL     1      -0.499   4.943  23.983  0.00  0.00    +0.046 A 
ATOM     26  C   UNL     1      -1.868   4.560  25.936  0.00  0.00    +0.046 A 
ATOM     27  C   UNL     1      -1.317   5.435  25.000  0.00  0.00    +0.120 A 
BRANCH  27   2
ATOM      2  O   UNL     1      -1.580   6.768  25.075  0.00  0.00    -0.495 OA
ATOM     28  C   UNL     1      -2.381   7.332  24.037  0.00  0.00    +0.277 C 
ENDBRANCH  27   2
ENDBRANCH  17  20
ENDBRANCH  10  13
ENDBRANCH   7  10
TORSDOF 7
ENDMDL
MODEL 7
REMARK VINA RESULT:       2.0     16.091     18.698
REMARK  Name = 56774195
REMARK  10 active torsions:
REMARK  status: ('A' for Active; 'I' for Inactive)
REMARK    1  A    between atoms: O_2  and  C_27
REMARK    2  A    between atoms: O_2  and  C_28
REMARK    3  A    between atoms: N_3  and  C_8
REMARK    4  A    between atoms: N_3  and  C_14
REMARK    5  A    between atoms: C_6  and  C_11
REMARK    6  A    between atoms: C_6  and  C_12
REMARK    7  A    between atoms: C_7  and  C_10
REMARK    8  A    between atoms: C_10  and  C_13
REMARK    9  A    between atoms: C_14  and  C_16
REMARK   10  A    between atoms: C_17  and  C_20
REMARK                            x       y       z     vdW  Elec       q    Type
REMARK                         _______ _______ _______ _____ _____    ______ ____
ROOT
ATOM      6  C   UNL     1       0.535  -0.405  23.022  0.00  0.00    -0.016 C 
ATOM      7  C   UNL     1       0.224  -1.546  24.013  0.00  0.00    +0.004 C 
ATOM      8  C   UNL     1       1.021   0.414  24.235  0.00  0.00    +0.060 C 
ATOM      9  C   UNL     1       0.092  -0.460  25.102  0.00  0.00    +0.023 C 
ATOM     11  C   UNL     1       1.652  -0.680  22.031  0.00  0.00    +0.013 C 
ATOM     12  C   UNL     1      -0.680   0.103  22.274  0.00  0.00    +0.013 C 
ENDROOT
BRANCH   8   3
ATOM      3  N   UNL     1       0.494   1.778  24.200  0.00  0.00    -0.309 NA
ATOM     29  H   UNL     1      -0.379   1.859  23.679  0.00  0.00    +0.123 HD
BRANCH   3  14
ATOM     14  C   UNL     1       0.263   2.246  25.562  0.00  0.00    +0.116 C 
BRANCH  14  16
ATOM      5  N   UNL     1      -2.570   5.481  25.681  0.00  0.00    -0.263 NA
ATOM     16  C   UNL     1      -0.728   3.379  25.605  0.00  0.00    -0.031 A 
ATOM     18  C   UNL     1      -1.839   3.303  26.438  0.00  0.00    +0.024 A 
ATOM     19  C   UNL     1      -0.537   4.504  24.810  0.00  0.00    +0.024 A 
ATOM     21  C   UNL     1      -2.722   4.371  26.439  0.00  0.00    +0.111 A 
ATOM     22  C   UNL     1      -1.479   5.518  24.884  0.00  0.00    +0.111 A 
ENDBRANCH  14  16
ENDBRANCH   3  14
ENDBRANCH   8   3
BRANCH   7  10
ATOM     10  C   UNL     1      -1.052  -2.361  23.764  0.00  0.00    +0.063 C 
BRANCH  10  13
ATOM      1  O   UNL     1      -4.320  -1.209  24.633  0.00  0.00    -0.354 OA
ATOM      4  N   UNL     1      -3.416  -2.217  24.316  0.00  0.00    -0.083 NA
ATOM     13  C   UNL     1      -2.253  -1.588  24.122  0.00  0.00    +0.084 A 
ATOM     15  C   UNL     1      -2.360  -0.198  24.300  0.00  0.00    +0.076 A 
ATOM     17  C   UNL     1      -3.680  -0.012  24.620  0.00  0.00    +0.167 A 
BRANCH  17  20
ATOM     20  C   UNL     1      -4.494   1.137  24.934  0.00  0.00    +0.020 A 
ATOM     23  C   UNL     1      -5.443   1.061  25.954  0.00  0.00    +0.015 A 
ATOM     24  C   UNL     1      -4.330   2.323  24.219  0.00  0.00    +0.015 A 
ATOM     25  C   UNL     1      -6.229   2.172  26.258  0.00  0.00    +0.046 A 
ATOM     26  C   UNL     1      -5.117   3.434  24.523  0.00  0.00    +0.046 A 
ATOM     27  C   UNL     1      -6.066   3.358  25.542  0.00  0.00    +0.120 A 
BRANCH  27   2
ATOM      2  O   UNL     1      -6.831   4.443  25.842  0.00  0.00    -0.495 OA
ATOM     28  C   UNL     1      -6.339   5.719  25.431  0.00  0.00    +0.277 C 
ENDBRANCH  27   2
ENDBRANCH  17  20
ENDBRANCH  10  13
ENDBRANCH   7  10
TORSDOF 7
ENDMDL
MODEL 8
REMARK VINA RESULT:       2.1      4.729      6.862
REMARK  Name = 56774195
REMARK  10 active torsions:
REMARK  status: ('A' for Active; 'I' for Inactive)
REMARK    1  A    between atoms: O_2  and  C_27
REMARK    2  A    between atoms: O_2  and  C_28
REMARK    3  A    between atoms: N_3  and  C_8
REMARK    4  A    between atoms: N_3  and  C_14
REMARK    5  A    between atoms: C_6  and  C_11
REMARK    6  A    between atoms: C_6  and  C_12
REMARK    7  A    between atoms: C_7  and  C_10
REMARK    8  A    between atoms: C_10  and  C_13
REMARK    9  A    between atoms: C_14  and  C_16
REMARK   10  A    between atoms: C_17  and  C_20
REMARK                            x       y       z     vdW  Elec       q    Type
REMARK                         _______ _______ _______ _____ _____    ______ ____
ROOT
ATOM      6  C   UNL     1      -5.803  -9.880  10.862  0.00  0.00    -0.016 C 
ATOM      7  C   UNL     1      -4.440 -10.591  10.996  0.00  0.00    +0.004 C 
ATOM      8  C   UNL     1      -5.401  -9.548   9.409  0.00  0.00    +0.060 C 
ATOM      9  C   UNL     1      -3.933  -9.665   9.870  0.00  0.00    +0.023 C 
ATOM     11  C   UNL     1      -7.024 -10.780  10.927  0.00  0.00    +0.013 C 
ATOM     12  C   UNL     1      -5.987  -8.721  11.819  0.00  0.00    +0.013 C 
ENDROOT
BRANCH   8   3
ATOM      3  N   UNL     1      -5.687  -8.151   9.084  0.00  0.00    -0.309 NA
ATOM     29  H   UNL     1      -4.887  -7.659   8.684  0.00  0.00    +0.123 HD
BRANCH   3  14
ATOM     14  C   UNL     1      -6.789  -8.088   8.131  0.00  0.00    +0.116 C 
BRANCH  14  16
ATOM      5  N   UNL     1     -10.609  -7.945  10.102  0.00  0.00    -0.263 NA
ATOM     16  C   UNL     1      -8.126  -8.038   8.822  0.00  0.00    -0.031 A 
ATOM     18  C   UNL     1      -8.594  -9.147   9.517  0.00  0.00    +0.024 A 
ATOM     19  C   UNL     1      -8.897  -6.882   8.766  0.00  0.00    +0.024 A 
ATOM     21  C   UNL     1      -9.831  -9.051  10.135  0.00  0.00    +0.111 A 
ATOM     22  C   UNL     1     -10.121  -6.887   9.416  0.00  0.00    +0.111 A 
ENDBRANCH  14  16
ENDBRANCH   3  14
ENDBRANCH   8   3
BRANCH   7  10
ATOM     10  C   UNL     1      -3.700 -10.436  12.332  0.00  0.00    +0.063 C 
BRANCH  10  13
ATOM      1  O   UNL     1      -6.519 -10.714  14.508  0.00  0.00    -0.354 OA
ATOM      4  N   UNL     1      -5.934 -10.727  13.247  0.00  0.00    -0.083 NA
ATOM     13  C   UNL     1      -4.637 -10.493  13.466  0.00  0.00    +0.084 A 
ATOM     15  C   UNL     1      -4.347 -10.324  14.831  0.00  0.00    +0.076 A 
ATOM     17  C   UNL     1      -5.564 -10.473  15.443  0.00  0.00    +0.167 A 
BRANCH  17  20
ATOM     20  C   UNL     1      -6.023 -10.432  16.810  0.00  0.00    +0.020 A 
ATOM     23  C   UNL     1      -7.390 -10.445  17.088  0.00  0.00    +0.015 A 
ATOM     24  C   UNL     1      -5.099 -10.381  17.853  0.00  0.00    +0.015 A 
ATOM     25  C   UNL     1      -7.833 -10.405  18.410  0.00  0.00    +0.046 A 
ATOM     26  C   UNL     1      -5.542 -10.342  19.176  0.00  0.00    +0.046 A 
ATOM     27  C   UNL     1      -6.909 -10.354  19.453  0.00  0.00    +0.120 A 
BRANCH  27   2
ATOM      2  O   UNL     1      -7.342 -10.319  20.743  0.00  0.00    -0.495 OA
ATOM     28  C   UNL     1      -8.717 -10.627  20.975  0.00  0.00    +0.277 C 
ENDBRANCH  27   2
ENDBRANCH  17  20
ENDBRANCH  10  13
ENDBRANCH   7  10
TORSDOF 7
ENDMDL
