MODEL 1
REMARK VINA RESULT:       0.3      0.000      0.000
REMARK  Name = 45784225
REMARK  4 active torsions:
REMARK  status: ('A' for Active; 'I' for Inactive)
REMARK    1  A    between atoms: N_2  and  C_6
REMARK    2  A    between atoms: C_7  and  C_15
REMARK    3  A    between atoms: C_16  and  C_19
REMARK    4  A    between atoms: C_22  and  C_24
REMARK                            x       y       z     vdW  Elec       q    Type
REMARK                         _______ _______ _______ _____ _____    ______ ____
ROOT
ATOM      2  N   UNL     1      -5.877 -10.773  11.469  0.00  0.00    -0.299 NA
ATOM      7  C   UNL     1      -3.646 -10.699  12.189  0.00  0.00    +0.070 C 
ATOM      8  C   UNL     1      -4.516 -10.771  10.927  0.00  0.00    +0.096 C 
ATOM      9  C   UNL     1      -5.863  -9.764  12.528  0.00  0.00    +0.085 C 
ATOM     10  C   UNL     1      -4.552 -10.048  13.250  0.00  0.00    +0.028 C 
ENDROOT
BRANCH   7  15
ATOM      4  N   UNL     1      -1.922  -8.969  12.768  0.00  0.00    -0.342 N 
ATOM      5  N   UNL     1      -1.458 -10.246  11.010  0.00  0.00    -0.232 NA
ATOM     15  C   UNL     1      -2.330  -9.992  11.958  0.00  0.00    +0.113 A 
ATOM     17  C   UNL     1      -0.704  -8.535  12.312  0.00  0.00    +0.066 A 
ATOM     18  C   UNL     1      -0.435  -9.348  11.214  0.00  0.00    +0.089 A 
ATOM     20  C   UNL     1       0.159  -7.531  12.752  0.00  0.00    +0.031 A 
ATOM     21  C   UNL     1       0.761  -9.163  10.502  0.00  0.00    +0.030 A 
ATOM     22  C   UNL     1       1.346  -7.362  12.031  0.00  0.00    -0.048 A 
ATOM     23  C   UNL     1       1.644  -8.162  10.925  0.00  0.00    +0.005 A 
ATOM     24  C   UNL     1       2.312  -6.304  12.454  0.00  0.00    +0.044 C 
ATOM     25  H   UNL     1      -2.425  -8.596  13.562  0.00  0.00    +0.167 HD
ENDBRANCH   7  15
BRANCH   2   6
ATOM      1  O   UNL     1      -8.941  -6.598   8.156  0.00  0.00    -0.276 OA
ATOM      3  N   UNL     1      -8.744  -8.672   9.183  0.00  0.00    -0.302 N 
ATOM      6  C   UNL     1      -6.884 -10.495  10.448  0.00  0.00    +0.060 C 
ATOM     11  C   UNL     1      -8.216 -10.118  11.110  0.00  0.00    +0.038 C 
ATOM     12  C   UNL     1      -6.403  -9.364   9.530  0.00  0.00    +0.038 C 
ATOM     13  C   UNL     1      -9.258  -9.730  10.062  0.00  0.00    +0.109 C 
ATOM     14  C   UNL     1      -7.481  -8.991   8.513  0.00  0.00    +0.109 C 
ATOM     16  C   UNL     1      -9.377  -7.456   8.929  0.00  0.00    +0.212 C 
ATOM     19  C   UNL     1     -10.671  -7.202   9.659  0.00  0.00    +0.109 C 
ENDBRANCH   2   6
TORSDOF 2
ENDMDL
MODEL 2
REMARK VINA RESULT:       2.3     15.948     16.801
REMARK  Name = 45784225
REMARK  4 active torsions:
REMARK  status: ('A' for Active; 'I' for Inactive)
REMARK    1  A    between atoms: N_2  and  C_6
REMARK    2  A    between atoms: C_7  and  C_15
REMARK    3  A    between atoms: C_16  and  C_19
REMARK    4  A    between atoms: C_22  and  C_24
REMARK                            x       y       z     vdW  Elec       q    Type
REMARK                         _______ _______ _______ _____ _____    ______ ____
ROOT
ATOM      2  N   UNL     1      -2.578  -0.850  24.275  0.00  0.00    -0.299 NA
ATOM      7  C   UNL     1      -0.341  -1.516  24.047  0.00  0.00    +0.070 C 
ATOM      8  C   UNL     1      -1.445  -0.703  23.357  0.00  0.00    +0.096 C 
ATOM      9  C   UNL     1      -2.005  -0.687  25.611  0.00  0.00    +0.085 C 
ATOM     10  C   UNL     1      -0.730  -1.516  25.536  0.00  0.00    +0.028 C 
ENDROOT
BRANCH   7  15
ATOM      4  N   UNL     1       2.162  -1.684  24.137  0.00  0.00    -0.342 N 
ATOM      5  N   UNL     1       1.349   0.122  23.129  0.00  0.00    -0.232 NA
ATOM     15  C   UNL     1       1.046  -0.993  23.753  0.00  0.00    +0.113 A 
ATOM     17  C   UNL     1       3.258  -0.966  23.734  0.00  0.00    +0.066 A 
ATOM     18  C   UNL     1       2.725   0.157  23.107  0.00  0.00    +0.089 A 
ATOM     20  C   UNL     1       4.628  -1.196  23.860  0.00  0.00    +0.031 A 
ATOM     21  C   UNL     1       3.596   1.118  22.568  0.00  0.00    +0.030 A 
ATOM     22  C   UNL     1       5.481  -0.228  23.317  0.00  0.00    -0.048 A 
ATOM     23  C   UNL     1       4.976   0.909  22.682  0.00  0.00    +0.005 A 
ATOM     24  C   UNL     1       6.959  -0.417  23.420  0.00  0.00    +0.044 C 
ATOM     25  H   UNL     1       2.180  -2.567  24.630  0.00  0.00    +0.167 HD
ENDBRANCH   7  15
BRANCH   2   6
ATOM      1  O   UNL     1      -4.500   4.988  24.429  0.00  0.00    -0.276 OA
ATOM      3  N   UNL     1      -4.871   2.695  24.462  0.00  0.00    -0.302 N 
ATOM      6  C   UNL     1      -3.641   0.115  24.004  0.00  0.00    +0.060 C 
ATOM     11  C   UNL     1      -4.418   0.417  25.292  0.00  0.00    +0.038 C 
ATOM     12  C   UNL     1      -3.048   1.403  23.421  0.00  0.00    +0.038 C 
ATOM     13  C   UNL     1      -5.476   1.495  25.053  0.00  0.00    +0.109 C 
ATOM     14  C   UNL     1      -4.131   2.461  23.219  0.00  0.00    +0.109 C 
ATOM     16  C   UNL     1      -4.988   3.990  24.966  0.00  0.00    +0.212 C 
ATOM     19  C   UNL     1      -5.763   4.148  26.250  0.00  0.00    +0.109 C 
ENDBRANCH   2   6
TORSDOF 2
ENDMDL
MODEL 3
REMARK VINA RESULT:       4.0     16.009     17.200
REMARK  Name = 45784225
REMARK  4 active torsions:
REMARK  status: ('A' for Active; 'I' for Inactive)
REMARK    1  A    between atoms: N_2  and  C_6
REMARK    2  A    between atoms: C_7  and  C_15
REMARK    3  A    between atoms: C_16  and  C_19
REMARK    4  A    between atoms: C_22  and  C_24
REMARK                            x       y       z     vdW  Elec       q    Type
REMARK                         _______ _______ _______ _____ _____    ______ ____
ROOT
ATOM      2  N   UNL     1      -2.532  -0.291  24.492  0.00  0.00    -0.299 NA
ATOM      7  C   UNL     1      -0.567  -0.773  23.305  0.00  0.00    +0.070 C 
ATOM      8  C   UNL     1      -1.402   0.391  23.856  0.00  0.00    +0.096 C 
ATOM      9  C   UNL     1      -1.938  -1.424  25.203  0.00  0.00    +0.085 C 
ATOM     10  C   UNL     1      -0.942  -1.975  24.191  0.00  0.00    +0.028 C 
ENDROOT
BRANCH   7  15
ATOM      4  N   UNL     1       1.840  -1.344  23.727  0.00  0.00    -0.342 N 
ATOM      5  N   UNL     1       1.468   0.624  22.765  0.00  0.00    -0.232 NA
ATOM     15  C   UNL     1       0.911  -0.463  23.249  0.00  0.00    +0.113 A 
ATOM     17  C   UNL     1       3.080  -0.789  23.539  0.00  0.00    +0.066 A 
ATOM     18  C   UNL     1       2.821   0.439  22.937  0.00  0.00    +0.089 A 
ATOM     20  C   UNL     1       4.365  -1.242  23.835  0.00  0.00    +0.031 A 
ATOM     21  C   UNL     1       3.897   1.278  22.603  0.00  0.00    +0.030 A 
ATOM     22  C   UNL     1       5.425  -0.393  23.495  0.00  0.00    -0.048 A 
ATOM     23  C   UNL     1       5.197   0.845  22.890  0.00  0.00    +0.005 A 
ATOM     24  C   UNL     1       6.826  -0.822  23.786  0.00  0.00    +0.044 C 
ATOM     25  H   UNL     1       1.652  -2.245  24.146  0.00  0.00    +0.167 HD
ENDBRANCH   7  15
BRANCH   2   6
ATOM      1  O   UNL     1      -6.826   4.064  25.117  0.00  0.00    -0.276 OA
ATOM      3  N   UNL     1      -4.900   2.957  25.796  0.00  0.00    -0.302 N 
ATOM      6  C   UNL     1      -3.286   0.589  25.380  0.00  0.00    +0.060 C 
ATOM     11  C   UNL     1      -2.668   1.994  25.379  0.00  0.00    +0.038 C 
ATOM     12  C   UNL     1      -4.754   0.650  24.938  0.00  0.00    +0.038 C 
ATOM     13  C   UNL     1      -3.496   2.958  26.228  0.00  0.00    +0.109 C 
ATOM     14  C   UNL     1      -5.541   1.640  25.795  0.00  0.00    +0.109 C 
ATOM     16  C   UNL     1      -5.636   4.087  25.441  0.00  0.00    +0.212 C 
ATOM     19  C   UNL     1      -4.903   5.405  25.464  0.00  0.00    +0.109 C 
ENDBRANCH   2   6
TORSDOF 2
ENDMDL
