MODEL 1
REMARK VINA RESULT:      -3.0      0.000      0.000
REMARK  Name = 26743608
REMARK  6 active torsions:
REMARK  status: ('A' for Active; 'I' for Inactive)
REMARK    1  A    between atoms: O_4  and  C_11
REMARK    2  A    between atoms: N_6  and  C_13
REMARK    3  A    between atoms: C_9  and  C_14
REMARK    4  A    between atoms: C_13  and  C_15
REMARK    5  A    between atoms: C_16  and  C_19
REMARK    6  A    between atoms: C_27  and  C_28
REMARK                            x       y       z     vdW  Elec       q    Type
REMARK                         _______ _______ _______ _____ _____    ______ ____
ROOT
ATOM      5  O   UNL     1      -3.134   1.971  22.043  0.00  0.00    -0.336 OA
ATOM      7  N   UNL     1      -2.044   1.541  23.951  0.00  0.00    -0.190 NA
ATOM      8  N   UNL     1      -1.814   1.676  21.679  0.00  0.00    -0.056 NA
ATOM     14  C   UNL     1      -3.183   1.869  23.397  0.00  0.00    +0.245 A 
ATOM     16  C   UNL     1      -1.234   1.433  22.858  0.00  0.00    +0.202 A 
ENDROOT
BRANCH  16  19
ATOM     19  C   UNL     1       0.152   1.083  22.979  0.00  0.00    +0.022 A 
ATOM     23  C   UNL     1       0.647  -0.043  22.321  0.00  0.00    +0.012 A 
ATOM     24  C   UNL     1       1.005   1.868  23.754  0.00  0.00    +0.012 A 
ATOM     25  C   UNL     1       1.995  -0.383  22.438  0.00  0.00    +0.013 A 
ATOM     26  C   UNL     1       2.353   1.530  23.871  0.00  0.00    +0.013 A 
ATOM     27  C   UNL     1       2.847   0.403  23.213  0.00  0.00    +0.055 A 
BRANCH  27  28
ATOM      1  F   UNL     1       4.962   0.782  24.265  0.00  0.00    -0.166 F 
ATOM      2  F   UNL     1       4.974   0.205  22.169  0.00  0.00    -0.166 F 
ATOM      3  F   UNL     1       4.496  -1.260  23.703  0.00  0.00    -0.166 F 
ATOM     28  C   UNL     1       4.288   0.040  23.337  0.00  0.00    +0.417 C 
ENDBRANCH  27  28
ENDBRANCH  16  19
BRANCH  14   9
ATOM      6  N   UNL     1      -4.630   1.560  25.399  0.00  0.00    -0.285 NA
ATOM      9  C   UNL     1      -4.523   2.144  24.046  0.00  0.00    +0.149 C 
ATOM     10  C   UNL     1      -4.793   3.647  24.244  0.00  0.00    +0.061 C 
ATOM     11  C   UNL     1      -5.084   3.803  25.731  0.00  0.00    +0.130 C 
ATOM     12  C   UNL     1      -5.543   2.420  26.149  0.00  0.00    +0.116 C 
BRANCH  11   4
ATOM      4  O   UNL     1      -6.088   4.777  25.945  0.00  0.00    -0.390 OA
ATOM     29  H   UNL     1      -5.748   5.625  25.614  0.00  0.00    +0.210 HD
ENDBRANCH  11   4
BRANCH   6  13
ATOM     13  C   UNL     1      -5.066   0.170  25.393  0.00  0.00    +0.120 C 
BRANCH  13  15
ATOM     15  C   UNL     1      -3.922  -0.776  25.144  0.00  0.00    -0.033 A 
ATOM     17  C   UNL     1      -4.053  -1.797  24.203  0.00  0.00    +0.005 A 
ATOM     18  C   UNL     1      -2.731  -0.631  25.855  0.00  0.00    +0.005 A 
ATOM     20  C   UNL     1      -2.992  -2.674  23.973  0.00  0.00    +0.000 A 
ATOM     21  C   UNL     1      -1.670  -1.508  25.626  0.00  0.00    +0.000 A 
ATOM     22  C   UNL     1      -1.801  -2.530  24.684  0.00  0.00    +0.000 A 
ENDBRANCH  13  15
ENDBRANCH   6  13
ENDBRANCH  14   9
TORSDOF 6
ENDMDL
MODEL 2
REMARK VINA RESULT:      -3.0      0.057      1.472
REMARK  Name = 26743608
REMARK  6 active torsions:
REMARK  status: ('A' for Active; 'I' for Inactive)
REMARK    1  A    between atoms: O_4  and  C_11
REMARK    2  A    between atoms: N_6  and  C_13
REMARK    3  A    between atoms: C_9  and  C_14
REMARK    4  A    between atoms: C_13  and  C_15
REMARK    5  A    between atoms: C_16  and  C_19
REMARK    6  A    between atoms: C_27  and  C_28
REMARK                            x       y       z     vdW  Elec       q    Type
REMARK                         _______ _______ _______ _____ _____    ______ ____
ROOT
ATOM      5  O   UNL     1      -3.151   1.991  22.074  0.00  0.00    -0.336 OA
ATOM      7  N   UNL     1      -2.063   1.514  23.972  0.00  0.00    -0.190 NA
ATOM      8  N   UNL     1      -1.832   1.704  21.704  0.00  0.00    -0.056 NA
ATOM     14  C   UNL     1      -3.201   1.856  23.426  0.00  0.00    +0.245 A 
ATOM     16  C   UNL     1      -1.253   1.432  22.878  0.00  0.00    +0.202 A 
ENDROOT
BRANCH  16  19
ATOM     19  C   UNL     1       0.133   1.077  22.991  0.00  0.00    +0.022 A 
ATOM     23  C   UNL     1       1.007   1.896  23.708  0.00  0.00    +0.012 A 
ATOM     24  C   UNL     1       0.607  -0.086  22.385  0.00  0.00    +0.012 A 
ATOM     25  C   UNL     1       2.353   1.551  23.818  0.00  0.00    +0.013 A 
ATOM     26  C   UNL     1       1.953  -0.432  22.495  0.00  0.00    +0.013 A 
ATOM     27  C   UNL     1       2.826   0.387  23.212  0.00  0.00    +0.055 A 
BRANCH  27  28
ATOM      1  F   UNL     1       4.977   0.206  22.179  0.00  0.00    -0.166 F 
ATOM      2  F   UNL     1       4.446  -1.295  23.660  0.00  0.00    -0.166 F 
ATOM      3  F   UNL     1       4.938   0.729  24.284  0.00  0.00    -0.166 F 
ATOM     28  C   UNL     1       4.266   0.017  23.330  0.00  0.00    +0.417 C 
ENDBRANCH  27  28
ENDBRANCH  16  19
BRANCH  14   9
ATOM      6  N   UNL     1      -4.625   1.559  25.446  0.00  0.00    -0.285 NA
ATOM      9  C   UNL     1      -4.542   2.116  24.080  0.00  0.00    +0.149 C 
ATOM     10  C   UNL     1      -4.841   3.617  24.249  0.00  0.00    +0.061 C 
ATOM     11  C   UNL     1      -5.124   3.799  25.735  0.00  0.00    +0.130 C 
ATOM     12  C   UNL     1      -5.550   2.415  26.186  0.00  0.00    +0.116 C 
BRANCH  11   4
ATOM      4  O   UNL     1      -6.147   4.755  25.938  0.00  0.00    -0.390 OA
ATOM     29  H   UNL     1      -6.649   4.826  25.108  0.00  0.00    +0.210 HD
ENDBRANCH  11   4
BRANCH   6  13
ATOM     13  C   UNL     1      -5.032   0.160  25.473  0.00  0.00    +0.120 C 
BRANCH  13  15
ATOM     15  C   UNL     1      -3.879  -0.764  25.189  0.00  0.00    -0.033 A 
ATOM     17  C   UNL     1      -2.674  -0.608  25.873  0.00  0.00    +0.005 A 
ATOM     18  C   UNL     1      -4.015  -1.778  24.240  0.00  0.00    +0.005 A 
ATOM     20  C   UNL     1      -1.605  -1.465  25.609  0.00  0.00    +0.000 A 
ATOM     21  C   UNL     1      -2.947  -2.635  23.976  0.00  0.00    +0.000 A 
ATOM     22  C   UNL     1      -1.741  -2.478  24.661  0.00  0.00    +0.000 A 
ENDBRANCH  13  15
ENDBRANCH   6  13
ENDBRANCH  14   9
TORSDOF 6
ENDMDL
MODEL 3
REMARK VINA RESULT:      -2.5     14.422     15.958
REMARK  Name = 26743608
REMARK  6 active torsions:
REMARK  status: ('A' for Active; 'I' for Inactive)
REMARK    1  A    between atoms: O_4  and  C_11
REMARK    2  A    between atoms: N_6  and  C_13
REMARK    3  A    between atoms: C_9  and  C_14
REMARK    4  A    between atoms: C_13  and  C_15
REMARK    5  A    between atoms: C_16  and  C_19
REMARK    6  A    between atoms: C_27  and  C_28
REMARK                            x       y       z     vdW  Elec       q    Type
REMARK                         _______ _______ _______ _____ _____    ______ ____
ROOT
ATOM      5  O   UNL     1      -3.155 -10.766  11.572  0.00  0.00    -0.336 OA
ATOM      7  N   UNL     1      -2.534  -8.870  10.554  0.00  0.00    -0.190 NA
ATOM      8  N   UNL     1      -1.871 -10.472  12.047  0.00  0.00    -0.056 NA
ATOM     14  C   UNL     1      -3.470  -9.774  10.698  0.00  0.00    +0.245 A 
ATOM     16  C   UNL     1      -1.574  -9.340  11.401  0.00  0.00    +0.202 A 
ENDROOT
BRANCH  16  19
ATOM     19  C   UNL     1      -0.325  -8.656  11.577  0.00  0.00    +0.022 A 
ATOM     23  C   UNL     1      -0.179  -7.724  12.606  0.00  0.00    +0.012 A 
ATOM     24  C   UNL     1       0.744  -8.923  10.723  0.00  0.00    +0.012 A 
ATOM     25  C   UNL     1       1.035  -7.059  12.777  0.00  0.00    +0.013 A 
ATOM     26  C   UNL     1       1.958  -8.259  10.894  0.00  0.00    +0.013 A 
ATOM     27  C   UNL     1       2.103  -7.327  11.922  0.00  0.00    +0.055 A 
BRANCH  27  28
ATOM      1  F   UNL     1       3.939  -6.771  13.353  0.00  0.00    -0.166 F 
ATOM      2  F   UNL     1       3.294  -5.269  11.917  0.00  0.00    -0.166 F 
ATOM      3  F   UNL     1       4.378  -7.030  11.244  0.00  0.00    -0.166 F 
ATOM     28  C   UNL     1       3.401  -6.617  12.106  0.00  0.00    +0.417 C 
ENDBRANCH  27  28
ENDBRANCH  16  19
BRANCH  14   9
ATOM      6  N   UNL     1      -5.936  -9.593  10.979  0.00  0.00    -0.285 NA
ATOM      9  C   UNL     1      -4.830  -9.863  10.038  0.00  0.00    +0.149 C 
ATOM     10  C   UNL     1      -5.013  -8.833   8.908  0.00  0.00    +0.061 C 
ATOM     11  C   UNL     1      -6.272  -8.059   9.279  0.00  0.00    +0.130 C 
ATOM     12  C   UNL     1      -7.021  -9.017  10.186  0.00  0.00    +0.116 C 
BRANCH  11   4
ATOM      4  O   UNL     1      -7.020  -7.735   8.124  0.00  0.00    -0.390 OA
ATOM     29  H   UNL     1      -7.243  -8.569   7.676  0.00  0.00    +0.210 HD
ENDBRANCH  11   4
BRANCH   6  13
ATOM     13  C   UNL     1      -6.364 -10.773  11.717  0.00  0.00    +0.120 C 
BRANCH  13  15
ATOM     15  C   UNL     1      -6.501 -10.493  13.190  0.00  0.00    -0.033 A 
ATOM     17  C   UNL     1      -5.383 -10.564  14.021  0.00  0.00    +0.005 A 
ATOM     18  C   UNL     1      -7.747 -10.165  13.724  0.00  0.00    +0.005 A 
ATOM     20  C   UNL     1      -5.510 -10.305  15.385  0.00  0.00    +0.000 A 
ATOM     21  C   UNL     1      -7.875  -9.906  15.089  0.00  0.00    +0.000 A 
ATOM     22  C   UNL     1      -6.755  -9.976  15.920  0.00  0.00    +0.000 A 
ENDBRANCH  13  15
ENDBRANCH   6  13
ENDBRANCH  14   9
TORSDOF 6
ENDMDL
MODEL 4
REMARK VINA RESULT:      -0.7     13.712     15.125
REMARK  Name = 26743608
REMARK  6 active torsions:
REMARK  status: ('A' for Active; 'I' for Inactive)
REMARK    1  A    between atoms: O_4  and  C_11
REMARK    2  A    between atoms: N_6  and  C_13
REMARK    3  A    between atoms: C_9  and  C_14
REMARK    4  A    between atoms: C_13  and  C_15
REMARK    5  A    between atoms: C_16  and  C_19
REMARK    6  A    between atoms: C_27  and  C_28
REMARK                            x       y       z     vdW  Elec       q    Type
REMARK                         _______ _______ _______ _____ _____    ______ ____
ROOT
ATOM      5  O   UNL     1      -3.520 -10.002  10.529  0.00  0.00    -0.336 OA
ATOM      7  N   UNL     1      -2.498  -9.617  12.484  0.00  0.00    -0.190 NA
ATOM      8  N   UNL     1      -2.303  -9.383  10.216  0.00  0.00    -0.056 NA
ATOM     14  C   UNL     1      -3.555 -10.102  11.884  0.00  0.00    +0.245 A 
ATOM     16  C   UNL     1      -1.758  -9.188  11.421  0.00  0.00    +0.202 A 
ENDROOT
BRANCH  16  19
ATOM     19  C   UNL     1      -0.478  -8.565  11.597  0.00  0.00    +0.022 A 
ATOM     23  C   UNL     1      -0.307  -7.585  12.576  0.00  0.00    +0.012 A 
ATOM     24  C   UNL     1       0.597  -8.938  10.790  0.00  0.00    +0.012 A 
ATOM     25  C   UNL     1       0.938  -6.980  12.747  0.00  0.00    +0.013 A 
ATOM     26  C   UNL     1       1.842  -8.333  10.961  0.00  0.00    +0.013 A 
ATOM     27  C   UNL     1       2.012  -7.354  11.940  0.00  0.00    +0.055 A 
BRANCH  27  28
ATOM      1  F   UNL     1       4.265  -7.076  11.185  0.00  0.00    -0.166 F 
ATOM      2  F   UNL     1       3.910  -7.004  13.329  0.00  0.00    -0.166 F 
ATOM      3  F   UNL     1       3.302  -5.343  12.065  0.00  0.00    -0.166 F 
ATOM     28  C   UNL     1       3.343  -6.708  12.123  0.00  0.00    +0.417 C 
ENDBRANCH  27  28
ENDBRANCH  16  19
BRANCH  14   9
ATOM      6  N   UNL     1      -5.156 -10.168  13.789  0.00  0.00    -0.285 NA
ATOM      9  C   UNL     1      -4.787 -10.748  12.481  0.00  0.00    +0.149 C 
ATOM     10  C   UNL     1      -6.039 -10.567  11.603  0.00  0.00    +0.061 C 
ATOM     11  C   UNL     1      -7.072  -9.919  12.516  0.00  0.00    +0.130 C 
ATOM     12  C   UNL     1      -6.606 -10.305  13.907  0.00  0.00    +0.116 C 
BRANCH  11   4
ATOM      4  O   UNL     1      -8.368 -10.414  12.240  0.00  0.00    -0.390 OA
ATOM     29  H   UNL     1      -8.390 -11.345  12.518  0.00  0.00    +0.210 HD
ENDBRANCH  11   4
BRANCH   6  13
ATOM     13  C   UNL     1      -4.454 -10.781  14.908  0.00  0.00    +0.120 C 
BRANCH  13  15
ATOM     15  C   UNL     1      -5.219 -10.636  16.196  0.00  0.00    -0.033 A 
ATOM     17  C   UNL     1      -6.586 -10.362  16.169  0.00  0.00    +0.005 A 
ATOM     18  C   UNL     1      -4.560 -10.776  17.417  0.00  0.00    +0.005 A 
ATOM     20  C   UNL     1      -7.295 -10.227  17.363  0.00  0.00    +0.000 A 
ATOM     21  C   UNL     1      -5.268 -10.641  18.612  0.00  0.00    +0.000 A 
ATOM     22  C   UNL     1      -6.636 -10.367  18.584  0.00  0.00    +0.000 A 
ENDBRANCH  13  15
ENDBRANCH   6  13
ENDBRANCH  14   9
TORSDOF 6
ENDMDL
MODEL 5
REMARK VINA RESULT:       0.4     14.086     15.795
REMARK  Name = 26743608
REMARK  6 active torsions:
REMARK  status: ('A' for Active; 'I' for Inactive)
REMARK    1  A    between atoms: O_4  and  C_11
REMARK    2  A    between atoms: N_6  and  C_13
REMARK    3  A    between atoms: C_9  and  C_14
REMARK    4  A    between atoms: C_13  and  C_15
REMARK    5  A    between atoms: C_16  and  C_19
REMARK    6  A    between atoms: C_27  and  C_28
REMARK                            x       y       z     vdW  Elec       q    Type
REMARK                         _______ _______ _______ _____ _____    ______ ____
ROOT
ATOM      5  O   UNL     1      -4.478 -10.781  12.765  0.00  0.00    -0.336 OA
ATOM      7  N   UNL     1      -3.749  -9.334  11.219  0.00  0.00    -0.190 NA
ATOM      8  N   UNL     1      -3.170 -10.444  13.134  0.00  0.00    -0.056 NA
ATOM     14  C   UNL     1      -4.740 -10.085  11.628  0.00  0.00    +0.245 A 
ATOM     16  C   UNL     1      -2.808  -9.587  12.174  0.00  0.00    +0.202 A 
ENDROOT
BRANCH  16  19
ATOM     19  C   UNL     1      -1.515  -8.969  12.139  0.00  0.00    +0.022 A 
ATOM     23  C   UNL     1      -0.783  -8.947  10.950  0.00  0.00    +0.012 A 
ATOM     24  C   UNL     1      -0.987  -8.388  13.292  0.00  0.00    +0.012 A 
ATOM     25  C   UNL     1       0.475  -8.345  10.916  0.00  0.00    +0.013 A 
ATOM     26  C   UNL     1       0.270  -7.786  13.258  0.00  0.00    +0.013 A 
ATOM     27  C   UNL     1       1.001  -7.765  12.070  0.00  0.00    +0.055 A 
BRANCH  27  28
ATOM      1  F   UNL     1       3.049  -7.254  13.197  0.00  0.00    -0.166 F 
ATOM      2  F   UNL     1       2.278  -5.778  11.799  0.00  0.00    -0.166 F 
ATOM      3  F   UNL     1       3.166  -7.621  11.062  0.00  0.00    -0.166 F 
ATOM     28  C   UNL     1       2.346  -7.121  12.034  0.00  0.00    +0.417 C 
ENDBRANCH  27  28
ENDBRANCH  16  19
BRANCH  14   9
ATOM      6  N   UNL     1      -7.197  -9.791  11.899  0.00  0.00    -0.285 NA
ATOM      9  C   UNL     1      -6.114 -10.278  11.020  0.00  0.00    +0.149 C 
ATOM     10  C   UNL     1      -6.297  -9.502   9.703  0.00  0.00    +0.061 C 
ATOM     11  C   UNL     1      -7.534  -8.640   9.922  0.00  0.00    +0.130 C 
ATOM     12  C   UNL     1      -8.285  -9.369  11.019  0.00  0.00    +0.116 C 
BRANCH  11   4
ATOM      4  O   UNL     1      -8.297  -8.547   8.734  0.00  0.00    -0.390 OA
ATOM     29  H   UNL     1      -7.678  -8.583   7.985  0.00  0.00    +0.210 HD
ENDBRANCH  11   4
BRANCH   6  13
ATOM     13  C   UNL     1      -7.635 -10.781  12.875  0.00  0.00    +0.120 C 
BRANCH  13  15
ATOM     15  C   UNL     1      -8.180 -10.137  14.121  0.00  0.00    -0.033 A 
ATOM     17  C   UNL     1      -9.559 -10.052  14.316  0.00  0.00    +0.005 A 
ATOM     18  C   UNL     1      -7.307  -9.624  15.080  0.00  0.00    +0.005 A 
ATOM     20  C   UNL     1     -10.064  -9.455  15.471  0.00  0.00    +0.000 A 
ATOM     21  C   UNL     1      -7.812  -9.026  16.235  0.00  0.00    +0.000 A 
ATOM     22  C   UNL     1      -9.191  -8.942  16.430  0.00  0.00    +0.000 A 
ENDBRANCH  13  15
ENDBRANCH   6  13
ENDBRANCH  14   9
TORSDOF 6
ENDMDL
MODEL 6
REMARK VINA RESULT:       0.9      1.685      2.314
REMARK  Name = 26743608
REMARK  6 active torsions:
REMARK  status: ('A' for Active; 'I' for Inactive)
REMARK    1  A    between atoms: O_4  and  C_11
REMARK    2  A    between atoms: N_6  and  C_13
REMARK    3  A    between atoms: C_9  and  C_14
REMARK    4  A    between atoms: C_13  and  C_15
REMARK    5  A    between atoms: C_16  and  C_19
REMARK    6  A    between atoms: C_27  and  C_28
REMARK                            x       y       z     vdW  Elec       q    Type
REMARK                         _______ _______ _______ _____ _____    ______ ____
ROOT
ATOM      5  O   UNL     1      -1.103   0.075  22.148  0.00  0.00    -0.336 OA
ATOM      7  N   UNL     1       0.119   0.925  23.821  0.00  0.00    -0.190 NA
ATOM      8  N   UNL     1       0.221  -0.304  21.894  0.00  0.00    -0.056 NA
ATOM     14  C   UNL     1      -1.074   0.796  23.300  0.00  0.00    +0.245 A 
ATOM     16  C   UNL     1       0.881   0.235  22.925  0.00  0.00    +0.202 A 
ENDROOT
BRANCH  16  19
ATOM     19  C   UNL     1       2.300   0.103  23.086  0.00  0.00    +0.022 A 
ATOM     23  C   UNL     1       2.840  -1.091  23.566  0.00  0.00    +0.012 A 
ATOM     24  C   UNL     1       3.141   1.167  22.762  0.00  0.00    +0.012 A 
ATOM     25  C   UNL     1       4.220  -1.219  23.722  0.00  0.00    +0.013 A 
ATOM     26  C   UNL     1       4.521   1.039  22.917  0.00  0.00    +0.013 A 
ATOM     27  C   UNL     1       5.060  -0.154  23.398  0.00  0.00    +0.055 A 
BRANCH  27  28
ATOM      1  F   UNL     1       7.167   0.885  23.852  0.00  0.00    -0.166 F 
ATOM      2  F   UNL     1       7.149  -0.770  22.442  0.00  0.00    -0.166 F 
ATOM      3  F   UNL     1       6.897  -1.144  24.569  0.00  0.00    -0.166 F 
ATOM     28  C   UNL     1       6.536  -0.292  23.564  0.00  0.00    +0.417 C 
ENDBRANCH  27  28
ENDBRANCH  16  19
BRANCH  14   9
ATOM      6  N   UNL     1      -2.379   1.660  25.236  0.00  0.00    -0.285 NA
ATOM      9  C   UNL     1      -2.403   1.327  23.797  0.00  0.00    +0.149 C 
ATOM     10  C   UNL     1      -2.821   2.633  23.097  0.00  0.00    +0.061 C 
ATOM     11  C   UNL     1      -3.054   3.629  24.226  0.00  0.00    +0.130 C 
ATOM     12  C   UNL     1      -3.341   2.745  25.424  0.00  0.00    +0.116 C 
BRANCH  11   4
ATOM      4  O   UNL     1      -4.145   4.479  23.927  0.00  0.00    -0.390 OA
ATOM     29  H   UNL     1      -4.411   4.301  23.010  0.00  0.00    +0.210 HD
ENDBRANCH  11   4
BRANCH   6  13
ATOM     13  C   UNL     1      -2.664   0.519  26.095  0.00  0.00    +0.120 C 
BRANCH  13  15
ATOM     15  C   UNL     1      -2.982  -0.717  25.298  0.00  0.00    -0.033 A 
ATOM     17  C   UNL     1      -4.190  -0.811  24.608  0.00  0.00    +0.005 A 
ATOM     18  C   UNL     1      -2.068  -1.770  25.251  0.00  0.00    +0.005 A 
ATOM     20  C   UNL     1      -4.485  -1.958  23.870  0.00  0.00    +0.000 A 
ATOM     21  C   UNL     1      -2.362  -2.917  24.513  0.00  0.00    +0.000 A 
ATOM     22  C   UNL     1      -3.571  -3.010  23.822  0.00  0.00    +0.000 A 
ENDBRANCH  13  15
ENDBRANCH   6  13
ENDBRANCH  14   9
TORSDOF 6
ENDMDL
