MODEL 1
REMARK VINA RESULT:       0.3      0.000      0.000
REMARK  Name = 45783973
REMARK  16 active torsions:
REMARK  status: ('A' for Active; 'I' for Inactive)
REMARK    1  A    between atoms: O_2  and  C_21
REMARK    2  A    between atoms: O_2  and  C_24
REMARK    3  A    between atoms: N_3  and  C_14
REMARK    4  A    between atoms: N_3  and  C_20
REMARK    5  A    between atoms: N_6  and  C_29
REMARK    6  A    between atoms: N_6  and  C_30
REMARK    7  A    between atoms: N_6  and  C_31
REMARK    8  A    between atoms: C_7  and  C_11
REMARK    9  A    between atoms: C_8  and  C_14
REMARK   10  A    between atoms: C_10  and  C_15
REMARK   11  A    between atoms: C_11  and  C_16
REMARK   12  A    between atoms: C_11  and  C_17
REMARK   13  A    between atoms: C_12  and  C_18
REMARK   14  A    between atoms: C_15  and  C_19
REMARK   15  A    between atoms: C_20  and  C_21
REMARK   16  A    between atoms: C_22  and  C_23
REMARK                            x       y       z     vdW  Elec       q    Type
REMARK                         _______ _______ _______ _____ _____    ______ ____
ROOT
ATOM      7  C   UNL     1      -3.695   2.368  24.183  0.00  0.00    +0.000 C 
ATOM      8  C   UNL     1      -4.570   3.525  24.727  0.00  0.00    +0.029 C 
ATOM      9  C   UNL     1      -4.543   1.103  23.983  0.00  0.00    +0.012 C 
ATOM     10  C   UNL     1      -5.211   0.637  25.291  0.00  0.00    +0.024 C 
ATOM     12  C   UNL     1      -5.871   1.786  26.027  0.00  0.00    -0.073 C 
ATOM     13  C   UNL     1      -5.582   3.070  25.752  0.00  0.00    -0.023 C 
ATOM     18  C   UNL     1      -6.907   1.424  27.054  0.00  0.00    +0.039 C 
ENDROOT
BRANCH   7  11
ATOM     11  C   UNL     1      -3.008   2.745  22.867  0.00  0.00    -0.013 C 
ATOM     16  C   UNL     1      -3.978   3.488  21.953  0.00  0.00    +0.007 C 
ATOM     17  C   UNL     1      -2.461   1.500  22.176  0.00  0.00    +0.007 C 
ENDBRANCH   7  11
BRANCH   8  14
ATOM     14  C   UNL     1      -3.703   4.639  25.325  0.00  0.00    +0.088 C 
BRANCH  14   3
ATOM      3  N   UNL     1      -2.430   4.109  25.784  0.00  0.00    -0.313 NA
ATOM     32  H   UNL     1      -2.378   4.127  26.801  0.00  0.00    +0.122 HD
BRANCH   3  20
ATOM     20  C   UNL     1      -1.316   4.870  25.233  0.00  0.00    +0.109 C 
BRANCH  20  21
ATOM     21  C   UNL     1      -0.204   3.939  24.773  0.00  0.00    +0.174 C 
BRANCH  21   2
ATOM      2  O   UNL     1      -0.458   2.638  25.284  0.00  0.00    -0.382 OA
ATOM     24  C   UNL     1       0.228   2.417  26.509  0.00  0.00    +0.194 C 
ENDBRANCH  21   2
ENDBRANCH  20  21
ENDBRANCH   3  20
ENDBRANCH  14   3
ENDBRANCH   8  14
BRANCH  10  15
ATOM     15  C   UNL     1      -4.208  -0.090  26.195  0.00  0.00    +0.105 C 
BRANCH  15  19
ATOM      1  O   UNL     1      -1.976  -0.293  25.228  0.00  0.00    -0.420 OA
ATOM      4  N   UNL     1      -3.323  -2.028  24.799  0.00  0.00    -0.112 NA
ATOM      5  N   UNL     1      -2.103  -2.275  24.198  0.00  0.00    -0.107 NA
ATOM     19  C   UNL     1      -3.203  -0.862  25.388  0.00  0.00    +0.218 A 
ATOM     22  C   UNL     1      -1.349  -1.238  24.473  0.00  0.00    +0.248 A 
BRANCH  22  23
ATOM     23  C   UNL     1       0.008  -0.949  24.110  0.00  0.00    +0.039 A 
ATOM     25  C   UNL     1       1.036  -1.793  24.529  0.00  0.00    +0.015 A 
ATOM     26  C   UNL     1       0.300   0.176  23.339  0.00  0.00    +0.015 A 
ATOM     27  C   UNL     1       2.356  -1.514  24.177  0.00  0.00    +0.024 A 
ATOM     28  C   UNL     1       1.620   0.455  22.987  0.00  0.00    +0.024 A 
ATOM     29  C   UNL     1       2.648  -0.389  23.405  0.00  0.00    +0.029 A 
BRANCH  29   6
ATOM      6  N   UNL     1       3.983  -0.105  23.050  0.00  0.00    -0.336 N 
ATOM     30  C   UNL     1       5.079  -0.795  23.703  0.00  0.00    +0.129 C 
ATOM     31  C   UNL     1       4.278   0.885  22.035  0.00  0.00    +0.129 C 
ENDBRANCH  29   6
ENDBRANCH  22  23
ENDBRANCH  15  19
ENDBRANCH  10  15
TORSDOF 10
ENDMDL
MODEL 2
REMARK VINA RESULT:       2.3      1.788      2.924
REMARK  Name = 45783973
REMARK  16 active torsions:
REMARK  status: ('A' for Active; 'I' for Inactive)
REMARK    1  A    between atoms: O_2  and  C_21
REMARK    2  A    between atoms: O_2  and  C_24
REMARK    3  A    between atoms: N_3  and  C_14
REMARK    4  A    between atoms: N_3  and  C_20
REMARK    5  A    between atoms: N_6  and  C_29
REMARK    6  A    between atoms: N_6  and  C_30
REMARK    7  A    between atoms: N_6  and  C_31
REMARK    8  A    between atoms: C_7  and  C_11
REMARK    9  A    between atoms: C_8  and  C_14
REMARK   10  A    between atoms: C_10  and  C_15
REMARK   11  A    between atoms: C_11  and  C_16
REMARK   12  A    between atoms: C_11  and  C_17
REMARK   13  A    between atoms: C_12  and  C_18
REMARK   14  A    between atoms: C_15  and  C_19
REMARK   15  A    between atoms: C_20  and  C_21
REMARK   16  A    between atoms: C_22  and  C_23
REMARK                            x       y       z     vdW  Elec       q    Type
REMARK                         _______ _______ _______ _____ _____    ______ ____
ROOT
ATOM      7  C   UNL     1      -2.116   4.004  24.897  0.00  0.00    +0.000 C 
ATOM      8  C   UNL     1      -2.397   3.637  26.376  0.00  0.00    +0.029 C 
ATOM      9  C   UNL     1      -3.361   4.636  24.255  0.00  0.00    +0.012 C 
ATOM     10  C   UNL     1      -4.580   3.695  24.301  0.00  0.00    +0.024 C 
ATOM     12  C   UNL     1      -4.765   3.079  25.673  0.00  0.00    -0.073 C 
ATOM     13  C   UNL     1      -3.782   3.074  26.592  0.00  0.00    -0.023 C 
ATOM     18  C   UNL     1      -6.121   2.509  25.982  0.00  0.00    +0.039 C 
ENDROOT
BRANCH   7  11
ATOM     11  C   UNL     1      -0.924   4.957  24.765  0.00  0.00    -0.013 C 
ATOM     16  C   UNL     1      -1.385   6.406  24.888  0.00  0.00    +0.007 C 
ATOM     17  C   UNL     1      -0.204   4.730  23.439  0.00  0.00    +0.007 C 
ENDBRANCH   7  11
BRANCH   8  14
ATOM     14  C   UNL     1      -1.355   2.646  26.907  0.00  0.00    +0.088 C 
BRANCH  14   3
ATOM      3  N   UNL     1      -0.028   2.987  26.422  0.00  0.00    -0.313 NA
ATOM     32  H   UNL     1       0.121   2.611  25.486  0.00  0.00    +0.122 HD
BRANCH   3  20
ATOM     20  C   UNL     1       1.004   2.475  27.315  0.00  0.00    +0.109 C 
BRANCH  20  21
ATOM     21  C   UNL     1       0.508   2.454  28.752  0.00  0.00    +0.174 C 
BRANCH  21   2
ATOM      2  O   UNL     1       1.628   2.543  29.622  0.00  0.00    -0.382 OA
ATOM     24  C   UNL     1       2.804   2.926  28.921  0.00  0.00    +0.194 C 
ENDBRANCH  21   2
ENDBRANCH  20  21
ENDBRANCH   3  20
ENDBRANCH  14   3
ENDBRANCH   8  14
BRANCH  10  15
ATOM     15  C   UNL     1      -4.483   2.612  23.221  0.00  0.00    +0.105 C 
BRANCH  15  19
ATOM      1  O   UNL     1      -2.244   1.646  23.342  0.00  0.00    -0.420 OA
ATOM      4  N   UNL     1      -3.840   0.381  24.268  0.00  0.00    -0.112 NA
ATOM      5  N   UNL     1      -2.634  -0.281  24.408  0.00  0.00    -0.107 NA
ATOM     19  C   UNL     1      -3.565   1.500  23.642  0.00  0.00    +0.218 A 
ATOM     22  C   UNL     1      -1.732   0.493  23.853  0.00  0.00    +0.248 A 
BRANCH  22  23
ATOM     23  C   UNL     1      -0.316   0.317  23.705  0.00  0.00    +0.039 A 
ATOM     25  C   UNL     1       0.513   1.429  23.564  0.00  0.00    +0.015 A 
ATOM     26  C   UNL     1       0.230  -0.966  23.702  0.00  0.00    +0.015 A 
ATOM     27  C   UNL     1       1.890   1.258  23.420  0.00  0.00    +0.024 A 
ATOM     28  C   UNL     1       1.607  -1.137  23.558  0.00  0.00    +0.024 A 
ATOM     29  C   UNL     1       2.437  -0.025  23.417  0.00  0.00    +0.029 A 
BRANCH  29   6
ATOM      6  N   UNL     1       3.829  -0.197  23.270  0.00  0.00    -0.336 N 
ATOM     30  C   UNL     1       4.478  -1.393  23.771  0.00  0.00    +0.129 C 
ATOM     31  C   UNL     1       4.631   0.823  22.624  0.00  0.00    +0.129 C 
ENDBRANCH  29   6
ENDBRANCH  22  23
ENDBRANCH  15  19
ENDBRANCH  10  15
TORSDOF 10
ENDMDL
MODEL 3
REMARK VINA RESULT:       2.8     15.541     19.469
REMARK  Name = 45783973
REMARK  16 active torsions:
REMARK  status: ('A' for Active; 'I' for Inactive)
REMARK    1  A    between atoms: O_2  and  C_21
REMARK    2  A    between atoms: O_2  and  C_24
REMARK    3  A    between atoms: N_3  and  C_14
REMARK    4  A    between atoms: N_3  and  C_20
REMARK    5  A    between atoms: N_6  and  C_29
REMARK    6  A    between atoms: N_6  and  C_30
REMARK    7  A    between atoms: N_6  and  C_31
REMARK    8  A    between atoms: C_7  and  C_11
REMARK    9  A    between atoms: C_8  and  C_14
REMARK   10  A    between atoms: C_10  and  C_15
REMARK   11  A    between atoms: C_11  and  C_16
REMARK   12  A    between atoms: C_11  and  C_17
REMARK   13  A    between atoms: C_12  and  C_18
REMARK   14  A    between atoms: C_15  and  C_19
REMARK   15  A    between atoms: C_20  and  C_21
REMARK   16  A    between atoms: C_22  and  C_23
REMARK                            x       y       z     vdW  Elec       q    Type
REMARK                         _______ _______ _______ _____ _____    ______ ____
ROOT
ATOM      7  C   UNL     1      15.376  -4.947  31.626  0.00  0.00    +0.000 C 
ATOM      8  C   UNL     1      16.880  -5.062  31.275  0.00  0.00    +0.029 C 
ATOM      9  C   UNL     1      15.031  -5.859  32.814  0.00  0.00    +0.012 C 
ATOM     10  C   UNL     1      15.354  -7.338  32.526  0.00  0.00    +0.024 C 
ATOM     12  C   UNL     1      16.734  -7.505  31.921  0.00  0.00    -0.073 C 
ATOM     13  C   UNL     1      17.405  -6.474  31.378  0.00  0.00    -0.023 C 
ATOM     18  C   UNL     1      17.342  -8.877  31.996  0.00  0.00    +0.039 C 
ENDROOT
BRANCH   7  11
ATOM     11  C   UNL     1      14.975  -3.504  31.947  0.00  0.00    -0.013 C 
ATOM     16  C   UNL     1      16.022  -2.846  32.840  0.00  0.00    +0.007 C 
ATOM     17  C   UNL     1      13.600  -3.467  32.608  0.00  0.00    +0.007 C 
ENDBRANCH   7  11
BRANCH   8  14
ATOM     14  C   UNL     1      17.163  -4.514  29.871  0.00  0.00    +0.088 C 
BRANCH  14   3
ATOM      3  N   UNL     1      16.496  -5.318  28.862  0.00  0.00    -0.313 NA
ATOM     32  H   UNL     1      16.161  -6.194  29.262  0.00  0.00    +0.122 HD
BRANCH   3  20
ATOM     20  C   UNL     1      17.390  -5.611  27.749  0.00  0.00    +0.109 C 
BRANCH  20  21
ATOM     21  C   UNL     1      16.607  -6.126  26.551  0.00  0.00    +0.174 C 
BRANCH  21   2
ATOM      2  O   UNL     1      16.522  -7.542  26.636  0.00  0.00    -0.382 OA
ATOM     24  C   UNL     1      15.435  -7.950  27.456  0.00  0.00    +0.194 C 
ENDBRANCH  21   2
ENDBRANCH  20  21
ENDBRANCH   3  20
ENDBRANCH  14   3
ENDBRANCH   8  14
BRANCH  10  15
ATOM     15  C   UNL     1      14.282  -7.973  31.634  0.00  0.00    +0.105 C 
BRANCH  15  19
ATOM      1  O   UNL     1      11.889  -8.438  31.760  0.00  0.00    -0.420 OA
ATOM      4  N   UNL     1      12.502  -6.516  32.727  0.00  0.00    -0.112 NA
ATOM      5  N   UNL     1      11.134  -6.650  32.873  0.00  0.00    -0.107 NA
ATOM     19  C   UNL     1      12.900  -7.581  32.073  0.00  0.00    +0.218 A 
ATOM     22  C   UNL     1      10.820  -7.784  32.294  0.00  0.00    +0.248 A 
BRANCH  22  23
ATOM     23  C   UNL     1       9.550  -8.432  32.139  0.00  0.00    +0.039 A 
ATOM     25  C   UNL     1       8.388  -7.669  32.030  0.00  0.00    +0.015 A 
ATOM     26  C   UNL     1       9.477  -9.824  32.098  0.00  0.00    +0.015 A 
ATOM     27  C   UNL     1       7.152  -8.298  31.880  0.00  0.00    +0.024 A 
ATOM     28  C   UNL     1       8.241 -10.453  31.948  0.00  0.00    +0.024 A 
ATOM     29  C   UNL     1       7.079  -9.690  31.839  0.00  0.00    +0.029 A 
BRANCH  29   6
ATOM      6  N   UNL     1       5.829 -10.326  31.688  0.00  0.00    -0.336 N 
ATOM     30  C   UNL     1       4.973 -10.545  32.838  0.00  0.00    +0.129 C 
ATOM     31  C   UNL     1       5.387 -10.776  30.384  0.00  0.00    +0.129 C 
ENDBRANCH  29   6
ENDBRANCH  22  23
ENDBRANCH  15  19
ENDBRANCH  10  15
TORSDOF 10
ENDMDL
MODEL 4
REMARK VINA RESULT:       2.9      1.805      4.063
REMARK  Name = 45783973
REMARK  16 active torsions:
REMARK  status: ('A' for Active; 'I' for Inactive)
REMARK    1  A    between atoms: O_2  and  C_21
REMARK    2  A    between atoms: O_2  and  C_24
REMARK    3  A    between atoms: N_3  and  C_14
REMARK    4  A    between atoms: N_3  and  C_20
REMARK    5  A    between atoms: N_6  and  C_29
REMARK    6  A    between atoms: N_6  and  C_30
REMARK    7  A    between atoms: N_6  and  C_31
REMARK    8  A    between atoms: C_7  and  C_11
REMARK    9  A    between atoms: C_8  and  C_14
REMARK   10  A    between atoms: C_10  and  C_15
REMARK   11  A    between atoms: C_11  and  C_16
REMARK   12  A    between atoms: C_11  and  C_17
REMARK   13  A    between atoms: C_12  and  C_18
REMARK   14  A    between atoms: C_15  and  C_19
REMARK   15  A    between atoms: C_20  and  C_21
REMARK   16  A    between atoms: C_22  and  C_23
REMARK                            x       y       z     vdW  Elec       q    Type
REMARK                         _______ _______ _______ _____ _____    ______ ____
ROOT
ATOM      7  C   UNL     1      -3.327   0.972  25.295  0.00  0.00    +0.000 C 
ATOM      8  C   UNL     1      -4.830   0.630  25.442  0.00  0.00    +0.029 C 
ATOM      9  C   UNL     1      -2.981   2.233  26.101  0.00  0.00    +0.012 C 
ATOM     10  C   UNL     1      -3.807   3.455  25.654  0.00  0.00    +0.024 C 
ATOM     12  C   UNL     1      -5.279   3.120  25.516  0.00  0.00    -0.073 C 
ATOM     13  C   UNL     1      -5.718   1.851  25.436  0.00  0.00    -0.023 C 
ATOM     18  C   UNL     1      -6.238   4.277  25.518  0.00  0.00    +0.039 C 
ENDROOT
BRANCH   7  11
ATOM     11  C   UNL     1      -2.433  -0.189  25.740  0.00  0.00    -0.013 C 
ATOM     16  C   UNL     1      -3.103  -0.978  26.861  0.00  0.00    +0.007 C 
ATOM     17  C   UNL     1      -1.068   0.329  26.185  0.00  0.00    +0.007 C 
ENDBRANCH   7  11
BRANCH   8  14
ATOM     14  C   UNL     1      -5.287  -0.339  24.346  0.00  0.00    +0.088 C 
BRANCH  14   3
ATOM      3  N   UNL     1      -4.147  -1.019  23.754  0.00  0.00    -0.313 NA
ATOM     32  H   UNL     1      -3.972  -0.674  22.811  0.00  0.00    +0.122 HD
BRANCH   3  20
ATOM     20  C   UNL     1      -4.363  -2.459  23.705  0.00  0.00    +0.109 C 
BRANCH  20  21
ATOM     21  C   UNL     1      -3.218  -3.197  24.381  0.00  0.00    +0.174 C 
BRANCH  21   2
ATOM      2  O   UNL     1      -1.991  -2.731  23.838  0.00  0.00    -0.382 OA
ATOM     24  C   UNL     1      -0.927  -2.854  24.773  0.00  0.00    +0.194 C 
ENDBRANCH  21   2
ENDBRANCH  20  21
ENDBRANCH   3  20
ENDBRANCH  14   3
ENDBRANCH   8  14
BRANCH  10  15
ATOM     15  C   UNL     1      -3.255   4.047  24.352  0.00  0.00    +0.105 C 
BRANCH  15  19
ATOM      1  O   UNL     1      -1.281   2.686  23.893  0.00  0.00    -0.420 OA
ATOM      4  N   UNL     1      -2.986   2.333  22.487  0.00  0.00    -0.112 NA
ATOM      5  N   UNL     1      -1.946   1.503  22.114  0.00  0.00    -0.107 NA
ATOM     19  C   UNL     1      -2.554   3.004  23.529  0.00  0.00    +0.218 A 
ATOM     22  C   UNL     1      -0.973   1.743  22.961  0.00  0.00    +0.248 A 
BRANCH  22  23
ATOM     23  C   UNL     1       0.341   1.175  23.056  0.00  0.00    +0.039 A 
ATOM     25  C   UNL     1       0.562  -0.143  22.658  0.00  0.00    +0.015 A 
ATOM     26  C   UNL     1       1.398   1.942  23.547  0.00  0.00    +0.015 A 
ATOM     27  C   UNL     1       1.839  -0.695  22.750  0.00  0.00    +0.024 A 
ATOM     28  C   UNL     1       2.675   1.389  23.639  0.00  0.00    +0.024 A 
ATOM     29  C   UNL     1       2.896   0.071  23.241  0.00  0.00    +0.029 A 
BRANCH  29   6
ATOM      6  N   UNL     1       4.187  -0.489  23.335  0.00  0.00    -0.336 N 
ATOM     30  C   UNL     1       4.366  -1.847  23.809  0.00  0.00    +0.129 C 
ATOM     31  C   UNL     1       5.353   0.290  22.967  0.00  0.00    +0.129 C 
ENDBRANCH  29   6
ENDBRANCH  22  23
ENDBRANCH  15  19
ENDBRANCH  10  15
TORSDOF 10
ENDMDL
MODEL 5
REMARK VINA RESULT:       2.9      1.693      3.374
REMARK  Name = 45783973
REMARK  16 active torsions:
REMARK  status: ('A' for Active; 'I' for Inactive)
REMARK    1  A    between atoms: O_2  and  C_21
REMARK    2  A    between atoms: O_2  and  C_24
REMARK    3  A    between atoms: N_3  and  C_14
REMARK    4  A    between atoms: N_3  and  C_20
REMARK    5  A    between atoms: N_6  and  C_29
REMARK    6  A    between atoms: N_6  and  C_30
REMARK    7  A    between atoms: N_6  and  C_31
REMARK    8  A    between atoms: C_7  and  C_11
REMARK    9  A    between atoms: C_8  and  C_14
REMARK   10  A    between atoms: C_10  and  C_15
REMARK   11  A    between atoms: C_11  and  C_16
REMARK   12  A    between atoms: C_11  and  C_17
REMARK   13  A    between atoms: C_12  and  C_18
REMARK   14  A    between atoms: C_15  and  C_19
REMARK   15  A    between atoms: C_20  and  C_21
REMARK   16  A    between atoms: C_22  and  C_23
REMARK                            x       y       z     vdW  Elec       q    Type
REMARK                         _______ _______ _______ _____ _____    ______ ____
ROOT
ATOM      7  C   UNL     1      -2.017   4.037  24.794  0.00  0.00    +0.000 C 
ATOM      8  C   UNL     1      -2.328   3.306  26.124  0.00  0.00    +0.029 C 
ATOM      9  C   UNL     1      -3.267   4.762  24.275  0.00  0.00    +0.012 C 
ATOM     10  C   UNL     1      -4.444   3.797  24.037  0.00  0.00    +0.024 C 
ATOM     12  C   UNL     1      -4.644   2.854  25.206  0.00  0.00    -0.073 C 
ATOM     13  C   UNL     1      -3.692   2.657  26.136  0.00  0.00    -0.023 C 
ATOM     18  C   UNL     1      -5.982   2.177  25.308  0.00  0.00    +0.039 C 
ENDROOT
BRANCH   7  11
ATOM     11  C   UNL     1      -0.866   5.036  24.951  0.00  0.00    -0.013 C 
ATOM     16  C   UNL     1      -1.401   6.463  24.998  0.00  0.00    +0.007 C 
ATOM     17  C   UNL     1       0.139   4.873  23.815  0.00  0.00    +0.007 C 
ENDBRANCH   7  11
BRANCH   8  14
ATOM     14  C   UNL     1      -1.260   2.253  26.439  0.00  0.00    +0.088 C 
BRANCH  14   3
ATOM      3  N   UNL     1      -1.568   0.995  25.779  0.00  0.00    -0.313 NA
ATOM     32  H   UNL     1      -2.573   0.894  25.649  0.00  0.00    +0.122 HD
BRANCH   3  20
ATOM     20  C   UNL     1      -1.067  -0.137  26.549  0.00  0.00    +0.109 C 
BRANCH  20  21
ATOM     21  C   UNL     1      -1.543  -1.449  25.945  0.00  0.00    +0.174 C 
BRANCH  21   2
ATOM      2  O   UNL     1      -2.962  -1.493  26.009  0.00  0.00    -0.382 OA
ATOM     24  C   UNL     1      -3.487  -2.548  25.214  0.00  0.00    +0.194 C 
ENDBRANCH  21   2
ENDBRANCH  20  21
ENDBRANCH   3  20
ENDBRANCH  14   3
ENDBRANCH   8  14
BRANCH  10  15
ATOM     15  C   UNL     1      -4.263   3.018  22.729  0.00  0.00    +0.105 C 
BRANCH  15  19
ATOM      1  O   UNL     1      -2.040   2.018  22.858  0.00  0.00    -0.420 OA
ATOM      4  N   UNL     1      -3.716   0.567  23.155  0.00  0.00    -0.112 NA
ATOM      5  N   UNL     1      -2.526  -0.129  23.254  0.00  0.00    -0.107 NA
ATOM     19  C   UNL     1      -3.384   1.815  22.924  0.00  0.00    +0.218 A 
ATOM     22  C   UNL     1      -1.575   0.757  23.073  0.00  0.00    +0.248 A 
BRANCH  22  23
ATOM     23  C   UNL     1      -0.149   0.605  23.069  0.00  0.00    +0.039 A 
ATOM     25  C   UNL     1       0.648   1.493  23.791  0.00  0.00    +0.015 A 
ATOM     26  C   UNL     1       0.441  -0.429  22.343  0.00  0.00    +0.015 A 
ATOM     27  C   UNL     1       2.035   1.347  23.787  0.00  0.00    +0.024 A 
ATOM     28  C   UNL     1       1.828  -0.576  22.340  0.00  0.00    +0.024 A 
ATOM     29  C   UNL     1       2.625   0.312  23.061  0.00  0.00    +0.029 A 
BRANCH  29   6
ATOM      6  N   UNL     1       4.028   0.165  23.057  0.00  0.00    -0.336 N 
ATOM     30  C   UNL     1       4.656  -0.913  23.794  0.00  0.00    +0.129 C 
ATOM     31  C   UNL     1       4.861   1.095  22.321  0.00  0.00    +0.129 C 
ENDBRANCH  29   6
ENDBRANCH  22  23
ENDBRANCH  15  19
ENDBRANCH  10  15
TORSDOF 10
ENDMDL
MODEL 6
REMARK VINA RESULT:       3.5      2.340      5.357
REMARK  Name = 45783973
REMARK  16 active torsions:
REMARK  status: ('A' for Active; 'I' for Inactive)
REMARK    1  A    between atoms: O_2  and  C_21
REMARK    2  A    between atoms: O_2  and  C_24
REMARK    3  A    between atoms: N_3  and  C_14
REMARK    4  A    between atoms: N_3  and  C_20
REMARK    5  A    between atoms: N_6  and  C_29
REMARK    6  A    between atoms: N_6  and  C_30
REMARK    7  A    between atoms: N_6  and  C_31
REMARK    8  A    between atoms: C_7  and  C_11
REMARK    9  A    between atoms: C_8  and  C_14
REMARK   10  A    between atoms: C_10  and  C_15
REMARK   11  A    between atoms: C_11  and  C_16
REMARK   12  A    between atoms: C_11  and  C_17
REMARK   13  A    between atoms: C_12  and  C_18
REMARK   14  A    between atoms: C_15  and  C_19
REMARK   15  A    between atoms: C_20  and  C_21
REMARK   16  A    between atoms: C_22  and  C_23
REMARK                            x       y       z     vdW  Elec       q    Type
REMARK                         _______ _______ _______ _____ _____    ______ ____
ROOT
ATOM      7  C   UNL     1      -2.931  -0.580  24.656  0.00  0.00    +0.000 C 
ATOM      8  C   UNL     1      -1.719  -0.048  23.853  0.00  0.00    +0.029 C 
ATOM      9  C   UNL     1      -4.223  -0.436  23.838  0.00  0.00    +0.012 C 
ATOM     10  C   UNL     1      -4.502   1.028  23.444  0.00  0.00    +0.024 C 
ATOM     12  C   UNL     1      -3.267   1.706  22.887  0.00  0.00    -0.073 C 
ATOM     13  C   UNL     1      -2.033   1.204  23.068  0.00  0.00    -0.023 C 
ATOM     18  C   UNL     1      -3.488   2.952  22.075  0.00  0.00    +0.039 C 
ENDROOT
BRANCH   7  11
ATOM     11  C   UNL     1      -2.741  -2.042  25.071  0.00  0.00    -0.013 C 
ATOM     16  C   UNL     1      -1.344  -2.525  24.696  0.00  0.00    +0.007 C 
ATOM     17  C   UNL     1      -3.808  -2.922  24.426  0.00  0.00    +0.007 C 
ENDBRANCH   7  11
BRANCH   8  14
ATOM     14  C   UNL     1      -0.519   0.213  24.771  0.00  0.00    +0.088 C 
BRANCH  14   3
ATOM      3  N   UNL     1       0.619   0.692  24.005  0.00  0.00    -0.313 NA
ATOM     32  H   UNL     1       0.366   1.515  23.461  0.00  0.00    +0.122 HD
BRANCH   3  20
ATOM     20  C   UNL     1       1.120  -0.341  23.107  0.00  0.00    +0.109 C 
BRANCH  20  21
ATOM     21  C   UNL     1       2.307   0.173  22.306  0.00  0.00    +0.174 C 
BRANCH  21   2
ATOM      2  O   UNL     1       3.118   0.973  23.155  0.00  0.00    -0.382 OA
ATOM     24  C   UNL     1       4.488   0.606  23.063  0.00  0.00    +0.194 C 
ENDBRANCH  21   2
ENDBRANCH  20  21
ENDBRANCH   3  20
ENDBRANCH  14   3
ENDBRANCH   8  14
BRANCH  10  15
ATOM     15  C   UNL     1      -5.077   1.817  24.626  0.00  0.00    +0.105 C 
BRANCH  15  19
ATOM      1  O   UNL     1      -3.022   2.221  25.880  0.00  0.00    -0.420 OA
ATOM      4  N   UNL     1      -4.018   4.078  25.131  0.00  0.00    -0.112 NA
ATOM      5  N   UNL     1      -2.877   4.452  25.816  0.00  0.00    -0.107 NA
ATOM     19  C   UNL     1      -4.062   2.769  25.194  0.00  0.00    +0.218 A 
ATOM     22  C   UNL     1      -2.329   3.337  26.236  0.00  0.00    +0.248 A 
BRANCH  22  23
ATOM     23  C   UNL     1      -1.133   3.115  26.997  0.00  0.00    +0.039 A 
ATOM     25  C   UNL     1       0.075   2.873  26.342  0.00  0.00    +0.015 A 
ATOM     26  C   UNL     1      -1.178   3.142  28.390  0.00  0.00    +0.015 A 
ATOM     27  C   UNL     1       1.238   2.658  27.081  0.00  0.00    +0.024 A 
ATOM     28  C   UNL     1      -0.015   2.926  29.129  0.00  0.00    +0.024 A 
ATOM     29  C   UNL     1       1.193   2.684  28.475  0.00  0.00    +0.029 A 
BRANCH  29   6
ATOM      6  N   UNL     1       2.369   2.465  29.222  0.00  0.00    -0.336 N 
ATOM     30  C   UNL     1       2.321   1.723  30.467  0.00  0.00    +0.129 C 
ATOM     31  C   UNL     1       3.640   2.985  28.760  0.00  0.00    +0.129 C 
ENDBRANCH  29   6
ENDBRANCH  22  23
ENDBRANCH  15  19
ENDBRANCH  10  15
TORSDOF 10
ENDMDL
MODEL 7
REMARK VINA RESULT:       4.1      1.593      3.691
REMARK  Name = 45783973
REMARK  16 active torsions:
REMARK  status: ('A' for Active; 'I' for Inactive)
REMARK    1  A    between atoms: O_2  and  C_21
REMARK    2  A    between atoms: O_2  and  C_24
REMARK    3  A    between atoms: N_3  and  C_14
REMARK    4  A    between atoms: N_3  and  C_20
REMARK    5  A    between atoms: N_6  and  C_29
REMARK    6  A    between atoms: N_6  and  C_30
REMARK    7  A    between atoms: N_6  and  C_31
REMARK    8  A    between atoms: C_7  and  C_11
REMARK    9  A    between atoms: C_8  and  C_14
REMARK   10  A    between atoms: C_10  and  C_15
REMARK   11  A    between atoms: C_11  and  C_16
REMARK   12  A    between atoms: C_11  and  C_17
REMARK   13  A    between atoms: C_12  and  C_18
REMARK   14  A    between atoms: C_15  and  C_19
REMARK   15  A    between atoms: C_20  and  C_21
REMARK   16  A    between atoms: C_22  and  C_23
REMARK                            x       y       z     vdW  Elec       q    Type
REMARK                         _______ _______ _______ _____ _____    ______ ____
ROOT
ATOM      7  C   UNL     1      -1.987   2.887  25.046  0.00  0.00    +0.000 C 
ATOM      8  C   UNL     1      -3.081   3.983  25.016  0.00  0.00    +0.029 C 
ATOM      9  C   UNL     1      -1.328   2.748  23.665  0.00  0.00    +0.012 C 
ATOM     10  C   UNL     1      -2.347   2.391  22.566  0.00  0.00    +0.024 C 
ATOM     12  C   UNL     1      -3.585   3.262  22.642  0.00  0.00    -0.073 C 
ATOM     13  C   UNL     1      -3.890   3.976  23.740  0.00  0.00    -0.023 C 
ATOM     18  C   UNL     1      -4.441   3.329  21.408  0.00  0.00    +0.039 C 
ENDROOT
BRANCH   7  11
ATOM     11  C   UNL     1      -0.919   3.179  26.104  0.00  0.00    -0.013 C 
ATOM     16  C   UNL     1      -0.071   4.377  25.688  0.00  0.00    +0.007 C 
ATOM     17  C   UNL     1      -0.044   1.950  26.330  0.00  0.00    +0.007 C 
ENDBRANCH   7  11
BRANCH   8  14
ATOM     14  C   UNL     1      -4.024   3.857  26.218  0.00  0.00    +0.088 C 
BRANCH  14   3
ATOM      3  N   UNL     1      -5.399   3.695  25.778  0.00  0.00    -0.313 NA
ATOM     32  H   UNL     1      -5.983   4.449  26.138  0.00  0.00    +0.122 HD
BRANCH   3  20
ATOM     20  C   UNL     1      -5.943   2.416  26.216  0.00  0.00    +0.109 C 
BRANCH  20  21
ATOM     21  C   UNL     1      -6.361   1.572  25.021  0.00  0.00    +0.174 C 
BRANCH  21   2
ATOM      2  O   UNL     1      -5.219   0.889  24.523  0.00  0.00    -0.382 OA
ATOM     24  C   UNL     1      -4.524   0.212  25.561  0.00  0.00    +0.194 C 
ENDBRANCH  21   2
ENDBRANCH  20  21
ENDBRANCH   3  20
ENDBRANCH  14   3
ENDBRANCH   8  14
BRANCH  10  15
ATOM     15  C   UNL     1      -2.718   0.904  22.620  0.00  0.00    +0.105 C 
BRANCH  15  19
ATOM      1  O   UNL     1      -0.338   0.467  22.934  0.00  0.00    -0.420 OA
ATOM      4  N   UNL     1      -1.681  -0.969  23.999  0.00  0.00    -0.112 NA
ATOM      5  N   UNL     1      -0.374  -1.331  24.264  0.00  0.00    -0.107 NA
ATOM     19  C   UNL     1      -1.612   0.085  23.221  0.00  0.00    +0.218 A 
ATOM     22  C   UNL     1       0.375  -0.467  23.622  0.00  0.00    +0.248 A 
BRANCH  22  23
ATOM     23  C   UNL     1       1.803  -0.354  23.534  0.00  0.00    +0.039 A 
ATOM     25  C   UNL     1       2.382   0.826  23.069  0.00  0.00    +0.015 A 
ATOM     26  C   UNL     1       2.611  -1.425  23.915  0.00  0.00    +0.015 A 
ATOM     27  C   UNL     1       3.769   0.936  22.984  0.00  0.00    +0.024 A 
ATOM     28  C   UNL     1       3.999  -1.315  23.830  0.00  0.00    +0.024 A 
ATOM     29  C   UNL     1       4.578  -0.134  23.364  0.00  0.00    +0.029 A 
BRANCH  29   6
ATOM      6  N   UNL     1       5.981  -0.023  23.277  0.00  0.00    -0.336 N 
ATOM     30  C   UNL     1       6.684   1.006  24.018  0.00  0.00    +0.129 C 
ATOM     31  C   UNL     1       6.739  -0.930  22.438  0.00  0.00    +0.129 C 
ENDBRANCH  29   6
ENDBRANCH  22  23
ENDBRANCH  15  19
ENDBRANCH  10  15
TORSDOF 10
ENDMDL
