MODEL 1
REMARK VINA RESULT:      -2.9      0.000      0.000
REMARK  Name = 26763045
REMARK  11 active torsions:
REMARK  status: ('A' for Active; 'I' for Inactive)
REMARK    1  A    between atoms: N_6  and  C_11
REMARK    2  A    between atoms: N_7  and  C_21
REMARK    3  A    between atoms: N_7  and  C_22
REMARK    4  A    between atoms: N_8  and  C_20
REMARK    5  A    between atoms: C_10  and  C_15
REMARK    6  A    between atoms: C_15  and  C_17
REMARK    7  A    between atoms: C_17  and  C_19
REMARK    8  A    between atoms: C_20  and  C_23
REMARK    9  A    between atoms: C_20  and  C_24
REMARK   10  A    between atoms: C_21  and  C_25
REMARK   11  A    between atoms: C_22  and  C_26
REMARK                            x       y       z     vdW  Elec       q    Type
REMARK                         _______ _______ _______ _____ _____    ______ ____
ROOT
ATOM      1  O   UNL     1      -5.618   3.655  26.065  0.00  0.00    -0.274 OA
ATOM      4  N   UNL     1      -2.506   3.165  24.457  0.00  0.00    -0.285 NA
ATOM      5  N   UNL     1      -3.519   4.317  26.721  0.00  0.00    -0.313 N 
ATOM      9  C   UNL     1      -3.884   3.662  24.401  0.00  0.00    +0.145 C 
ATOM     10  C   UNL     1      -1.634   4.172  25.065  0.00  0.00    +0.075 C 
ATOM     11  C   UNL     1      -3.480   2.085  22.625  0.00  0.00    +0.090 C 
ATOM     12  C   UNL     1      -4.580   2.606  23.555  0.00  0.00    +0.052 C 
ATOM     13  C   UNL     1      -2.197   2.791  23.078  0.00  0.00    +0.107 C 
ATOM     14  C   UNL     1      -2.077   4.318  26.527  0.00  0.00    +0.123 C 
ATOM     16  C   UNL     1      -4.429   3.833  25.800  0.00  0.00    +0.230 C 
ATOM     27  H   UNL     1      -3.863   4.517  27.655  0.00  0.00    +0.149 HD
ENDROOT
BRANCH  11   6
ATOM      2  O   UNL     1      -4.386   0.390  24.776  0.00  0.00    -0.253 OA
ATOM      6  N   UNL     1      -3.360   0.651  22.709  0.00  0.00    -0.295 N 
ATOM      8  N   UNL     1      -3.583  -1.452  23.617  0.00  0.00    -0.297 N 
ATOM     18  C   UNL     1      -3.827  -0.092  23.792  0.00  0.00    +0.300 C 
ATOM     28  H   UNL     1      -2.845   0.165  21.982  0.00  0.00    +0.151 HD
ATOM     29  H   UNL     1      -3.186  -1.761  22.735  0.00  0.00    +0.150 HD
BRANCH   8  20
ATOM     20  C   UNL     1      -3.966  -2.448  24.590  0.00  0.00    +0.068 C 
ATOM     23  C   UNL     1      -3.367  -2.117  25.951  0.00  0.00    +0.027 C 
ATOM     24  C   UNL     1      -3.547  -3.837  24.125  0.00  0.00    +0.027 C 
ENDBRANCH   8  20
ENDBRANCH  11   6
BRANCH  10  15
ATOM     15  C   UNL     1      -0.153   3.790  25.015  0.00  0.00    +0.029 C 
BRANCH  15  17
ATOM     17  C   UNL     1       0.152   2.641  25.971  0.00  0.00    +0.097 C 
BRANCH  17  19
ATOM      3  O   UNL     1      -1.368   0.788  26.013  0.00  0.00    -0.276 OA
ATOM      7  N   UNL     1       0.273   0.745  24.374  0.00  0.00    -0.302 N 
ATOM     19  C   UNL     1      -0.393   1.311  25.467  0.00  0.00    +0.216 C 
BRANCH   7  21
ATOM     21  C   UNL     1       1.429   1.326  23.696  0.00  0.00    +0.104 C 
ATOM     25  C   UNL     1       2.118   0.311  22.807  0.00  0.00    +0.024 C 
ENDBRANCH   7  21
BRANCH   7  22
ATOM     22  C   UNL     1      -0.182  -0.532  23.840  0.00  0.00    +0.104 C 
ATOM     26  C   UNL     1      -0.140  -1.622  24.891  0.00  0.00    +0.024 C 
ENDBRANCH   7  22
ENDBRANCH  17  19
ENDBRANCH  15  17
ENDBRANCH  10  15
TORSDOF 7
ENDMDL
MODEL 2
REMARK VINA RESULT:      -2.9      2.319      6.258
REMARK  Name = 26763045
REMARK  11 active torsions:
REMARK  status: ('A' for Active; 'I' for Inactive)
REMARK    1  A    between atoms: N_6  and  C_11
REMARK    2  A    between atoms: N_7  and  C_21
REMARK    3  A    between atoms: N_7  and  C_22
REMARK    4  A    between atoms: N_8  and  C_20
REMARK    5  A    between atoms: C_10  and  C_15
REMARK    6  A    between atoms: C_15  and  C_17
REMARK    7  A    between atoms: C_17  and  C_19
REMARK    8  A    between atoms: C_20  and  C_23
REMARK    9  A    between atoms: C_20  and  C_24
REMARK   10  A    between atoms: C_21  and  C_25
REMARK   11  A    between atoms: C_22  and  C_26
REMARK                            x       y       z     vdW  Elec       q    Type
REMARK                         _______ _______ _______ _____ _____    ______ ____
ROOT
ATOM      1  O   UNL     1      -1.309  -3.191  23.896  0.00  0.00    -0.274 OA
ATOM      4  N   UNL     1      -2.779  -0.160  24.975  0.00  0.00    -0.285 NA
ATOM      5  N   UNL     1      -3.527  -2.669  24.185  0.00  0.00    -0.313 N 
ATOM      9  C   UNL     1      -1.893  -0.864  24.043  0.00  0.00    +0.145 C 
ATOM     10  C   UNL     1      -4.167  -0.261  24.523  0.00  0.00    +0.075 C 
ATOM     11  C   UNL     1      -0.715   0.930  25.137  0.00  0.00    +0.090 C 
ATOM     12  C   UNL     1      -0.511  -0.465  24.537  0.00  0.00    +0.052 C 
ATOM     13  C   UNL     1      -2.223   1.190  25.056  0.00  0.00    +0.107 C 
ATOM     14  C   UNL     1      -4.559  -1.742  24.625  0.00  0.00    +0.123 C 
ATOM     16  C   UNL     1      -2.187  -2.346  24.071  0.00  0.00    +0.230 C 
ATOM     27  H   UNL     1      -3.776  -3.652  24.133  0.00  0.00    +0.149 HD
ENDROOT
BRANCH  11   6
ATOM      2  O   UNL     1       0.599   3.156  26.419  0.00  0.00    -0.253 OA
ATOM      6  N   UNL     1      -0.234   0.990  26.495  0.00  0.00    -0.295 N 
ATOM      8  N   UNL     1       0.758   1.899  28.362  0.00  0.00    -0.297 N 
ATOM     18  C   UNL     1       0.394   2.111  27.035  0.00  0.00    +0.300 C 
ATOM     28  H   UNL     1      -0.287   0.150  27.064  0.00  0.00    +0.151 HD
ATOM     29  H   UNL     1       0.475   1.030  28.806  0.00  0.00    +0.150 HD
BRANCH   8  20
ATOM     20  C   UNL     1       1.425   2.899  29.161  0.00  0.00    +0.068 C 
ATOM     23  C   UNL     1       2.919   2.905  28.865  0.00  0.00    +0.027 C 
ATOM     24  C   UNL     1       1.157   2.666  30.643  0.00  0.00    +0.027 C 
ENDBRANCH   8  20
ENDBRANCH  11   6
BRANCH  10  15
ATOM     15  C   UNL     1      -5.133   0.581  25.359  0.00  0.00    +0.029 C 
BRANCH  15  17
ATOM     17  C   UNL     1      -5.562   1.836  24.606  0.00  0.00    +0.097 C 
BRANCH  17  19
ATOM      3  O   UNL     1      -4.866   3.444  26.241  0.00  0.00    -0.276 OA
ATOM      7  N   UNL     1      -4.054   3.738  24.089  0.00  0.00    -0.302 N 
ATOM     19  C   UNL     1      -4.803   3.074  25.066  0.00  0.00    +0.216 C 
BRANCH   7  21
ATOM     21  C   UNL     1      -3.949   3.337  22.688  0.00  0.00    +0.104 C 
ATOM     25  C   UNL     1      -2.753   2.434  22.458  0.00  0.00    +0.024 C 
ENDBRANCH   7  21
BRANCH   7  22
ATOM     22  C   UNL     1      -3.307   4.936  24.448  0.00  0.00    +0.104 C 
ATOM     26  C   UNL     1      -2.080   4.600  25.272  0.00  0.00    +0.024 C 
ENDBRANCH   7  22
ENDBRANCH  17  19
ENDBRANCH  15  17
ENDBRANCH  10  15
TORSDOF 7
ENDMDL
MODEL 3
REMARK VINA RESULT:      -2.7      2.588      6.269
REMARK  Name = 26763045
REMARK  11 active torsions:
REMARK  status: ('A' for Active; 'I' for Inactive)
REMARK    1  A    between atoms: N_6  and  C_11
REMARK    2  A    between atoms: N_7  and  C_21
REMARK    3  A    between atoms: N_7  and  C_22
REMARK    4  A    between atoms: N_8  and  C_20
REMARK    5  A    between atoms: C_10  and  C_15
REMARK    6  A    between atoms: C_15  and  C_17
REMARK    7  A    between atoms: C_17  and  C_19
REMARK    8  A    between atoms: C_20  and  C_23
REMARK    9  A    between atoms: C_20  and  C_24
REMARK   10  A    between atoms: C_21  and  C_25
REMARK   11  A    between atoms: C_22  and  C_26
REMARK                            x       y       z     vdW  Elec       q    Type
REMARK                         _______ _______ _______ _____ _____    ______ ____
ROOT
ATOM      1  O   UNL     1      -2.176  -2.776  24.417  0.00  0.00    -0.274 OA
ATOM      4  N   UNL     1      -0.541   0.359  24.510  0.00  0.00    -0.285 NA
ATOM      5  N   UNL     1      -2.550  -0.978  25.795  0.00  0.00    -0.313 N 
ATOM      9  C   UNL     1      -1.275  -0.653  23.743  0.00  0.00    +0.145 C 
ATOM     10  C   UNL     1      -1.479   1.224  25.227  0.00  0.00    +0.075 C 
ATOM     11  C   UNL     1       0.839  -0.165  22.695  0.00  0.00    +0.090 C 
ATOM     12  C   UNL     1      -0.177  -1.292  22.907  0.00  0.00    +0.052 C 
ATOM     13  C   UNL     1       0.316   1.014  23.522  0.00  0.00    +0.107 C 
ATOM     14  C   UNL     1      -2.180   0.346  26.273  0.00  0.00    +0.123 C 
ATOM     16  C   UNL     1      -2.000  -1.587  24.683  0.00  0.00    +0.230 C 
ATOM     27  H   UNL     1      -3.110  -1.556  26.415  0.00  0.00    +0.149 HD
ENDROOT
BRANCH  11   6
ATOM      2  O   UNL     1       3.279   1.353  22.434  0.00  0.00    -0.253 OA
ATOM      6  N   UNL     1       2.159  -0.566  23.110  0.00  0.00    -0.295 N 
ATOM      8  N   UNL     1       4.432  -0.396  23.431  0.00  0.00    -0.297 N 
ATOM     18  C   UNL     1       3.289   0.233  22.944  0.00  0.00    +0.300 C 
ATOM     28  H   UNL     1       2.287  -1.506  23.474  0.00  0.00    +0.151 HD
ATOM     29  H   UNL     1       4.326  -1.288  23.906  0.00  0.00    +0.150 HD
BRANCH   8  20
ATOM     20  C   UNL     1       5.741   0.211  23.384  0.00  0.00    +0.068 C 
ATOM     23  C   UNL     1       6.803  -0.840  23.090  0.00  0.00    +0.027 C 
ATOM     24  C   UNL     1       6.036   0.945  24.687  0.00  0.00    +0.027 C 
ENDBRANCH   8  20
ENDBRANCH  11   6
BRANCH  10  15
ATOM     15  C   UNL     1      -0.795   2.402  25.924  0.00  0.00    +0.029 C 
BRANCH  15  17
ATOM     17  C   UNL     1      -1.437   3.727  25.526  0.00  0.00    +0.097 C 
BRANCH  17  19
ATOM      3  O   UNL     1      -3.157   3.962  27.178  0.00  0.00    -0.276 OA
ATOM      7  N   UNL     1      -3.857   3.752  24.977  0.00  0.00    -0.302 N 
ATOM     19  C   UNL     1      -2.887   3.825  25.982  0.00  0.00    +0.216 C 
BRANCH   7  21
ATOM     21  C   UNL     1      -3.585   3.592  23.551  0.00  0.00    +0.104 C 
ATOM     25  C   UNL     1      -3.572   2.131  23.150  0.00  0.00    +0.024 C 
ENDBRANCH   7  21
BRANCH   7  22
ATOM     22  C   UNL     1      -5.267   3.829  25.334  0.00  0.00    +0.104 C 
ATOM     26  C   UNL     1      -5.822   2.469  25.706  0.00  0.00    +0.024 C 
ENDBRANCH   7  22
ENDBRANCH  17  19
ENDBRANCH  15  17
ENDBRANCH  10  15
TORSDOF 7
ENDMDL
MODEL 4
REMARK VINA RESULT:      -2.4      1.803      4.728
REMARK  Name = 26763045
REMARK  11 active torsions:
REMARK  status: ('A' for Active; 'I' for Inactive)
REMARK    1  A    between atoms: N_6  and  C_11
REMARK    2  A    between atoms: N_7  and  C_21
REMARK    3  A    between atoms: N_7  and  C_22
REMARK    4  A    between atoms: N_8  and  C_20
REMARK    5  A    between atoms: C_10  and  C_15
REMARK    6  A    between atoms: C_15  and  C_17
REMARK    7  A    between atoms: C_17  and  C_19
REMARK    8  A    between atoms: C_20  and  C_23
REMARK    9  A    between atoms: C_20  and  C_24
REMARK   10  A    between atoms: C_21  and  C_25
REMARK   11  A    between atoms: C_22  and  C_26
REMARK                            x       y       z     vdW  Elec       q    Type
REMARK                         _______ _______ _______ _____ _____    ______ ____
ROOT
ATOM      1  O   UNL     1      -1.713   5.818  23.996  0.00  0.00    -0.274 OA
ATOM      4  N   UNL     1      -2.519   2.673  25.400  0.00  0.00    -0.285 NA
ATOM      5  N   UNL     1      -3.669   4.621  23.864  0.00  0.00    -0.313 N 
ATOM      9  C   UNL     1      -2.042   4.047  25.587  0.00  0.00    +0.145 C 
ATOM     10  C   UNL     1      -3.982   2.646  25.387  0.00  0.00    +0.075 C 
ATOM     11  C   UNL     1      -0.441   2.470  26.456  0.00  0.00    +0.090 C 
ATOM     12  C   UNL     1      -0.549   3.851  25.801  0.00  0.00    +0.052 C 
ATOM     13  C   UNL     1      -1.868   1.913  26.467  0.00  0.00    +0.107 C 
ATOM     14  C   UNL     1      -4.428   3.409  24.132  0.00  0.00    +0.123 C 
ATOM     16  C   UNL     1      -2.421   4.891  24.393  0.00  0.00    +0.230 C 
ATOM     27  H   UNL     1      -3.993   5.215  23.107  0.00  0.00    +0.149 HD
ENDROOT
BRANCH  11   6
ATOM      2  O   UNL     1       0.337   2.724  23.689  0.00  0.00    -0.253 OA
ATOM      6  N   UNL     1       0.461   1.615  25.726  0.00  0.00    -0.295 N 
ATOM      8  N   UNL     1       1.673   0.842  23.928  0.00  0.00    -0.297 N 
ATOM     18  C   UNL     1       0.782   1.811  24.384  0.00  0.00    +0.300 C 
ATOM     28  H   UNL     1       0.823   0.787  26.189  0.00  0.00    +0.151 HD
ATOM     29  H   UNL     1       2.044   0.175  24.599  0.00  0.00    +0.150 HD
BRANCH   8  20
ATOM     20  C   UNL     1       2.170   0.811  22.573  0.00  0.00    +0.068 C 
ATOM     23  C   UNL     1       1.592  -0.382  21.824  0.00  0.00    +0.027 C 
ATOM     24  C   UNL     1       3.694   0.782  22.565  0.00  0.00    +0.027 C 
ENDBRANCH   8  20
ENDBRANCH  11   6
BRANCH  10  15
ATOM     15  C   UNL     1      -4.555   1.228  25.354  0.00  0.00    +0.029 C 
BRANCH  15  17
ATOM     17  C   UNL     1      -4.361   0.587  23.983  0.00  0.00    +0.097 C 
BRANCH  17  19
ATOM      3  O   UNL     1      -2.191   0.904  23.016  0.00  0.00    -0.276 OA
ATOM      7  N   UNL     1      -2.469  -0.978  24.342  0.00  0.00    -0.302 N 
ATOM     19  C   UNL     1      -2.910   0.199  23.728  0.00  0.00    +0.216 C 
BRANCH   7  21
ATOM     21  C   UNL     1      -3.283  -1.843  25.193  0.00  0.00    +0.104 C 
ATOM     25  C   UNL     1      -3.852  -3.011  24.413  0.00  0.00    +0.024 C 
ENDBRANCH   7  21
BRANCH   7  22
ATOM     22  C   UNL     1      -1.096  -1.423  24.139  0.00  0.00    +0.104 C 
ATOM     26  C   UNL     1      -0.419  -1.753  25.453  0.00  0.00    +0.024 C 
ENDBRANCH   7  22
ENDBRANCH  17  19
ENDBRANCH  15  17
ENDBRANCH  10  15
TORSDOF 7
ENDMDL
MODEL 5
REMARK VINA RESULT:      -1.9      2.044      5.329
REMARK  Name = 26763045
REMARK  11 active torsions:
REMARK  status: ('A' for Active; 'I' for Inactive)
REMARK    1  A    between atoms: N_6  and  C_11
REMARK    2  A    between atoms: N_7  and  C_21
REMARK    3  A    between atoms: N_7  and  C_22
REMARK    4  A    between atoms: N_8  and  C_20
REMARK    5  A    between atoms: C_10  and  C_15
REMARK    6  A    between atoms: C_15  and  C_17
REMARK    7  A    between atoms: C_17  and  C_19
REMARK    8  A    between atoms: C_20  and  C_23
REMARK    9  A    between atoms: C_20  and  C_24
REMARK   10  A    between atoms: C_21  and  C_25
REMARK   11  A    between atoms: C_22  and  C_26
REMARK                            x       y       z     vdW  Elec       q    Type
REMARK                         _______ _______ _______ _____ _____    ______ ____
ROOT
ATOM      1  O   UNL     1      -3.266  -1.858  26.379  0.00  0.00    -0.274 OA
ATOM      4  N   UNL     1      -2.519   0.581  23.928  0.00  0.00    -0.285 NA
ATOM      5  N   UNL     1      -4.401   0.065  25.844  0.00  0.00    -0.313 N 
ATOM      9  C   UNL     1      -2.767  -0.824  24.268  0.00  0.00    +0.145 C 
ATOM     10  C   UNL     1      -3.789   1.282  23.731  0.00  0.00    +0.075 C 
ATOM     11  C   UNL     1      -0.641  -0.584  23.160  0.00  0.00    +0.090 C 
ATOM     12  C   UNL     1      -1.372  -1.428  24.209  0.00  0.00    +0.052 C 
ATOM     13  C   UNL     1      -1.626   0.523  22.771  0.00  0.00    +0.107 C 
ATOM     14  C   UNL     1      -4.497   1.308  25.093  0.00  0.00    +0.123 C 
ATOM     16  C   UNL     1      -3.457  -0.917  25.609  0.00  0.00    +0.230 C 
ATOM     27  H   UNL     1      -4.941  -0.002  26.701  0.00  0.00    +0.149 HD
ENDROOT
BRANCH  11   6
ATOM      2  O   UNL     1       1.849  -0.235  21.745  0.00  0.00    -0.253 OA
ATOM      6  N   UNL     1       0.588  -0.046  23.686  0.00  0.00    -0.295 N 
ATOM      8  N   UNL     1       2.788   0.631  23.682  0.00  0.00    -0.297 N 
ATOM     18  C   UNL     1       1.751   0.086  22.929  0.00  0.00    +0.300 C 
ATOM     28  H   UNL     1       0.634   0.178  24.676  0.00  0.00    +0.151 HD
ATOM     29  H   UNL     1       2.587   0.936  24.629  0.00  0.00    +0.150 HD
BRANCH   8  20
ATOM     20  C   UNL     1       4.104   0.876  23.141  0.00  0.00    +0.068 C 
ATOM     23  C   UNL     1       4.141   0.529  21.658  0.00  0.00    +0.027 C 
ATOM     24  C   UNL     1       5.155   0.092  23.918  0.00  0.00    +0.027 C 
ENDBRANCH   8  20
ENDBRANCH  11   6
BRANCH  10  15
ATOM     15  C   UNL     1      -3.610   2.712  23.220  0.00  0.00    +0.029 C 
BRANCH  15  17
ATOM     17  C   UNL     1      -3.978   3.731  24.294  0.00  0.00    +0.097 C 
BRANCH  17  19
ATOM      3  O   UNL     1      -3.631   3.503  26.654  0.00  0.00    -0.276 OA
ATOM      7  N   UNL     1      -1.728   3.586  25.331  0.00  0.00    -0.302 N 
ATOM     19  C   UNL     1      -3.111   3.596  25.539  0.00  0.00    +0.216 C 
BRANCH   7  21
ATOM     21  C   UNL     1      -1.069   3.692  24.032  0.00  0.00    +0.104 C 
ATOM     25  C   UNL     1      -0.297   4.990  23.907  0.00  0.00    +0.024 C 
ENDBRANCH   7  21
BRANCH   7  22
ATOM     22  C   UNL     1      -0.831   3.469  26.473  0.00  0.00    +0.104 C 
ATOM     26  C   UNL     1       0.110   2.292  26.322  0.00  0.00    +0.024 C 
ENDBRANCH   7  22
ENDBRANCH  17  19
ENDBRANCH  15  17
ENDBRANCH  10  15
TORSDOF 7
ENDMDL
MODEL 6
REMARK VINA RESULT:      -0.3      2.409      6.270
REMARK  Name = 26763045
REMARK  11 active torsions:
REMARK  status: ('A' for Active; 'I' for Inactive)
REMARK    1  A    between atoms: N_6  and  C_11
REMARK    2  A    between atoms: N_7  and  C_21
REMARK    3  A    between atoms: N_7  and  C_22
REMARK    4  A    between atoms: N_8  and  C_20
REMARK    5  A    between atoms: C_10  and  C_15
REMARK    6  A    between atoms: C_15  and  C_17
REMARK    7  A    between atoms: C_17  and  C_19
REMARK    8  A    between atoms: C_20  and  C_23
REMARK    9  A    between atoms: C_20  and  C_24
REMARK   10  A    between atoms: C_21  and  C_25
REMARK   11  A    between atoms: C_22  and  C_26
REMARK                            x       y       z     vdW  Elec       q    Type
REMARK                         _______ _______ _______ _____ _____    ______ ____
ROOT
ATOM      1  O   UNL     1       1.425  -0.691  23.057  0.00  0.00    -0.274 OA
ATOM      4  N   UNL     1      -1.389   0.675  24.707  0.00  0.00    -0.285 NA
ATOM      5  N   UNL     1      -0.493  -1.733  23.769  0.00  0.00    -0.313 N 
ATOM      9  C   UNL     1      -0.469   0.697  23.565  0.00  0.00    +0.145 C 
ATOM     10  C   UNL     1      -2.443  -0.316  24.483  0.00  0.00    +0.075 C 
ATOM     11  C   UNL     1      -0.528   2.849  24.647  0.00  0.00    +0.090 C 
ATOM     12  C   UNL     1       0.398   1.911  23.865  0.00  0.00    +0.052 C 
ATOM     13  C   UNL     1      -1.827   2.063  24.848  0.00  0.00    +0.107 C 
ATOM     14  C   UNL     1      -1.764  -1.693  24.478  0.00  0.00    +0.123 C 
ATOM     16  C   UNL     1       0.269  -0.618  23.471  0.00  0.00    +0.230 C 
ATOM     27  H   UNL     1      -0.058  -2.642  23.647  0.00  0.00    +0.149 HD
ENDROOT
BRANCH  11   6
ATOM      2  O   UNL     1       0.052   1.137  26.896  0.00  0.00    -0.253 OA
ATOM      6  N   UNL     1       0.064   3.237  25.903  0.00  0.00    -0.295 N 
ATOM      8  N   UNL     1       0.883   2.978  28.038  0.00  0.00    -0.297 N 
ATOM     18  C   UNL     1       0.308   2.340  26.942  0.00  0.00    +0.300 C 
ATOM     28  H   UNL     1       0.242   4.222  26.070  0.00  0.00    +0.151 HD
ATOM     29  H   UNL     1       1.129   3.959  27.951  0.00  0.00    +0.150 HD
BRANCH   8  20
ATOM     20  C   UNL     1       1.240   2.281  29.251  0.00  0.00    +0.068 C 
ATOM     23  C   UNL     1       0.515   2.890  30.445  0.00  0.00    +0.027 C 
ATOM     24  C   UNL     1       2.750   2.300  29.454  0.00  0.00    +0.027 C 
ENDBRANCH   8  20
ENDBRANCH  11   6
BRANCH  10  15
ATOM     15  C   UNL     1      -3.530  -0.287  25.559  0.00  0.00    +0.029 C 
BRANCH  15  17
ATOM     17  C   UNL     1      -4.871   0.149  24.976  0.00  0.00    +0.097 C 
BRANCH  17  19
ATOM      3  O   UNL     1      -5.984   1.583  26.542  0.00  0.00    -0.276 OA
ATOM      7  N   UNL     1      -4.928   2.620  24.756  0.00  0.00    -0.302 N 
ATOM     19  C   UNL     1      -5.317   1.506  25.507  0.00  0.00    +0.216 C 
BRANCH   7  21
ATOM     21  C   UNL     1      -4.140   2.577  23.527  0.00  0.00    +0.104 C 
ATOM     25  C   UNL     1      -4.056   3.943  22.875  0.00  0.00    +0.024 C 
ENDBRANCH   7  21
BRANCH   7  22
ATOM     22  C   UNL     1      -5.324   3.953  25.193  0.00  0.00    +0.104 C 
ATOM     26  C   UNL     1      -4.383   4.494  26.249  0.00  0.00    +0.024 C 
ENDBRANCH   7  22
ENDBRANCH  17  19
ENDBRANCH  15  17
ENDBRANCH  10  15
TORSDOF 7
ENDMDL
MODEL 7
REMARK VINA RESULT:      -0.3      1.893      4.838
REMARK  Name = 26763045
REMARK  11 active torsions:
REMARK  status: ('A' for Active; 'I' for Inactive)
REMARK    1  A    between atoms: N_6  and  C_11
REMARK    2  A    between atoms: N_7  and  C_21
REMARK    3  A    between atoms: N_7  and  C_22
REMARK    4  A    between atoms: N_8  and  C_20
REMARK    5  A    between atoms: C_10  and  C_15
REMARK    6  A    between atoms: C_15  and  C_17
REMARK    7  A    between atoms: C_17  and  C_19
REMARK    8  A    between atoms: C_20  and  C_23
REMARK    9  A    between atoms: C_20  and  C_24
REMARK   10  A    between atoms: C_21  and  C_25
REMARK   11  A    between atoms: C_22  and  C_26
REMARK                            x       y       z     vdW  Elec       q    Type
REMARK                         _______ _______ _______ _____ _____    ______ ____
ROOT
ATOM      1  O   UNL     1       0.550  -1.016  21.883  0.00  0.00    -0.274 OA
ATOM      4  N   UNL     1      -0.581   0.451  24.896  0.00  0.00    -0.285 NA
ATOM      5  N   UNL     1       1.246   0.914  22.915  0.00  0.00    -0.313 N 
ATOM      9  C   UNL     1      -0.040  -0.716  24.193  0.00  0.00    +0.145 C 
ATOM     10  C   UNL     1       0.504   1.357  25.275  0.00  0.00    +0.075 C 
ATOM     11  C   UNL     1      -2.090  -1.285  25.322  0.00  0.00    +0.090 C 
ATOM     12  C   UNL     1      -1.252  -1.629  24.086  0.00  0.00    +0.052 C 
ATOM     13  C   UNL     1      -1.363  -0.116  25.994  0.00  0.00    +0.107 C 
ATOM     14  C   UNL     1       1.100   1.905  23.971  0.00  0.00    +0.123 C 
ATOM     16  C   UNL     1       0.569  -0.290  22.877  0.00  0.00    +0.230 C 
ATOM     27  H   UNL     1       1.732   1.202  22.071  0.00  0.00    +0.149 HD
ENDROOT
BRANCH  11   6
ATOM      2  O   UNL     1      -3.453   1.198  25.871  0.00  0.00    -0.253 OA
ATOM      6  N   UNL     1      -3.441  -0.937  24.957  0.00  0.00    -0.295 N 
ATOM      8  N   UNL     1      -5.333   0.363  24.797  0.00  0.00    -0.297 N 
ATOM     18  C   UNL     1      -4.023   0.291  25.265  0.00  0.00    +0.300 C 
ATOM     28  H   UNL     1      -4.022  -1.646  24.520  0.00  0.00    +0.151 HD
ATOM     29  H   UNL     1      -5.689  -0.407  24.240  0.00  0.00    +0.150 HD
BRANCH   8  20
ATOM     20  C   UNL     1      -6.167   1.527  24.981  0.00  0.00    +0.068 C 
ATOM     23  C   UNL     1      -6.628   1.626  26.429  0.00  0.00    +0.027 C 
ATOM     24  C   UNL     1      -7.354   1.490  24.025  0.00  0.00    +0.027 C 
ENDBRANCH   8  20
ENDBRANCH  11   6
BRANCH  10  15
ATOM     15  C   UNL     1       0.034   2.521  26.150  0.00  0.00    +0.029 C 
BRANCH  15  17
ATOM     17  C   UNL     1      -0.246   3.763  25.311  0.00  0.00    +0.097 C 
BRANCH  17  19
ATOM      3  O   UNL     1      -2.240   4.775  26.173  0.00  0.00    -0.276 OA
ATOM      7  N   UNL     1      -2.443   3.635  24.164  0.00  0.00    -0.302 N 
ATOM     19  C   UNL     1      -1.728   4.110  25.269  0.00  0.00    +0.216 C 
BRANCH   7  21
ATOM     21  C   UNL     1      -1.880   2.847  23.070  0.00  0.00    +0.104 C 
ATOM     25  C   UNL     1      -2.915   1.919  22.466  0.00  0.00    +0.024 C 
ENDBRANCH   7  21
BRANCH   7  22
ATOM     22  C   UNL     1      -3.868   3.917  24.056  0.00  0.00    +0.104 C 
ATOM     26  C   UNL     1      -4.478   4.222  25.408  0.00  0.00    +0.024 C 
ENDBRANCH   7  22
ENDBRANCH  17  19
ENDBRANCH  15  17
ENDBRANCH  10  15
TORSDOF 7
ENDMDL
MODEL 8
REMARK VINA RESULT:       0.1      1.445      2.169
REMARK  Name = 26763045
REMARK  11 active torsions:
REMARK  status: ('A' for Active; 'I' for Inactive)
REMARK    1  A    between atoms: N_6  and  C_11
REMARK    2  A    between atoms: N_7  and  C_21
REMARK    3  A    between atoms: N_7  and  C_22
REMARK    4  A    between atoms: N_8  and  C_20
REMARK    5  A    between atoms: C_10  and  C_15
REMARK    6  A    between atoms: C_15  and  C_17
REMARK    7  A    between atoms: C_17  and  C_19
REMARK    8  A    between atoms: C_20  and  C_23
REMARK    9  A    between atoms: C_20  and  C_24
REMARK   10  A    between atoms: C_21  and  C_25
REMARK   11  A    between atoms: C_22  and  C_26
REMARK                            x       y       z     vdW  Elec       q    Type
REMARK                         _______ _______ _______ _____ _____    ______ ____
ROOT
ATOM      1  O   UNL     1      -6.255   2.369  26.701  0.00  0.00    -0.274 OA
ATOM      4  N   UNL     1      -3.628   3.352  24.547  0.00  0.00    -0.285 NA
ATOM      5  N   UNL     1      -4.771   4.109  26.913  0.00  0.00    -0.313 N 
ATOM      9  C   UNL     1      -5.049   3.047  24.737  0.00  0.00    +0.145 C 
ATOM     10  C   UNL     1      -3.356   4.738  24.933  0.00  0.00    +0.075 C 
ATOM     11  C   UNL     1      -4.117   1.683  22.982  0.00  0.00    +0.090 C 
ATOM     12  C   UNL     1      -5.182   1.678  24.084  0.00  0.00    +0.052 C 
ATOM     13  C   UNL     1      -3.364   3.007  23.151  0.00  0.00    +0.107 C 
ATOM     14  C   UNL     1      -3.598   4.832  26.446  0.00  0.00    +0.123 C 
ATOM     16  C   UNL     1      -5.398   3.100  26.206  0.00  0.00    +0.230 C 
ATOM     27  H   UNL     1      -5.033   4.227  27.887  0.00  0.00    +0.149 HD
ENDROOT
BRANCH  11   6
ATOM      2  O   UNL     1      -3.902  -0.119  25.225  0.00  0.00    -0.253 OA
ATOM      6  N   UNL     1      -3.237   0.548  23.102  0.00  0.00    -0.295 N 
ATOM      8  N   UNL     1      -2.260  -1.292  24.080  0.00  0.00    -0.297 N 
ATOM     18  C   UNL     1      -3.197  -0.273  24.228  0.00  0.00    +0.300 C 
ATOM     28  H   UNL     1      -2.560   0.380  22.364  0.00  0.00    +0.151 HD
ATOM     29  H   UNL     1      -1.783  -1.382  23.189  0.00  0.00    +0.150 HD
BRANCH   8  20
ATOM     20  C   UNL     1      -2.016  -2.285  25.099  0.00  0.00    +0.068 C 
ATOM     23  C   UNL     1      -0.585  -2.800  25.006  0.00  0.00    +0.027 C 
ATOM     24  C   UNL     1      -3.021  -3.425  24.986  0.00  0.00    +0.027 C 
ENDBRANCH   8  20
ENDBRANCH  11   6
BRANCH  10  15
ATOM     15  C   UNL     1      -1.926   5.178  24.616  0.00  0.00    +0.029 C 
BRANCH  15  17
ATOM     17  C   UNL     1      -0.908   4.344  25.388  0.00  0.00    +0.097 C 
BRANCH  17  19
ATOM      3  O   UNL     1       0.463   4.050  23.444  0.00  0.00    -0.276 OA
ATOM      7  N   UNL     1       0.250   2.217  24.849  0.00  0.00    -0.302 N 
ATOM     19  C   UNL     1      -0.003   3.538  24.465  0.00  0.00    +0.216 C 
BRANCH   7  21
ATOM     21  C   UNL     1      -0.279   1.569  26.046  0.00  0.00    +0.104 C 
ATOM     25  C   UNL     1       0.342   2.141  27.305  0.00  0.00    +0.024 C 
ENDBRANCH   7  21
BRANCH   7  22
ATOM     22  C   UNL     1       1.099   1.378  24.013  0.00  0.00    +0.104 C 
ATOM     26  C   UNL     1       0.285   0.362  23.238  0.00  0.00    +0.024 C 
ENDBRANCH   7  22
ENDBRANCH  17  19
ENDBRANCH  15  17
ENDBRANCH  10  15
TORSDOF 7
ENDMDL
MODEL 9
REMARK VINA RESULT:       0.4      1.973      6.181
REMARK  Name = 26763045
REMARK  11 active torsions:
REMARK  status: ('A' for Active; 'I' for Inactive)
REMARK    1  A    between atoms: N_6  and  C_11
REMARK    2  A    between atoms: N_7  and  C_21
REMARK    3  A    between atoms: N_7  and  C_22
REMARK    4  A    between atoms: N_8  and  C_20
REMARK    5  A    between atoms: C_10  and  C_15
REMARK    6  A    between atoms: C_15  and  C_17
REMARK    7  A    between atoms: C_17  and  C_19
REMARK    8  A    between atoms: C_20  and  C_23
REMARK    9  A    between atoms: C_20  and  C_24
REMARK   10  A    between atoms: C_21  and  C_25
REMARK   11  A    between atoms: C_22  and  C_26
REMARK                            x       y       z     vdW  Elec       q    Type
REMARK                         _______ _______ _______ _____ _____    ______ ____
ROOT
ATOM      1  O   UNL     1      -0.774  -3.094  24.856  0.00  0.00    -0.274 OA
ATOM      4  N   UNL     1      -2.186   0.078  24.180  0.00  0.00    -0.285 NA
ATOM      5  N   UNL     1      -2.974  -2.436  24.910  0.00  0.00    -0.313 N 
ATOM      9  C   UNL     1      -1.349  -1.044  23.742  0.00  0.00    +0.145 C 
ATOM     10  C   UNL     1      -3.595  -0.213  23.914  0.00  0.00    +0.075 C 
ATOM     11  C   UNL     1      -0.116   1.024  23.636  0.00  0.00    +0.090 C 
ATOM     12  C   UNL     1       0.057  -0.479  23.880  0.00  0.00    +0.052 C 
ATOM     13  C   UNL     1      -1.626   1.241  23.491  0.00  0.00    +0.107 C 
ATOM     14  C   UNL     1      -3.982  -1.391  24.820  0.00  0.00    +0.123 C 
ATOM     16  C   UNL     1      -1.642  -2.265  24.582  0.00  0.00    +0.230 C 
ATOM     27  H   UNL     1      -3.226  -3.283  25.410  0.00  0.00    +0.149 HD
ENDROOT
BRANCH  11   6
ATOM      2  O   UNL     1      -0.477   0.553  26.460  0.00  0.00    -0.253 OA
ATOM      6  N   UNL     1       0.434   1.796  24.722  0.00  0.00    -0.295 N 
ATOM      8  N   UNL     1       0.853   2.401  26.903  0.00  0.00    -0.297 N 
ATOM     18  C   UNL     1       0.206   1.497  26.064  0.00  0.00    +0.300 C 
ATOM     28  H   UNL     1       0.950   2.642  24.501  0.00  0.00    +0.151 HD
ATOM     29  H   UNL     1       1.457   3.100  26.482  0.00  0.00    +0.150 HD
BRANCH   8  20
ATOM     20  C   UNL     1       0.783   2.322  28.343  0.00  0.00    +0.068 C 
ATOM     23  C   UNL     1      -0.389   3.143  28.863  0.00  0.00    +0.027 C 
ATOM     24  C   UNL     1       2.097   2.779  28.966  0.00  0.00    +0.027 C 
ENDBRANCH   8  20
ENDBRANCH  11   6
BRANCH  10  15
ATOM     15  C   UNL     1      -4.516   0.975  24.199  0.00  0.00    +0.029 C 
BRANCH  15  17
ATOM     17  C   UNL     1      -4.989   0.970  25.650  0.00  0.00    +0.097 C 
BRANCH  17  19
ATOM      3  O   UNL     1      -6.587   2.412  26.702  0.00  0.00    -0.276 OA
ATOM      7  N   UNL     1      -4.737   3.437  25.751  0.00  0.00    -0.302 N 
ATOM     19  C   UNL     1      -5.521   2.329  26.087  0.00  0.00    +0.216 C 
BRANCH   7  21
ATOM     21  C   UNL     1      -3.470   3.386  25.026  0.00  0.00    +0.104 C 
ATOM     25  C   UNL     1      -2.409   4.229  25.705  0.00  0.00    +0.024 C 
ENDBRANCH   7  21
BRANCH   7  22
ATOM     22  C   UNL     1      -5.184   4.772  26.126  0.00  0.00    +0.104 C 
ATOM     26  C   UNL     1      -6.241   5.293  25.174  0.00  0.00    +0.024 C 
ENDBRANCH   7  22
ENDBRANCH  17  19
ENDBRANCH  15  17
ENDBRANCH  10  15
TORSDOF 7
ENDMDL
MODEL 10
REMARK VINA RESULT:       0.7      2.195      5.753
REMARK  Name = 26763045
REMARK  11 active torsions:
REMARK  status: ('A' for Active; 'I' for Inactive)
REMARK    1  A    between atoms: N_6  and  C_11
REMARK    2  A    between atoms: N_7  and  C_21
REMARK    3  A    between atoms: N_7  and  C_22
REMARK    4  A    between atoms: N_8  and  C_20
REMARK    5  A    between atoms: C_10  and  C_15
REMARK    6  A    between atoms: C_15  and  C_17
REMARK    7  A    between atoms: C_17  and  C_19
REMARK    8  A    between atoms: C_20  and  C_23
REMARK    9  A    between atoms: C_20  and  C_24
REMARK   10  A    between atoms: C_21  and  C_25
REMARK   11  A    between atoms: C_22  and  C_26
REMARK                            x       y       z     vdW  Elec       q    Type
REMARK                         _______ _______ _______ _____ _____    ______ ____
ROOT
ATOM      1  O   UNL     1       0.560   2.352  27.449  0.00  0.00    -0.274 OA
ATOM      4  N   UNL     1      -1.066   1.658  24.385  0.00  0.00    -0.285 NA
ATOM      5  N   UNL     1      -0.724   3.731  26.135  0.00  0.00    -0.313 N 
ATOM      9  C   UNL     1      -0.845   1.320  25.795  0.00  0.00    +0.145 C 
ATOM     10  C   UNL     1      -2.073   2.714  24.274  0.00  0.00    +0.075 C 
ATOM     11  C   UNL     1      -0.387  -0.581  24.386  0.00  0.00    +0.090 C 
ATOM     12  C   UNL     1       0.035   0.082  25.702  0.00  0.00    +0.052 C 
ATOM     13  C   UNL     1      -1.396   0.382  23.752  0.00  0.00    +0.107 C 
ATOM     14  C   UNL     1      -1.466   3.974  24.908  0.00  0.00    +0.123 C 
ATOM     16  C   UNL     1      -0.233   2.497  26.518  0.00  0.00    +0.230 C 
ATOM     27  H   UNL     1      -0.394   4.543  26.647  0.00  0.00    +0.149 HD
ENDROOT
BRANCH  11   6
ATOM      2  O   UNL     1       1.916   1.128  24.066  0.00  0.00    -0.253 OA
ATOM      6  N   UNL     1       0.749  -0.807  23.529  0.00  0.00    -0.295 N 
ATOM      8  N   UNL     1       2.781  -0.384  22.534  0.00  0.00    -0.297 N 
ATOM     18  C   UNL     1       1.824   0.076  23.434  0.00  0.00    +0.300 C 
ATOM     28  H   UNL     1       0.734  -1.610  22.907  0.00  0.00    +0.151 HD
ATOM     29  H   UNL     1       2.651  -1.302  22.119  0.00  0.00    +0.150 HD
BRANCH   8  20
ATOM     20  C   UNL     1       3.997   0.339  22.246  0.00  0.00    +0.068 C 
ATOM     23  C   UNL     1       5.108  -0.092  23.195  0.00  0.00    +0.027 C 
ATOM     24  C   UNL     1       3.756   1.842  22.324  0.00  0.00    +0.027 C 
ENDBRANCH   8  20
ENDBRANCH  11   6
BRANCH  10  15
ATOM     15  C   UNL     1      -2.472   3.011  22.828  0.00  0.00    +0.029 C 
BRANCH  15  17
ATOM     17  C   UNL     1      -3.985   3.149  22.691  0.00  0.00    +0.097 C 
BRANCH  17  19
ATOM      3  O   UNL     1      -4.696   4.702  24.373  0.00  0.00    -0.276 OA
ATOM      7  N   UNL     1      -5.195   2.468  24.748  0.00  0.00    -0.302 N 
ATOM     19  C   UNL     1      -4.652   3.524  24.008  0.00  0.00    +0.216 C 
BRANCH   7  21
ATOM     21  C   UNL     1      -5.168   1.061  24.356  0.00  0.00    +0.104 C 
ATOM     25  C   UNL     1      -4.296   0.243  25.286  0.00  0.00    +0.024 C 
ENDBRANCH   7  21
BRANCH   7  22
ATOM     22  C   UNL     1      -5.841   2.744  26.024  0.00  0.00    +0.104 C 
ATOM     26  C   UNL     1      -6.631   1.548  26.517  0.00  0.00    +0.024 C 
ENDBRANCH   7  22
ENDBRANCH  17  19
ENDBRANCH  15  17
ENDBRANCH  10  15
TORSDOF 7
ENDMDL
