MODEL 1
REMARK VINA RESULT:      -4.1      0.000      0.000
REMARK  Name = 56775617
REMARK  12 active torsions:
REMARK  status: ('A' for Active; 'I' for Inactive)
REMARK    1  A    between atoms: O_6  and  C_25
REMARK    2  A    between atoms: O_6  and  C_33
REMARK    3  A    between atoms: N_7  and  C_10
REMARK    4  A    between atoms: N_7  and  C_15
REMARK    5  A    between atoms: N_9  and  C_19
REMARK    6  A    between atoms: N_9  and  C_22
REMARK    7  A    between atoms: N_9  and  C_26
REMARK    8  A    between atoms: C_10  and  C_13
REMARK    9  A    between atoms: C_13  and  C_14
REMARK   10  A    between atoms: C_15  and  C_17
REMARK   11  A    between atoms: C_18  and  C_19
REMARK   12  A    between atoms: C_22  and  C_27
REMARK                            x       y       z     vdW  Elec       q    Type
REMARK                         _______ _______ _______ _____ _____    ______ ____
ROOT
ATOM      4  O   UNL     1       0.123  -2.117  25.732  0.00  0.00    -0.376 OA
ATOM     10  C   UNL     1      -1.789  -1.681  24.889  0.00  0.00    +0.072 C 
ATOM     11  C   UNL     1      -0.808  -1.017  25.848  0.00  0.00    +0.184 C 
ATOM     12  C   UNL     1      -0.804  -2.844  24.893  0.00  0.00    +0.184 C 
ENDROOT
BRANCH  10   7
ATOM      7  N   UNL     1      -1.716  -1.006  23.601  0.00  0.00    -0.302 NA
ATOM     34  H   UNL     1      -2.594  -0.960  23.086  0.00  0.00    +0.123 HD
BRANCH   7  15
ATOM     15  C   UNL     1      -1.177   0.340  23.778  0.00  0.00    +0.117 C 
BRANCH  15  17
ATOM     17  C   UNL     1       0.279   0.415  23.401  0.00  0.00    -0.033 A 
ATOM     20  C   UNL     1       0.826  -0.534  22.537  0.00  0.00    +0.008 A 
ATOM     21  C   UNL     1       1.080   1.436  23.912  0.00  0.00    +0.008 A 
ATOM     23  C   UNL     1       2.174  -0.463  22.186  0.00  0.00    +0.046 A 
ATOM     24  C   UNL     1       2.427   1.508  23.560  0.00  0.00    +0.046 A 
ATOM     25  C   UNL     1       2.975   0.559  22.697  0.00  0.00    +0.130 A 
BRANCH  25   6
ATOM      6  O   UNL     1       4.290   0.629  22.352  0.00  0.00    -0.406 OA
BRANCH   6  33
ATOM      1  F   UNL     1       5.514   0.925  24.225  0.00  0.00    -0.133 F 
ATOM      2  F   UNL     1       4.768  -1.083  23.793  0.00  0.00    -0.133 F 
ATOM      3  F   UNL     1       6.404  -0.215  22.586  0.00  0.00    -0.133 F 
ATOM     33  C   UNL     1       5.247   0.047  23.231  0.00  0.00    +0.575 C 
ENDBRANCH   6  33
ENDBRANCH  25   6
ENDBRANCH  15  17
ENDBRANCH   7  15
ENDBRANCH  10   7
BRANCH  10  13
ATOM     13  C   UNL     1      -3.231  -1.926  25.355  0.00  0.00    +0.085 C 
BRANCH  13  14
ATOM      5  O   UNL     1      -5.428   0.538  23.993  0.00  0.00    -0.358 OA
ATOM      8  N   UNL     1      -4.729  -0.661  23.919  0.00  0.00    -0.083 NA
ATOM     14  C   UNL     1      -4.082  -0.757  25.083  0.00  0.00    +0.086 A 
ATOM     16  C   UNL     1      -4.331   0.342  25.924  0.00  0.00    +0.072 A 
ATOM     18  C   UNL     1      -5.182   1.126  25.192  0.00  0.00    +0.151 A 
BRANCH  18  19
ATOM     19  C   UNL     1      -5.863   2.445  25.445  0.00  0.00    +0.161 C 
BRANCH  19   9
ATOM      9  N   UNL     1      -4.997   3.577  25.114  0.00  0.00    -0.294 NA
ATOM     26  C   UNL     1      -4.181   3.270  23.941  0.00  0.00    +0.105 C 
BRANCH   9  22
ATOM     22  C   UNL     1      -4.148   3.920  26.254  0.00  0.00    +0.119 C 
BRANCH  22  27
ATOM     27  C   UNL     1      -2.704   4.063  25.852  0.00  0.00    -0.033 A 
ATOM     28  C   UNL     1      -2.275   5.211  25.185  0.00  0.00    +0.005 A 
ATOM     29  C   UNL     1      -1.794   3.047  26.147  0.00  0.00    +0.005 A 
ATOM     30  C   UNL     1      -0.937   5.342  24.813  0.00  0.00    +0.000 A 
ATOM     31  C   UNL     1      -0.457   3.179  25.775  0.00  0.00    +0.000 A 
ATOM     32  C   UNL     1      -0.028   4.328  25.108  0.00  0.00    +0.000 A 
ENDBRANCH  22  27
ENDBRANCH   9  22
ENDBRANCH  19   9
ENDBRANCH  18  19
ENDBRANCH  13  14
ENDBRANCH  10  13
TORSDOF 11
ENDMDL
MODEL 2
REMARK VINA RESULT:      -2.9      3.151      7.133
REMARK  Name = 56775617
REMARK  12 active torsions:
REMARK  status: ('A' for Active; 'I' for Inactive)
REMARK    1  A    between atoms: O_6  and  C_25
REMARK    2  A    between atoms: O_6  and  C_33
REMARK    3  A    between atoms: N_7  and  C_10
REMARK    4  A    between atoms: N_7  and  C_15
REMARK    5  A    between atoms: N_9  and  C_19
REMARK    6  A    between atoms: N_9  and  C_22
REMARK    7  A    between atoms: N_9  and  C_26
REMARK    8  A    between atoms: C_10  and  C_13
REMARK    9  A    between atoms: C_13  and  C_14
REMARK   10  A    between atoms: C_15  and  C_17
REMARK   11  A    between atoms: C_18  and  C_19
REMARK   12  A    between atoms: C_22  and  C_27
REMARK                            x       y       z     vdW  Elec       q    Type
REMARK                         _______ _______ _______ _____ _____    ______ ____
ROOT
ATOM      4  O   UNL     1      -1.954   6.570  25.345  0.00  0.00    -0.376 OA
ATOM     10  C   UNL     1      -2.772   4.598  25.360  0.00  0.00    +0.072 C 
ATOM     11  C   UNL     1      -2.993   5.910  26.104  0.00  0.00    +0.184 C 
ATOM     12  C   UNL     1      -1.629   5.333  24.670  0.00  0.00    +0.184 C 
ENDROOT
BRANCH  10   7
ATOM      7  N   UNL     1      -3.857   4.413  24.406  0.00  0.00    -0.302 NA
ATOM     34  H   UNL     1      -3.570   4.086  23.484  0.00  0.00    +0.123 HD
BRANCH   7  15
ATOM     15  C   UNL     1      -4.856   3.506  24.963  0.00  0.00    +0.117 C 
BRANCH  15  17
ATOM     17  C   UNL     1      -4.553   2.068  24.635  0.00  0.00    -0.033 A 
ATOM     20  C   UNL     1      -3.815   1.753  23.494  0.00  0.00    +0.008 A 
ATOM     21  C   UNL     1      -5.006   1.051  25.475  0.00  0.00    +0.008 A 
ATOM     23  C   UNL     1      -3.533   0.421  23.192  0.00  0.00    +0.046 A 
ATOM     24  C   UNL     1      -4.722  -0.281  25.174  0.00  0.00    +0.046 A 
ATOM     25  C   UNL     1      -3.986  -0.596  24.032  0.00  0.00    +0.130 A 
BRANCH  25   6
ATOM      6  O   UNL     1      -3.708  -1.896  23.738  0.00  0.00    -0.406 OA
BRANCH   6  33
ATOM      1  F   UNL     1      -2.193  -1.730  25.403  0.00  0.00    -0.133 F 
ATOM      2  F   UNL     1      -3.545  -3.448  25.411  0.00  0.00    -0.133 F 
ATOM      3  F   UNL     1      -1.919  -3.311  23.918  0.00  0.00    -0.133 F 
ATOM     33  C   UNL     1      -2.845  -2.614  24.612  0.00  0.00    +0.575 C 
ENDBRANCH   6  33
ENDBRANCH  25   6
ENDBRANCH  15  17
ENDBRANCH   7  15
ENDBRANCH  10   7
BRANCH  10  13
ATOM     13  C   UNL     1      -2.462   3.330  26.166  0.00  0.00    +0.085 C 
BRANCH  13  14
ATOM      5  O   UNL     1       0.856   2.023  25.980  0.00  0.00    -0.358 OA
ATOM      8  N   UNL     1      -0.206   2.584  26.679  0.00  0.00    -0.083 NA
ATOM     14  C   UNL     1      -1.169   2.751  25.768  0.00  0.00    +0.086 A 
ATOM     16  C   UNL     1      -0.776   2.319  24.490  0.00  0.00    +0.072 A 
ATOM     18  C   UNL     1       0.505   1.870  24.678  0.00  0.00    +0.151 A 
BRANCH  18  19
ATOM     19  C   UNL     1       1.544   1.272  23.767  0.00  0.00    +0.161 C 
BRANCH  19   9
ATOM      9  N   UNL     1       0.966   0.286  22.855  0.00  0.00    -0.294 NA
ATOM     26  C   UNL     1       0.211  -0.719  23.601  0.00  0.00    +0.105 C 
BRANCH   9  22
ATOM     22  C   UNL     1       2.015  -0.349  22.059  0.00  0.00    +0.119 C 
BRANCH  22  27
ATOM     27  C   UNL     1       3.346  -0.321  22.763  0.00  0.00    -0.033 A 
ATOM     28  C   UNL     1       4.138   0.827  22.712  0.00  0.00    +0.005 A 
ATOM     29  C   UNL     1       3.788  -1.442  23.465  0.00  0.00    +0.005 A 
ATOM     30  C   UNL     1       5.371   0.853  23.364  0.00  0.00    +0.000 A 
ATOM     31  C   UNL     1       5.021  -1.416  24.116  0.00  0.00    +0.000 A 
ATOM     32  C   UNL     1       5.812  -0.268  24.066  0.00  0.00    +0.000 A 
ENDBRANCH  22  27
ENDBRANCH   9  22
ENDBRANCH  19   9
ENDBRANCH  18  19
ENDBRANCH  13  14
ENDBRANCH  10  13
TORSDOF 11
ENDMDL
MODEL 3
REMARK VINA RESULT:      -1.6      3.166      6.495
REMARK  Name = 56775617
REMARK  12 active torsions:
REMARK  status: ('A' for Active; 'I' for Inactive)
REMARK    1  A    between atoms: O_6  and  C_25
REMARK    2  A    between atoms: O_6  and  C_33
REMARK    3  A    between atoms: N_7  and  C_10
REMARK    4  A    between atoms: N_7  and  C_15
REMARK    5  A    between atoms: N_9  and  C_19
REMARK    6  A    between atoms: N_9  and  C_22
REMARK    7  A    between atoms: N_9  and  C_26
REMARK    8  A    between atoms: C_10  and  C_13
REMARK    9  A    between atoms: C_13  and  C_14
REMARK   10  A    between atoms: C_15  and  C_17
REMARK   11  A    between atoms: C_18  and  C_19
REMARK   12  A    between atoms: C_22  and  C_27
REMARK                            x       y       z     vdW  Elec       q    Type
REMARK                         _______ _______ _______ _____ _____    ______ ____
ROOT
ATOM      4  O   UNL     1      -3.064  -3.953  24.101  0.00  0.00    -0.376 OA
ATOM     10  C   UNL     1      -3.379  -1.937  24.729  0.00  0.00    +0.072 C 
ATOM     11  C   UNL     1      -2.366  -2.705  23.886  0.00  0.00    +0.184 C 
ATOM     12  C   UNL     1      -4.003  -3.303  24.988  0.00  0.00    +0.184 C 
ENDROOT
BRANCH  10   7
ATOM      7  N   UNL     1      -4.251  -1.182  23.840  0.00  0.00    -0.302 NA
ATOM     34  H   UNL     1      -4.878  -1.747  23.267  0.00  0.00    +0.123 HD
BRANCH   7  15
ATOM     15  C   UNL     1      -5.025  -0.214  24.611  0.00  0.00    +0.117 C 
BRANCH  15  17
ATOM     17  C   UNL     1      -4.423   1.164  24.548  0.00  0.00    -0.033 A 
ATOM     20  C   UNL     1      -4.755   2.117  25.512  0.00  0.00    +0.008 A 
ATOM     21  C   UNL     1      -3.529   1.488  23.527  0.00  0.00    +0.008 A 
ATOM     23  C   UNL     1      -4.194   3.392  25.454  0.00  0.00    +0.046 A 
ATOM     24  C   UNL     1      -2.968   2.763  23.470  0.00  0.00    +0.046 A 
ATOM     25  C   UNL     1      -3.300   3.716  24.433  0.00  0.00    +0.130 A 
BRANCH  25   6
ATOM      6  O   UNL     1      -2.752   4.961  24.378  0.00  0.00    -0.406 OA
BRANCH   6  33
ATOM      1  F   UNL     1      -0.523   4.823  24.052  0.00  0.00    -0.133 F 
ATOM      2  F   UNL     1      -1.280   6.451  25.298  0.00  0.00    -0.133 F 
ATOM      3  F   UNL     1      -1.299   4.369  26.044  0.00  0.00    -0.133 F 
ATOM     33  C   UNL     1      -1.469   5.157  24.960  0.00  0.00    +0.575 C 
ENDBRANCH   6  33
ENDBRANCH  25   6
ENDBRANCH  15  17
ENDBRANCH   7  15
ENDBRANCH  10   7
BRANCH  10  13
ATOM     13  C   UNL     1      -2.878  -1.110  25.920  0.00  0.00    +0.085 C 
BRANCH  13  14
ATOM      5  O   UNL     1      -0.341   1.378  25.558  0.00  0.00    -0.358 OA
ATOM      8  N   UNL     1      -1.512   0.891  26.125  0.00  0.00    -0.083 NA
ATOM     14  C   UNL     1      -1.708  -0.298  25.547  0.00  0.00    +0.086 A 
ATOM     16  C   UNL     1      -0.703  -0.611  24.616  0.00  0.00    +0.072 A 
ATOM     18  C   UNL     1       0.131   0.475  24.660  0.00  0.00    +0.151 A 
BRANCH  18  19
ATOM     19  C   UNL     1       1.404   0.842  23.945  0.00  0.00    +0.161 C 
BRANCH  19   9
ATOM      9  N   UNL     1       1.270   0.711  22.493  0.00  0.00    -0.294 NA
ATOM     26  C   UNL     1      -0.089   0.301  22.141  0.00  0.00    +0.105 C 
BRANCH   9  22
ATOM     22  C   UNL     1       2.244  -0.249  21.976  0.00  0.00    +0.119 C 
BRANCH  22  27
ATOM     27  C   UNL     1       3.517  -0.243  22.781  0.00  0.00    -0.033 A 
ATOM     28  C   UNL     1       3.898  -1.382  23.492  0.00  0.00    +0.005 A 
ATOM     29  C   UNL     1       4.315   0.900  22.816  0.00  0.00    +0.005 A 
ATOM     30  C   UNL     1       5.077  -1.376  24.237  0.00  0.00    +0.000 A 
ATOM     31  C   UNL     1       5.493   0.906  23.561  0.00  0.00    +0.000 A 
ATOM     32  C   UNL     1       5.874  -0.233  24.272  0.00  0.00    +0.000 A 
ENDBRANCH  22  27
ENDBRANCH   9  22
ENDBRANCH  19   9
ENDBRANCH  18  19
ENDBRANCH  13  14
ENDBRANCH  10  13
TORSDOF 11
ENDMDL
MODEL 4
REMARK VINA RESULT:      -1.4      2.696      6.032
REMARK  Name = 56775617
REMARK  12 active torsions:
REMARK  status: ('A' for Active; 'I' for Inactive)
REMARK    1  A    between atoms: O_6  and  C_25
REMARK    2  A    between atoms: O_6  and  C_33
REMARK    3  A    between atoms: N_7  and  C_10
REMARK    4  A    between atoms: N_7  and  C_15
REMARK    5  A    between atoms: N_9  and  C_19
REMARK    6  A    between atoms: N_9  and  C_22
REMARK    7  A    between atoms: N_9  and  C_26
REMARK    8  A    between atoms: C_10  and  C_13
REMARK    9  A    between atoms: C_13  and  C_14
REMARK   10  A    between atoms: C_15  and  C_17
REMARK   11  A    between atoms: C_18  and  C_19
REMARK   12  A    between atoms: C_22  and  C_27
REMARK                            x       y       z     vdW  Elec       q    Type
REMARK                         _______ _______ _______ _____ _____    ______ ____
ROOT
ATOM      4  O   UNL     1      -6.174   3.433  25.757  0.00  0.00    -0.376 OA
ATOM     10  C   UNL     1      -4.948   1.897  24.924  0.00  0.00    +0.072 C 
ATOM     11  C   UNL     1      -6.218   2.649  24.543  0.00  0.00    +0.184 C 
ATOM     12  C   UNL     1      -5.022   2.693  26.221  0.00  0.00    +0.184 C 
ENDROOT
BRANCH  10   7
ATOM      7  N   UNL     1      -3.844   2.407  24.122  0.00  0.00    -0.302 NA
ATOM     34  H   UNL     1      -4.074   2.610  23.149  0.00  0.00    +0.123 HD
BRANCH   7  15
ATOM     15  C   UNL     1      -3.281   3.597  24.754  0.00  0.00    +0.117 C 
BRANCH  15  17
ATOM     17  C   UNL     1      -1.954   3.311  25.405  0.00  0.00    -0.033 A 
ATOM     20  C   UNL     1      -1.812   2.208  26.247  0.00  0.00    +0.008 A 
ATOM     21  C   UNL     1      -0.865   4.148  25.162  0.00  0.00    +0.008 A 
ATOM     23  C   UNL     1      -0.581   1.943  26.847  0.00  0.00    +0.046 A 
ATOM     24  C   UNL     1       0.366   3.882  25.762  0.00  0.00    +0.046 A 
ATOM     25  C   UNL     1       0.508   2.780  26.604  0.00  0.00    +0.130 A 
BRANCH  25   6
ATOM      6  O   UNL     1       1.709   2.520  27.189  0.00  0.00    -0.406 OA
BRANCH   6  33
ATOM      1  F   UNL     1       2.721   1.952  29.126  0.00  0.00    -0.133 F 
ATOM      2  F   UNL     1       2.404   4.075  28.716  0.00  0.00    -0.133 F 
ATOM      3  F   UNL     1       0.696   2.768  29.225  0.00  0.00    -0.133 F 
ATOM     33  C   UNL     1       1.871   2.843  28.565  0.00  0.00    +0.575 C 
ENDBRANCH   6  33
ENDBRANCH  25   6
ENDBRANCH  15  17
ENDBRANCH   7  15
ENDBRANCH  10   7
BRANCH  10  13
ATOM     13  C   UNL     1      -4.983   0.365  24.987  0.00  0.00    +0.085 C 
BRANCH  13  14
ATOM      5  O   UNL     1      -1.875  -1.244  25.700  0.00  0.00    -0.358 OA
ATOM      8  N   UNL     1      -3.162  -0.848  26.045  0.00  0.00    -0.083 NA
ATOM     14  C   UNL     1      -3.623  -0.199  24.974  0.00  0.00    +0.086 A 
ATOM     16  C   UNL     1      -2.682  -0.151  23.931  0.00  0.00    +0.072 A 
ATOM     18  C   UNL     1      -1.600  -0.822  24.439  0.00  0.00    +0.151 A 
BRANCH  18  19
ATOM     19  C   UNL     1      -0.238  -1.165  23.898  0.00  0.00    +0.161 C 
BRANCH  19   9
ATOM      9  N   UNL     1       0.543   0.033  23.589  0.00  0.00    -0.294 NA
ATOM     26  C   UNL     1      -0.343   1.148  23.256  0.00  0.00    +0.105 C 
BRANCH   9  22
ATOM     22  C   UNL     1       1.468  -0.231  22.488  0.00  0.00    +0.119 C 
BRANCH  22  27
ATOM     27  C   UNL     1       2.902  -0.221  22.948  0.00  0.00    -0.033 A 
ATOM     28  C   UNL     1       3.458  -1.363  23.526  0.00  0.00    +0.005 A 
ATOM     29  C   UNL     1       3.675   0.930  22.798  0.00  0.00    +0.005 A 
ATOM     30  C   UNL     1       4.786  -1.353  23.952  0.00  0.00    +0.000 A 
ATOM     31  C   UNL     1       5.002   0.941  23.224  0.00  0.00    +0.000 A 
ATOM     32  C   UNL     1       5.558  -0.202  23.801  0.00  0.00    +0.000 A 
ENDBRANCH  22  27
ENDBRANCH   9  22
ENDBRANCH  19   9
ENDBRANCH  18  19
ENDBRANCH  13  14
ENDBRANCH  10  13
TORSDOF 11
ENDMDL
MODEL 5
REMARK VINA RESULT:      -1.4      1.678      3.302
REMARK  Name = 56775617
REMARK  12 active torsions:
REMARK  status: ('A' for Active; 'I' for Inactive)
REMARK    1  A    between atoms: O_6  and  C_25
REMARK    2  A    between atoms: O_6  and  C_33
REMARK    3  A    between atoms: N_7  and  C_10
REMARK    4  A    between atoms: N_7  and  C_15
REMARK    5  A    between atoms: N_9  and  C_19
REMARK    6  A    between atoms: N_9  and  C_22
REMARK    7  A    between atoms: N_9  and  C_26
REMARK    8  A    between atoms: C_10  and  C_13
REMARK    9  A    between atoms: C_13  and  C_14
REMARK   10  A    between atoms: C_15  and  C_17
REMARK   11  A    between atoms: C_18  and  C_19
REMARK   12  A    between atoms: C_22  and  C_27
REMARK                            x       y       z     vdW  Elec       q    Type
REMARK                         _______ _______ _______ _____ _____    ______ ____
ROOT
ATOM      4  O   UNL     1      -3.077  -2.587  24.695  0.00  0.00    -0.376 OA
ATOM     10  C   UNL     1      -1.822  -0.883  24.976  0.00  0.00    +0.072 C 
ATOM     11  C   UNL     1      -1.660  -2.339  24.551  0.00  0.00    +0.184 C 
ATOM     12  C   UNL     1      -3.286  -1.246  25.195  0.00  0.00    +0.184 C 
ENDROOT
BRANCH  10   7
ATOM      7  N   UNL     1      -1.719  -0.037  23.795  0.00  0.00    -0.302 NA
ATOM     34  H   UNL     1      -1.296   0.877  23.954  0.00  0.00    +0.123 HD
BRANCH   7  15
ATOM     15  C   UNL     1      -0.990  -0.742  22.743  0.00  0.00    +0.117 C 
BRANCH  15  17
ATOM     17  C   UNL     1       0.455  -0.323  22.686  0.00  0.00    -0.033 A 
ATOM     20  C   UNL     1       1.265  -0.750  21.633  0.00  0.00    +0.008 A 
ATOM     21  C   UNL     1       0.984   0.495  23.684  0.00  0.00    +0.008 A 
ATOM     23  C   UNL     1       2.602  -0.360  21.579  0.00  0.00    +0.046 A 
ATOM     24  C   UNL     1       2.321   0.886  23.629  0.00  0.00    +0.046 A 
ATOM     25  C   UNL     1       3.131   0.459  22.577  0.00  0.00    +0.130 A 
BRANCH  25   6
ATOM      6  O   UNL     1       4.437   0.841  22.523  0.00  0.00    -0.406 OA
BRANCH   6  33
ATOM      1  F   UNL     1       5.612   0.975  24.445  0.00  0.00    -0.133 F 
ATOM      2  F   UNL     1       4.864  -0.986  23.832  0.00  0.00    -0.133 F 
ATOM      3  F   UNL     1       6.538  -0.037  22.743  0.00  0.00    -0.133 F 
ATOM     33  C   UNL     1       5.365   0.182  23.376  0.00  0.00    +0.575 C 
ENDBRANCH   6  33
ENDBRANCH  25   6
ENDBRANCH  15  17
ENDBRANCH   7  15
ENDBRANCH  10   7
BRANCH  10  13
ATOM     13  C   UNL     1      -0.999  -0.359  26.161  0.00  0.00    +0.085 C 
BRANCH  13  14
ATOM      5  O   UNL     1       0.081   3.030  26.474  0.00  0.00    -0.358 OA
ATOM      8  N   UNL     1       0.138   1.685  26.819  0.00  0.00    -0.083 NA
ATOM     14  C   UNL     1      -0.785   1.093  26.058  0.00  0.00    +0.086 A 
ATOM     16  C   UNL     1      -1.452   2.005  25.221  0.00  0.00    +0.072 A 
ATOM     18  C   UNL     1      -0.870   3.208  25.522  0.00  0.00    +0.151 A 
BRANCH  18  19
ATOM     19  C   UNL     1      -1.070   4.615  25.027  0.00  0.00    +0.161 C 
BRANCH  19   9
ATOM      9  N   UNL     1      -2.395   5.131  25.371  0.00  0.00    -0.294 NA
ATOM     26  C   UNL     1      -2.871   4.526  26.614  0.00  0.00    +0.105 C 
BRANCH   9  22
ATOM     22  C   UNL     1      -3.339   4.878  24.284  0.00  0.00    +0.119 C 
BRANCH  22  27
ATOM     27  C   UNL     1      -4.260   3.729  24.599  0.00  0.00    -0.033 A 
ATOM     28  C   UNL     1      -4.144   2.529  23.896  0.00  0.00    +0.005 A 
ATOM     29  C   UNL     1      -5.230   3.864  25.592  0.00  0.00    +0.005 A 
ATOM     30  C   UNL     1      -4.998   1.465  24.188  0.00  0.00    +0.000 A 
ATOM     31  C   UNL     1      -6.084   2.801  25.883  0.00  0.00    +0.000 A 
ATOM     32  C   UNL     1      -5.967   1.601  25.181  0.00  0.00    +0.000 A 
ENDBRANCH  22  27
ENDBRANCH   9  22
ENDBRANCH  19   9
ENDBRANCH  18  19
ENDBRANCH  13  14
ENDBRANCH  10  13
TORSDOF 11
ENDMDL
MODEL 6
REMARK VINA RESULT:      -1.0      1.775      4.070
REMARK  Name = 56775617
REMARK  12 active torsions:
REMARK  status: ('A' for Active; 'I' for Inactive)
REMARK    1  A    between atoms: O_6  and  C_25
REMARK    2  A    between atoms: O_6  and  C_33
REMARK    3  A    between atoms: N_7  and  C_10
REMARK    4  A    between atoms: N_7  and  C_15
REMARK    5  A    between atoms: N_9  and  C_19
REMARK    6  A    between atoms: N_9  and  C_22
REMARK    7  A    between atoms: N_9  and  C_26
REMARK    8  A    between atoms: C_10  and  C_13
REMARK    9  A    between atoms: C_13  and  C_14
REMARK   10  A    between atoms: C_15  and  C_17
REMARK   11  A    between atoms: C_18  and  C_19
REMARK   12  A    between atoms: C_22  and  C_27
REMARK                            x       y       z     vdW  Elec       q    Type
REMARK                         _______ _______ _______ _____ _____    ______ ____
ROOT
ATOM      4  O   UNL     1       0.802   2.448  27.987  0.00  0.00    -0.376 OA
ATOM     10  C   UNL     1      -0.346   2.762  26.215  0.00  0.00    +0.072 C 
ATOM     11  C   UNL     1       1.126   2.625  26.589  0.00  0.00    +0.184 C 
ATOM     12  C   UNL     1      -0.602   2.664  27.714  0.00  0.00    +0.184 C 
ENDROOT
BRANCH  10   7
ATOM      7  N   UNL     1      -0.784   1.526  25.581  0.00  0.00    -0.302 NA
ATOM     34  H   UNL     1      -1.729   1.228  25.822  0.00  0.00    +0.123 HD
BRANCH   7  15
ATOM     15  C   UNL     1      -0.660   1.643  24.130  0.00  0.00    +0.117 C 
BRANCH  15  17
ATOM     17  C   UNL     1       0.693   1.192  23.646  0.00  0.00    -0.033 A 
ATOM     20  C   UNL     1       1.718   2.122  23.473  0.00  0.00    +0.008 A 
ATOM     21  C   UNL     1       0.922  -0.156  23.373  0.00  0.00    +0.008 A 
ATOM     23  C   UNL     1       2.971   1.704  23.026  0.00  0.00    +0.046 A 
ATOM     24  C   UNL     1       2.175  -0.575  22.927  0.00  0.00    +0.046 A 
ATOM     25  C   UNL     1       3.200   0.355  22.754  0.00  0.00    +0.130 A 
BRANCH  25   6
ATOM      6  O   UNL     1       4.424  -0.053  22.319  0.00  0.00    -0.406 OA
BRANCH   6  33
ATOM      1  F   UNL     1       5.477   0.830  24.110  0.00  0.00    -0.133 F 
ATOM      2  F   UNL     1       5.217  -1.339  24.037  0.00  0.00    -0.133 F 
ATOM      3  F   UNL     1       6.663  -0.340  22.695  0.00  0.00    -0.133 F 
ATOM     33  C   UNL     1       5.452  -0.242  23.285  0.00  0.00    +0.575 C 
ENDBRANCH   6  33
ENDBRANCH  25   6
ENDBRANCH  15  17
ENDBRANCH   7  15
ENDBRANCH  10   7
BRANCH  10  13
ATOM     13  C   UNL     1      -0.807   4.017  25.461  0.00  0.00    +0.085 C 
BRANCH  13  14
ATOM      5  O   UNL     1      -4.098   4.342  24.112  0.00  0.00    -0.358 OA
ATOM      8  N   UNL     1      -2.734   4.606  24.102  0.00  0.00    -0.083 NA
ATOM     14  C   UNL     1      -2.247   3.958  25.163  0.00  0.00    +0.086 A 
ATOM     16  C   UNL     1      -3.247   3.273  25.875  0.00  0.00    +0.072 A 
ATOM     18  C   UNL     1      -4.392   3.548  25.174  0.00  0.00    +0.151 A 
BRANCH  18  19
ATOM     19  C   UNL     1      -5.836   3.159  25.342  0.00  0.00    +0.161 C 
BRANCH  19   9
ATOM      9  N   UNL     1      -6.066   1.755  25.000  0.00  0.00    -0.294 NA
ATOM     26  C   UNL     1      -6.077   0.930  26.207  0.00  0.00    +0.105 C 
BRANCH   9  22
ATOM     22  C   UNL     1      -5.044   1.283  24.068  0.00  0.00    +0.119 C 
BRANCH  22  27
ATOM     27  C   UNL     1      -4.460  -0.036  24.497  0.00  0.00    -0.033 A 
ATOM     28  C   UNL     1      -4.610  -1.163  23.688  0.00  0.00    +0.005 A 
ATOM     29  C   UNL     1      -3.769  -0.133  25.705  0.00  0.00    +0.005 A 
ATOM     30  C   UNL     1      -4.068  -2.385  24.087  0.00  0.00    +0.000 A 
ATOM     31  C   UNL     1      -3.228  -1.354  26.104  0.00  0.00    +0.000 A 
ATOM     32  C   UNL     1      -3.378  -2.481  25.294  0.00  0.00    +0.000 A 
ENDBRANCH  22  27
ENDBRANCH   9  22
ENDBRANCH  19   9
ENDBRANCH  18  19
ENDBRANCH  13  14
ENDBRANCH  10  13
TORSDOF 11
ENDMDL
MODEL 7
REMARK VINA RESULT:      -0.7      2.872      5.982
REMARK  Name = 56775617
REMARK  12 active torsions:
REMARK  status: ('A' for Active; 'I' for Inactive)
REMARK    1  A    between atoms: O_6  and  C_25
REMARK    2  A    between atoms: O_6  and  C_33
REMARK    3  A    between atoms: N_7  and  C_10
REMARK    4  A    between atoms: N_7  and  C_15
REMARK    5  A    between atoms: N_9  and  C_19
REMARK    6  A    between atoms: N_9  and  C_22
REMARK    7  A    between atoms: N_9  and  C_26
REMARK    8  A    between atoms: C_10  and  C_13
REMARK    9  A    between atoms: C_13  and  C_14
REMARK   10  A    between atoms: C_15  and  C_17
REMARK   11  A    between atoms: C_18  and  C_19
REMARK   12  A    between atoms: C_22  and  C_27
REMARK                            x       y       z     vdW  Elec       q    Type
REMARK                         _______ _______ _______ _____ _____    ______ ____
ROOT
ATOM      4  O   UNL     1      -6.208   1.319  25.865  0.00  0.00    -0.376 OA
ATOM     10  C   UNL     1      -5.080   2.875  24.936  0.00  0.00    +0.072 C 
ATOM     11  C   UNL     1      -6.520   2.647  25.383  0.00  0.00    +0.184 C 
ATOM     12  C   UNL     1      -4.851   1.435  25.379  0.00  0.00    +0.184 C 
ENDROOT
BRANCH  10   7
ATOM      7  N   UNL     1      -4.432   3.768  25.887  0.00  0.00    -0.302 NA
ATOM     34  H   UNL     1      -4.154   3.334  26.767  0.00  0.00    +0.123 HD
BRANCH   7  15
ATOM     15  C   UNL     1      -3.273   4.400  25.261  0.00  0.00    +0.117 C 
BRANCH  15  17
ATOM     17  C   UNL     1      -1.977   3.865  25.811  0.00  0.00    -0.033 A 
ATOM     20  C   UNL     1      -1.976   3.104  26.980  0.00  0.00    +0.008 A 
ATOM     21  C   UNL     1      -0.779   4.127  25.148  0.00  0.00    +0.008 A 
ATOM     23  C   UNL     1      -0.776   2.607  27.487  0.00  0.00    +0.046 A 
ATOM     24  C   UNL     1       0.422   3.628  25.655  0.00  0.00    +0.046 A 
ATOM     25  C   UNL     1       0.423   2.868  26.824  0.00  0.00    +0.130 A 
BRANCH  25   6
ATOM      6  O   UNL     1       1.594   2.381  27.319  0.00  0.00    -0.406 OA
BRANCH   6  33
ATOM      1  F   UNL     1       2.759   1.755  29.148  0.00  0.00    -0.133 F 
ATOM      2  F   UNL     1       2.637   3.888  28.688  0.00  0.00    -0.133 F 
ATOM      3  F   UNL     1       0.866   2.805  29.446  0.00  0.00    -0.133 F 
ATOM     33  C   UNL     1       1.955   2.723  28.652  0.00  0.00    +0.575 C 
ENDBRANCH   6  33
ENDBRANCH  25   6
ENDBRANCH  15  17
ENDBRANCH   7  15
ENDBRANCH  10   7
BRANCH  10  13
ATOM     13  C   UNL     1      -4.807   3.257  23.475  0.00  0.00    +0.085 C 
BRANCH  13  14
ATOM      5  O   UNL     1      -2.037   2.044  21.576  0.00  0.00    -0.358 OA
ATOM      8  N   UNL     1      -3.149   2.860  21.744  0.00  0.00    -0.083 NA
ATOM     14  C   UNL     1      -3.615   2.565  22.959  0.00  0.00    +0.086 A 
ATOM     16  C   UNL     1      -2.847   1.578  23.601  0.00  0.00    +0.072 A 
ATOM     18  C   UNL     1      -1.868   1.284  22.689  0.00  0.00    +0.151 A 
BRANCH  18  19
ATOM     19  C   UNL     1      -0.702   0.332  22.682  0.00  0.00    +0.161 C 
BRANCH  19   9
ATOM      9  N   UNL     1       0.110   0.456  23.893  0.00  0.00    -0.294 NA
ATOM     26  C   UNL     1       1.454   0.927  23.561  0.00  0.00    +0.105 C 
BRANCH   9  22
ATOM     22  C   UNL     1       0.176  -0.824  24.596  0.00  0.00    +0.119 C 
BRANCH  22  27
ATOM     27  C   UNL     1      -1.195  -1.371  24.893  0.00  0.00    -0.033 A 
ATOM     28  C   UNL     1      -1.713  -2.413  24.122  0.00  0.00    +0.005 A 
ATOM     29  C   UNL     1      -1.948  -0.836  25.938  0.00  0.00    +0.005 A 
ATOM     30  C   UNL     1      -2.983  -2.919  24.398  0.00  0.00    +0.000 A 
ATOM     31  C   UNL     1      -3.218  -1.341  26.213  0.00  0.00    +0.000 A 
ATOM     32  C   UNL     1      -3.735  -2.384  25.443  0.00  0.00    +0.000 A 
ENDBRANCH  22  27
ENDBRANCH   9  22
ENDBRANCH  19   9
ENDBRANCH  18  19
ENDBRANCH  13  14
ENDBRANCH  10  13
TORSDOF 11
ENDMDL
MODEL 8
REMARK VINA RESULT:      -0.6      1.745      2.919
REMARK  Name = 56775617
REMARK  12 active torsions:
REMARK  status: ('A' for Active; 'I' for Inactive)
REMARK    1  A    between atoms: O_6  and  C_25
REMARK    2  A    between atoms: O_6  and  C_33
REMARK    3  A    between atoms: N_7  and  C_10
REMARK    4  A    between atoms: N_7  and  C_15
REMARK    5  A    between atoms: N_9  and  C_19
REMARK    6  A    between atoms: N_9  and  C_22
REMARK    7  A    between atoms: N_9  and  C_26
REMARK    8  A    between atoms: C_10  and  C_13
REMARK    9  A    between atoms: C_13  and  C_14
REMARK   10  A    between atoms: C_15  and  C_17
REMARK   11  A    between atoms: C_18  and  C_19
REMARK   12  A    between atoms: C_22  and  C_27
REMARK                            x       y       z     vdW  Elec       q    Type
REMARK                         _______ _______ _______ _____ _____    ______ ____
ROOT
ATOM      4  O   UNL     1      -3.589  -2.832  25.806  0.00  0.00    -0.376 OA
ATOM     10  C   UNL     1      -2.944  -1.214  24.571  0.00  0.00    +0.072 C 
ATOM     11  C   UNL     1      -3.335  -1.426  26.029  0.00  0.00    +0.184 C 
ATOM     12  C   UNL     1      -3.322  -2.680  24.393  0.00  0.00    +0.184 C 
ENDROOT
BRANCH  10   7
ATOM      7  N   UNL     1      -1.495  -1.089  24.489  0.00  0.00    -0.302 NA
ATOM     34  H   UNL     1      -0.970  -1.809  24.984  0.00  0.00    +0.123 HD
BRANCH   7  15
ATOM     15  C   UNL     1      -1.080  -1.052  23.089  0.00  0.00    +0.117 C 
BRANCH  15  17
ATOM     17  C   UNL     1       0.328  -0.542  22.935  0.00  0.00    -0.033 A 
ATOM     20  C   UNL     1       1.058  -0.843  21.785  0.00  0.00    +0.008 A 
ATOM     21  C   UNL     1       0.902   0.234  23.942  0.00  0.00    +0.008 A 
ATOM     23  C   UNL     1       2.362  -0.370  21.642  0.00  0.00    +0.046 A 
ATOM     24  C   UNL     1       2.206   0.709  23.799  0.00  0.00    +0.046 A 
ATOM     25  C   UNL     1       2.936   0.408  22.649  0.00  0.00    +0.130 A 
BRANCH  25   6
ATOM      6  O   UNL     1       4.208   0.871  22.509  0.00  0.00    -0.406 OA
BRANCH   6  33
ATOM      1  F   UNL     1       6.244  -0.096  22.403  0.00  0.00    -0.133 F 
ATOM      2  F   UNL     1       5.748   1.061  24.190  0.00  0.00    -0.133 F 
ATOM      3  F   UNL     1       4.797  -0.902  23.829  0.00  0.00    -0.133 F 
ATOM     33  C   UNL     1       5.242   0.234  23.250  0.00  0.00    +0.575 C 
ENDBRANCH   6  33
ENDBRANCH  25   6
ENDBRANCH  15  17
ENDBRANCH   7  15
ENDBRANCH  10   7
BRANCH  10  13
ATOM     13  C   UNL     1      -3.684  -0.150  23.751  0.00  0.00    +0.085 C 
BRANCH  13  14
ATOM      5  O   UNL     1      -1.936   2.655  22.397  0.00  0.00    -0.358 OA
ATOM      8  N   UNL     1      -2.847   1.610  22.298  0.00  0.00    -0.083 NA
ATOM     14  C   UNL     1      -2.823   1.016  23.494  0.00  0.00    +0.086 A 
ATOM     16  C   UNL     1      -1.924   1.635  24.380  0.00  0.00    +0.072 A 
ATOM     18  C   UNL     1      -1.393   2.659  23.641  0.00  0.00    +0.151 A 
BRANCH  18  19
ATOM     19  C   UNL     1      -0.377   3.732  23.927  0.00  0.00    +0.161 C 
BRANCH  19   9
ATOM      9  N   UNL     1      -0.536   4.290  25.271  0.00  0.00    -0.294 NA
ATOM     26  C   UNL     1      -0.751   3.222  26.245  0.00  0.00    +0.105 C 
BRANCH   9  22
ATOM     22  C   UNL     1      -1.647   5.240  25.299  0.00  0.00    +0.119 C 
BRANCH  22  27
ATOM     27  C   UNL     1      -2.979   4.542  25.376  0.00  0.00    -0.033 A 
ATOM     28  C   UNL     1      -3.808   4.494  24.255  0.00  0.00    +0.005 A 
ATOM     29  C   UNL     1      -3.385   3.943  26.569  0.00  0.00    +0.005 A 
ATOM     30  C   UNL     1      -5.042   3.847  24.327  0.00  0.00    +0.000 A 
ATOM     31  C   UNL     1      -4.618   3.297  26.641  0.00  0.00    +0.000 A 
ATOM     32  C   UNL     1      -5.447   3.249  25.519  0.00  0.00    +0.000 A 
ENDBRANCH  22  27
ENDBRANCH   9  22
ENDBRANCH  19   9
ENDBRANCH  18  19
ENDBRANCH  13  14
ENDBRANCH  10  13
TORSDOF 11
ENDMDL
