MODEL 1
REMARK VINA RESULT:       0.4      0.000      0.000
REMARK  Name = 25338757
REMARK  5 active torsions:
REMARK  status: ('A' for Active; 'I' for Inactive)
REMARK    1  A    between atoms: N_3  and  C_14
REMARK    2  A    between atoms: N_4  and  C_9
REMARK    3  A    between atoms: C_10  and  C_13
REMARK    4  A    between atoms: C_15  and  C_17
REMARK    5  A    between atoms: C_16  and  C_18
REMARK                            x       y       z     vdW  Elec       q    Type
REMARK                         _______ _______ _______ _____ _____    ______ ____
ROOT
ATOM      3  N   UNL     1      -3.437  -1.822  24.068  0.00  0.00    -0.293 NA
ATOM      9  C   UNL     1      -1.469  -2.445  25.150  0.00  0.00    +0.089 C 
ATOM     10  C   UNL     1      -3.472  -1.058  25.329  0.00  0.00    +0.147 C 
ATOM     11  C   UNL     1      -2.107  -1.338  25.990  0.00  0.00    +0.052 C 
ATOM     12  C   UNL     1      -2.626  -3.013  24.342  0.00  0.00    +0.107 C 
ATOM     14  C   UNL     1      -4.762  -2.170  23.571  0.00  0.00    +0.105 C 
ENDROOT
BRANCH  10  13
ATOM      1  O   UNL     1      -5.030   0.811  25.102  0.00  0.00    -0.336 OA
ATOM      5  N   UNL     1      -2.872   1.400  24.982  0.00  0.00    -0.190 NA
ATOM      6  N   UNL     1      -5.015   2.198  24.911  0.00  0.00    -0.056 NA
ATOM     13  C   UNL     1      -3.729   0.421  25.133  0.00  0.00    +0.245 A 
ATOM     16  C   UNL     1      -3.707   2.470  24.850  0.00  0.00    +0.202 A 
BRANCH  16  18
ATOM     18  C   UNL     1      -3.205   3.800  24.659  0.00  0.00    +0.022 A 
ATOM     20  C   UNL     1      -2.030   4.198  25.298  0.00  0.00    +0.012 A 
ATOM     21  C   UNL     1      -3.889   4.695  23.838  0.00  0.00    +0.012 A 
ATOM     22  C   UNL     1      -1.540   5.491  25.114  0.00  0.00    +0.001 A 
ATOM     23  C   UNL     1      -3.400   5.988  23.654  0.00  0.00    +0.001 A 
ATOM     25  C   UNL     1      -2.225   6.386  24.292  0.00  0.00    +0.000 A 
ENDBRANCH  16  18
ENDBRANCH  10  13
BRANCH   9   4
ATOM      2  O   UNL     1      -0.383   0.213  25.182  0.00  0.00    -0.268 OA
ATOM      4  N   UNL     1      -0.431  -1.927  24.290  0.00  0.00    -0.306 N 
ATOM     15  C   UNL     1       0.029  -0.622  24.382  0.00  0.00    +0.264 C 
ATOM     27  H   UNL     1      -0.064  -2.531  23.559  0.00  0.00    +0.149 HD
BRANCH  15  17
ATOM      7  N   UNL     1       2.050   0.586  23.859  0.00  0.00    -0.247 NA
ATOM      8  N   UNL     1       2.010  -0.349  21.215  0.00  0.00    -0.259 NA
ATOM     17  C   UNL     1       1.082  -0.236  23.407  0.00  0.00    +0.143 A 
ATOM     19  C   UNL     1       1.062  -0.695  22.109  0.00  0.00    +0.143 A 
ATOM     24  C   UNL     1       2.998   0.932  22.966  0.00  0.00    +0.131 A 
ATOM     26  C   UNL     1       2.978   0.473  21.667  0.00  0.00    +0.130 A 
ENDBRANCH  15  17
ENDBRANCH   9   4
TORSDOF 4
ENDMDL
MODEL 2
REMARK VINA RESULT:       1.0      1.797      6.523
REMARK  Name = 25338757
REMARK  5 active torsions:
REMARK  status: ('A' for Active; 'I' for Inactive)
REMARK    1  A    between atoms: N_3  and  C_14
REMARK    2  A    between atoms: N_4  and  C_9
REMARK    3  A    between atoms: C_10  and  C_13
REMARK    4  A    between atoms: C_15  and  C_17
REMARK    5  A    between atoms: C_16  and  C_18
REMARK                            x       y       z     vdW  Elec       q    Type
REMARK                         _______ _______ _______ _____ _____    ______ ____
ROOT
ATOM      3  N   UNL     1      -2.158  -1.852  25.242  0.00  0.00    -0.293 NA
ATOM      9  C   UNL     1      -4.103  -1.032  24.254  0.00  0.00    +0.089 C 
ATOM     10  C   UNL     1      -1.792  -1.694  23.822  0.00  0.00    +0.147 C 
ATOM     11  C   UNL     1      -3.016  -1.009  23.180  0.00  0.00    +0.052 C 
ATOM     12  C   UNL     1      -3.610  -2.059  25.262  0.00  0.00    +0.107 C 
ATOM     14  C   UNL     1      -1.445  -2.939  25.901  0.00  0.00    +0.105 C 
ENDROOT
BRANCH  10  13
ATOM      1  O   UNL     1      -0.651   0.407  23.316  0.00  0.00    -0.336 OA
ATOM      5  N   UNL     1       0.730  -1.322  23.669  0.00  0.00    -0.190 NA
ATOM      6  N   UNL     1       0.648   0.909  23.167  0.00  0.00    -0.056 NA
ATOM     13  C   UNL     1      -0.512  -0.912  23.612  0.00  0.00    +0.245 A 
ATOM     16  C   UNL     1       1.406  -0.170  23.390  0.00  0.00    +0.202 A 
BRANCH  16  18
ATOM     18  C   UNL     1       2.839  -0.130  23.343  0.00  0.00    +0.022 A 
ATOM     20  C   UNL     1       3.581  -1.223  23.791  0.00  0.00    +0.012 A 
ATOM     21  C   UNL     1       3.490   1.001  22.851  0.00  0.00    +0.012 A 
ATOM     22  C   UNL     1       4.975  -1.185  23.745  0.00  0.00    +0.001 A 
ATOM     23  C   UNL     1       4.883   1.039  22.806  0.00  0.00    +0.001 A 
ATOM     25  C   UNL     1       5.626  -0.054  23.253  0.00  0.00    +0.000 A 
ENDBRANCH  16  18
ENDBRANCH  10  13
BRANCH   9   4
ATOM      2  O   UNL     1      -3.381   1.506  23.120  0.00  0.00    -0.268 OA
ATOM      4  N   UNL     1      -4.273   0.265  24.866  0.00  0.00    -0.306 N 
ATOM     15  C   UNL     1      -3.891   1.440  24.235  0.00  0.00    +0.264 C 
ATOM     27  H   UNL     1      -4.639   0.308  25.813  0.00  0.00    +0.149 HD
BRANCH  15  17
ATOM      7  N   UNL     1      -3.004   3.335  25.436  0.00  0.00    -0.247 NA
ATOM      8  N   UNL     1      -5.583   4.292  25.978  0.00  0.00    -0.259 NA
ATOM     17  C   UNL     1      -4.108   2.691  25.009  0.00  0.00    +0.143 A 
ATOM     19  C   UNL     1      -5.375   3.160  25.275  0.00  0.00    +0.143 A 
ATOM     24  C   UNL     1      -3.212   4.465  26.138  0.00  0.00    +0.131 A 
ATOM     26  C   UNL     1      -4.479   4.935  26.404  0.00  0.00    +0.130 A 
ENDBRANCH  15  17
ENDBRANCH   9   4
TORSDOF 4
ENDMDL
MODEL 3
REMARK VINA RESULT:       1.9      3.222      6.636
REMARK  Name = 25338757
REMARK  5 active torsions:
REMARK  status: ('A' for Active; 'I' for Inactive)
REMARK    1  A    between atoms: N_3  and  C_14
REMARK    2  A    between atoms: N_4  and  C_9
REMARK    3  A    between atoms: C_10  and  C_13
REMARK    4  A    between atoms: C_15  and  C_17
REMARK    5  A    between atoms: C_16  and  C_18
REMARK                            x       y       z     vdW  Elec       q    Type
REMARK                         _______ _______ _______ _____ _____    ______ ____
ROOT
ATOM      3  N   UNL     1      -2.029   0.263  24.592  0.00  0.00    -0.293 NA
ATOM      9  C   UNL     1      -2.187   2.479  25.298  0.00  0.00    +0.089 C 
ATOM     10  C   UNL     1      -1.409   1.027  23.494  0.00  0.00    +0.147 C 
ATOM     11  C   UNL     1      -1.366   2.480  24.009  0.00  0.00    +0.052 C 
ATOM     12  C   UNL     1      -2.977   1.180  25.235  0.00  0.00    +0.107 C 
ATOM     14  C   UNL     1      -2.680  -0.962  24.143  0.00  0.00    +0.105 C 
ENDROOT
BRANCH  10  13
ATOM      1  O   UNL     1       0.036  -0.137  21.904  0.00  0.00    -0.336 OA
ATOM      5  N   UNL     1       1.095   0.593  23.738  0.00  0.00    -0.190 NA
ATOM      6  N   UNL     1       1.376  -0.517  21.757  0.00  0.00    -0.056 NA
ATOM     13  C   UNL     1      -0.042   0.511  23.096  0.00  0.00    +0.245 A 
ATOM     16  C   UNL     1       1.937  -0.051  22.878  0.00  0.00    +0.202 A 
BRANCH  16  18
ATOM     18  C   UNL     1       3.332  -0.211  23.167  0.00  0.00    +0.022 A 
ATOM     20  C   UNL     1       3.805  -1.428  23.662  0.00  0.00    +0.012 A 
ATOM     21  C   UNL     1       4.216   0.846  22.957  0.00  0.00    +0.012 A 
ATOM     22  C   UNL     1       5.162  -1.585  23.944  0.00  0.00    +0.001 A 
ATOM     23  C   UNL     1       5.572   0.689  23.239  0.00  0.00    +0.001 A 
ATOM     25  C   UNL     1       6.046  -0.527  23.733  0.00  0.00    +0.000 A 
ENDBRANCH  16  18
ENDBRANCH  10  13
BRANCH   9   4
ATOM      2  O   UNL     1       0.657   2.872  25.342  0.00  0.00    -0.268 OA
ATOM      4  N   UNL     1      -1.341   2.523  26.467  0.00  0.00    -0.306 N 
ATOM     15  C   UNL     1       0.029   2.719  26.387  0.00  0.00    +0.264 C 
ATOM     27  H   UNL     1      -1.764   2.352  27.376  0.00  0.00    +0.149 HD
BRANCH  15  17
ATOM      7  N   UNL     1       2.089   2.942  27.622  0.00  0.00    -0.247 NA
ATOM      8  N   UNL     1       0.770   2.465  30.049  0.00  0.00    -0.259 NA
ATOM     17  C   UNL     1       0.763   2.711  27.679  0.00  0.00    +0.143 A 
ATOM     19  C   UNL     1       0.114   2.477  28.871  0.00  0.00    +0.143 A 
ATOM     24  C   UNL     1       2.744   2.931  28.799  0.00  0.00    +0.131 A 
ATOM     26  C   UNL     1       2.096   2.696  29.992  0.00  0.00    +0.130 A 
ENDBRANCH  15  17
ENDBRANCH   9   4
TORSDOF 4
ENDMDL
MODEL 4
REMARK VINA RESULT:       2.2      1.617      5.277
REMARK  Name = 25338757
REMARK  5 active torsions:
REMARK  status: ('A' for Active; 'I' for Inactive)
REMARK    1  A    between atoms: N_3  and  C_14
REMARK    2  A    between atoms: N_4  and  C_9
REMARK    3  A    between atoms: C_10  and  C_13
REMARK    4  A    between atoms: C_15  and  C_17
REMARK    5  A    between atoms: C_16  and  C_18
REMARK                            x       y       z     vdW  Elec       q    Type
REMARK                         _______ _______ _______ _____ _____    ______ ____
ROOT
ATOM      3  N   UNL     1      -2.037   3.871  25.895  0.00  0.00    -0.293 NA
ATOM      9  C   UNL     1      -0.929   4.543  23.958  0.00  0.00    +0.089 C 
ATOM     10  C   UNL     1      -3.041   3.682  24.832  0.00  0.00    +0.147 C 
ATOM     11  C   UNL     1      -2.279   3.974  23.524  0.00  0.00    +0.052 C 
ATOM     12  C   UNL     1      -1.138   4.926  25.416  0.00  0.00    +0.107 C 
ATOM     14  C   UNL     1      -2.625   4.205  27.187  0.00  0.00    +0.105 C 
ENDROOT
BRANCH  10  13
ATOM      1  O   UNL     1      -5.018   2.260  25.048  0.00  0.00    -0.336 OA
ATOM      5  N   UNL     1      -3.118   1.134  24.673  0.00  0.00    -0.190 NA
ATOM      6  N   UNL     1      -5.369   0.905  25.013  0.00  0.00    -0.056 NA
ATOM     13  C   UNL     1      -3.676   2.306  24.839  0.00  0.00    +0.245 A 
ATOM     16  C   UNL     1      -4.195   0.305  24.788  0.00  0.00    +0.202 A 
BRANCH  16  18
ATOM     18  C   UNL     1      -4.067  -1.119  24.672  0.00  0.00    +0.022 A 
ATOM     20  C   UNL     1      -3.390  -1.839  25.657  0.00  0.00    +0.012 A 
ATOM     21  C   UNL     1      -4.616  -1.783  23.576  0.00  0.00    +0.012 A 
ATOM     22  C   UNL     1      -3.264  -3.224  25.546  0.00  0.00    +0.001 A 
ATOM     23  C   UNL     1      -4.490  -3.168  23.465  0.00  0.00    +0.001 A 
ATOM     25  C   UNL     1      -3.814  -3.888  24.449  0.00  0.00    +0.000 A 
ENDBRANCH  16  18
ENDBRANCH  10  13
BRANCH   9   4
ATOM      2  O   UNL     1      -1.186   1.871  22.938  0.00  0.00    -0.268 OA
ATOM      4  N   UNL     1       0.128   3.568  23.818  0.00  0.00    -0.306 N 
ATOM     15  C   UNL     1      -0.096   2.297  23.311  0.00  0.00    +0.264 C 
ATOM     27  H   UNL     1       1.056   3.812  24.151  0.00  0.00    +0.149 HD
BRANCH  15  17
ATOM      7  N   UNL     1       2.295   2.003  23.206  0.00  0.00    -0.247 NA
ATOM      8  N   UNL     1       2.025  -0.788  23.199  0.00  0.00    -0.259 NA
ATOM     17  C   UNL     1       1.090   1.403  23.256  0.00  0.00    +0.143 A 
ATOM     19  C   UNL     1       0.956   0.032  23.251  0.00  0.00    +0.143 A 
ATOM     24  C   UNL     1       3.363   1.183  23.153  0.00  0.00    +0.131 A 
ATOM     26  C   UNL     1       3.230  -0.188  23.149  0.00  0.00    +0.130 A 
ENDBRANCH  15  17
ENDBRANCH   9   4
TORSDOF 4
ENDMDL
MODEL 5
REMARK VINA RESULT:       2.6      1.996      6.072
REMARK  Name = 25338757
REMARK  5 active torsions:
REMARK  status: ('A' for Active; 'I' for Inactive)
REMARK    1  A    between atoms: N_3  and  C_14
REMARK    2  A    between atoms: N_4  and  C_9
REMARK    3  A    between atoms: C_10  and  C_13
REMARK    4  A    between atoms: C_15  and  C_17
REMARK    5  A    between atoms: C_16  and  C_18
REMARK                            x       y       z     vdW  Elec       q    Type
REMARK                         _______ _______ _______ _____ _____    ______ ____
ROOT
ATOM      3  N   UNL     1      -3.929   3.408  23.906  0.00  0.00    -0.293 NA
ATOM      9  C   UNL     1      -4.947   2.279  25.673  0.00  0.00    +0.089 C 
ATOM     10  C   UNL     1      -3.001   3.611  25.034  0.00  0.00    +0.147 C 
ATOM     11  C   UNL     1      -3.579   2.745  26.171  0.00  0.00    +0.052 C 
ATOM     12  C   UNL     1      -5.252   3.205  24.506  0.00  0.00    +0.107 C 
ATOM     14  C   UNL     1      -3.927   4.513  22.955  0.00  0.00    +0.105 C 
ENDROOT
BRANCH  10  13
ATOM      1  O   UNL     1      -0.615   4.128  25.134  0.00  0.00    -0.336 OA
ATOM      5  N   UNL     1      -1.093   2.222  24.059  0.00  0.00    -0.190 NA
ATOM      6  N   UNL     1       0.612   3.597  24.718  0.00  0.00    -0.056 NA
ATOM     13  C   UNL     1      -1.565   3.257  24.706  0.00  0.00    +0.245 A 
ATOM     16  C   UNL     1       0.248   2.474  24.092  0.00  0.00    +0.202 A 
BRANCH  16  18
ATOM     18  C   UNL     1       1.197   1.583  23.490  0.00  0.00    +0.022 A 
ATOM     20  C   UNL     1       0.779   0.341  23.009  0.00  0.00    +0.012 A 
ATOM     21  C   UNL     1       2.537   1.955  23.388  0.00  0.00    +0.012 A 
ATOM     22  C   UNL     1       1.701  -0.526  22.424  0.00  0.00    +0.001 A 
ATOM     23  C   UNL     1       3.459   1.087  22.803  0.00  0.00    +0.001 A 
ATOM     25  C   UNL     1       3.042  -0.154  22.321  0.00  0.00    +0.000 A 
ENDBRANCH  16  18
ENDBRANCH  10  13
BRANCH   9   4
ATOM      2  O   UNL     1      -2.697   0.500  25.792  0.00  0.00    -0.268 OA
ATOM      4  N   UNL     1      -4.917   0.898  25.254  0.00  0.00    -0.306 N 
ATOM     15  C   UNL     1      -3.777   0.115  25.352  0.00  0.00    +0.264 C 
ATOM     27  H   UNL     1      -5.751   0.505  24.826  0.00  0.00    +0.149 HD
BRANCH  15  17
ATOM      7  N   UNL     1      -4.648  -1.459  23.745  0.00  0.00    -0.247 NA
ATOM      8  N   UNL     1      -3.396  -3.599  25.054  0.00  0.00    -0.259 NA
ATOM     17  C   UNL     1      -3.902  -1.279  24.853  0.00  0.00    +0.143 A 
ATOM     19  C   UNL     1      -3.288  -2.330  25.496  0.00  0.00    +0.143 A 
ATOM     24  C   UNL     1      -4.758  -2.727  23.304  0.00  0.00    +0.131 A 
ATOM     26  C   UNL     1      -4.142  -3.778  23.947  0.00  0.00    +0.130 A 
ENDBRANCH  15  17
ENDBRANCH   9   4
TORSDOF 4
ENDMDL
MODEL 6
REMARK VINA RESULT:       3.3      2.989      6.290
REMARK  Name = 25338757
REMARK  5 active torsions:
REMARK  status: ('A' for Active; 'I' for Inactive)
REMARK    1  A    between atoms: N_3  and  C_14
REMARK    2  A    between atoms: N_4  and  C_9
REMARK    3  A    between atoms: C_10  and  C_13
REMARK    4  A    between atoms: C_15  and  C_17
REMARK    5  A    between atoms: C_16  and  C_18
REMARK                            x       y       z     vdW  Elec       q    Type
REMARK                         _______ _______ _______ _____ _____    ______ ____
ROOT
ATOM      3  N   UNL     1      -2.890   4.632  25.120  0.00  0.00    -0.293 NA
ATOM      9  C   UNL     1      -0.599   4.730  24.705  0.00  0.00    +0.089 C 
ATOM     10  C   UNL     1      -2.673   3.594  24.095  0.00  0.00    +0.147 C 
ATOM     11  C   UNL     1      -1.143   3.538  23.919  0.00  0.00    +0.052 C 
ATOM     12  C   UNL     1      -1.817   5.613  24.931  0.00  0.00    +0.107 C 
ATOM     14  C   UNL     1      -4.209   5.248  25.043  0.00  0.00    +0.105 C 
ENDROOT
BRANCH  10  13
ATOM      1  O   UNL     1      -4.401   2.271  25.209  0.00  0.00    -0.336 OA
ATOM      5  N   UNL     1      -2.839   1.046  24.170  0.00  0.00    -0.190 NA
ATOM      6  N   UNL     1      -4.751   0.932  25.421  0.00  0.00    -0.056 NA
ATOM     13  C   UNL     1      -3.265   2.249  24.464  0.00  0.00    +0.245 A 
ATOM     16  C   UNL     1      -3.783   0.271  24.778  0.00  0.00    +0.202 A 
BRANCH  16  18
ATOM     18  C   UNL     1      -3.731  -1.161  24.725  0.00  0.00    +0.022 A 
ATOM     20  C   UNL     1      -3.063  -1.871  25.724  0.00  0.00    +0.012 A 
ATOM     21  C   UNL     1      -4.343  -1.844  23.675  0.00  0.00    +0.012 A 
ATOM     22  C   UNL     1      -3.011  -3.264  25.673  0.00  0.00    +0.001 A 
ATOM     23  C   UNL     1      -4.291  -3.237  23.625  0.00  0.00    +0.001 A 
ATOM     25  C   UNL     1      -3.625  -3.947  24.623  0.00  0.00    +0.000 A 
ENDBRANCH  16  18
ENDBRANCH  10  13
BRANCH   9   4
ATOM      2  O   UNL     1       0.277   2.085  25.396  0.00  0.00    -0.268 OA
ATOM      4  N   UNL     1      -0.010   4.317  25.957  0.00  0.00    -0.306 N 
ATOM     15  C   UNL     1       0.383   3.009  26.198  0.00  0.00    +0.264 C 
ATOM     27  H   UNL     1       0.069   5.003  26.702  0.00  0.00    +0.149 HD
BRANCH  15  17
ATOM      7  N   UNL     1       2.263   2.982  27.709  0.00  0.00    -0.247 NA
ATOM      8  N   UNL     1       0.663   2.014  29.798  0.00  0.00    -0.259 NA
ATOM     17  C   UNL     1       0.948   2.740  27.546  0.00  0.00    +0.143 A 
ATOM     19  C   UNL     1       0.161   2.264  28.571  0.00  0.00    +0.143 A 
ATOM     24  C   UNL     1       2.764   2.731  28.934  0.00  0.00    +0.131 A 
ATOM     26  C   UNL     1       1.978   2.256  29.960  0.00  0.00    +0.130 A 
ENDBRANCH  15  17
ENDBRANCH   9   4
TORSDOF 4
ENDMDL
