MODEL 1
REMARK VINA RESULT:      -2.6      0.000      0.000
REMARK  Name = 40781553
REMARK  8 active torsions:
REMARK  status: ('A' for Active; 'I' for Inactive)
REMARK    1  A    between atoms: S_2  and  N_11
REMARK    2  A    between atoms: S_2  and  C_23
REMARK    3  A    between atoms: O_4  and  C_13
REMARK    4  A    between atoms: O_5  and  C_14
REMARK    5  A    between atoms: N_11  and  C_17
REMARK    6  A    between atoms: C_12  and  C_16
REMARK    7  A    between atoms: C_15  and  C_17
REMARK    8  A    between atoms: C_16  and  C_18
REMARK                            x       y       z     vdW  Elec       q    Type
REMARK                         _______ _______ _______ _____ _____    ______ ____
ROOT
ATOM      3  O   UNL     1      -2.205  -0.651  25.270  0.00  0.00    -0.366 OA
ATOM     12  C   UNL     1      -3.493  -0.699  24.631  0.00  0.00    +0.158 C 
ATOM     13  C   UNL     1      -3.509  -1.994  23.837  0.00  0.00    +0.175 C 
ATOM     14  C   UNL     1      -2.714  -2.913  24.741  0.00  0.00    +0.175 C 
ATOM     15  C   UNL     1      -1.633  -1.978  25.272  0.00  0.00    +0.165 C 
ENDROOT
BRANCH  13   4
ATOM      4  O   UNL     1      -4.823  -2.450  23.593  0.00  0.00    -0.387 OA
ATOM     29  H   UNL     1      -4.881  -2.679  22.650  0.00  0.00    +0.210 HD
ENDBRANCH  13   4
BRANCH  14   5
ATOM      5  O   UNL     1      -3.513  -3.338  25.843  0.00  0.00    -0.387 OA
ATOM     30  H   UNL     1      -2.908  -3.654  26.536  0.00  0.00    +0.210 HD
ENDBRANCH  14   5
BRANCH  12  16
ATOM     16  C   UNL     1      -3.682   0.537  23.769  0.00  0.00    +0.130 C 
BRANCH  16  18
ATOM      6  O   UNL     1      -2.007   4.869  25.749  0.00  0.00    -0.377 OA
ATOM      7  O   UNL     1      -5.491   1.437  25.011  0.00  0.00    -0.276 OA
ATOM     10  N   UNL     1      -3.638   2.809  24.731  0.00  0.00    -0.297 N 
ATOM     18  C   UNL     1      -4.359   1.629  24.559  0.00  0.00    +0.218 C 
ATOM     19  C   UNL     1      -4.218   3.917  25.489  0.00  0.00    +0.136 C 
ATOM     20  C   UNL     1      -2.348   3.118  24.105  0.00  0.00    +0.136 C 
ATOM     21  C   UNL     1      -3.194   4.495  26.454  0.00  0.00    +0.179 C 
ATOM     22  C   UNL     1      -1.400   3.735  25.125  0.00  0.00    +0.179 C 
ENDBRANCH  16  18
ENDBRANCH  12  16
BRANCH  15  17
ATOM     17  C   UNL     1      -0.387  -1.949  24.397  0.00  0.00    +0.140 C 
BRANCH  17  11
ATOM     11  N   UNL     1       0.318  -0.710  24.542  0.00  0.00    -0.187 NA
ATOM     31  H   UNL     1       0.179  -0.205  25.425  0.00  0.00    +0.148 HD
BRANCH  11   2
ATOM      2  S   UNL     1       0.791   0.217  23.168  0.00  0.00    +0.058 S 
ATOM      8  O   UNL     1       0.470   1.610  23.418  0.00  0.00    -0.153 OA
ATOM      9  O   UNL     1       0.343  -0.428  21.949  0.00  0.00    -0.153 OA
BRANCH   2  23
ATOM      1 CL   UNL     1       7.037  -0.393  23.371  0.00  0.00    -0.084 Cl
ATOM     23  C   UNL     1       2.550   0.045  23.226  0.00  0.00    +0.105 A 
ATOM     24  C   UNL     1       3.367   1.103  22.826  0.00  0.00    +0.030 A 
ATOM     25  C   UNL     1       3.120  -1.147  23.671  0.00  0.00    +0.030 A 
ATOM     26  C   UNL     1       4.755   0.967  22.870  0.00  0.00    +0.022 A 
ATOM     27  C   UNL     1       4.508  -1.283  23.716  0.00  0.00    +0.022 A 
ATOM     28  C   UNL     1       5.326  -0.226  23.315  0.00  0.00    +0.041 A 
ENDBRANCH   2  23
ENDBRANCH  11   2
ENDBRANCH  17  11
ENDBRANCH  15  17
TORSDOF 8
ENDMDL
MODEL 2
REMARK VINA RESULT:      -2.4      1.432      4.250
REMARK  Name = 40781553
REMARK  8 active torsions:
REMARK  status: ('A' for Active; 'I' for Inactive)
REMARK    1  A    between atoms: S_2  and  N_11
REMARK    2  A    between atoms: S_2  and  C_23
REMARK    3  A    between atoms: O_4  and  C_13
REMARK    4  A    between atoms: O_5  and  C_14
REMARK    5  A    between atoms: N_11  and  C_17
REMARK    6  A    between atoms: C_12  and  C_16
REMARK    7  A    between atoms: C_15  and  C_17
REMARK    8  A    between atoms: C_16  and  C_18
REMARK                            x       y       z     vdW  Elec       q    Type
REMARK                         _______ _______ _______ _____ _____    ______ ____
ROOT
ATOM      3  O   UNL     1      -1.929   2.863  23.440  0.00  0.00    -0.366 OA
ATOM     12  C   UNL     1      -3.183   3.147  24.085  0.00  0.00    +0.158 C 
ATOM     13  C   UNL     1      -2.872   3.226  25.570  0.00  0.00    +0.175 C 
ATOM     14  C   UNL     1      -1.494   3.854  25.558  0.00  0.00    +0.175 C 
ATOM     15  C   UNL     1      -0.851   3.185  24.347  0.00  0.00    +0.165 C 
ENDROOT
BRANCH  13   4
ATOM      4  O   UNL     1      -3.829   3.991  26.272  0.00  0.00    -0.387 OA
ATOM     29  H   UNL     1      -3.576   3.984  27.210  0.00  0.00    +0.210 HD
ENDBRANCH  13   4
BRANCH  14   5
ATOM      5  O   UNL     1      -1.588   5.252  25.292  0.00  0.00    -0.387 OA
ATOM     30  H   UNL     1      -1.465   5.718  26.137  0.00  0.00    +0.210 HD
ENDBRANCH  14   5
BRANCH  12  16
ATOM     16  C   UNL     1      -4.192   2.067  23.738  0.00  0.00    +0.130 C 
BRANCH  16  18
ATOM      6  O   UNL     1      -2.438  -2.556  24.764  0.00  0.00    -0.377 OA
ATOM      7  O   UNL     1      -5.265   1.383  25.739  0.00  0.00    -0.276 OA
ATOM     10  N   UNL     1      -3.545   0.027  24.968  0.00  0.00    -0.297 N 
ATOM     18  C   UNL     1      -4.388   1.135  24.908  0.00  0.00    +0.218 C 
ATOM     19  C   UNL     1      -3.672  -0.930  26.067  0.00  0.00    +0.136 C 
ATOM     20  C   UNL     1      -2.413  -0.231  24.072  0.00  0.00    +0.136 C 
ATOM     21  C   UNL     1      -3.624  -2.355  25.538  0.00  0.00    +0.179 C 
ATOM     22  C   UNL     1      -2.413  -1.688  23.628  0.00  0.00    +0.179 C 
ENDBRANCH  16  18
ENDBRANCH  12  16
BRANCH  15  17
ATOM     17  C   UNL     1      -0.132   1.888  24.694  0.00  0.00    +0.140 C 
BRANCH  17  11
ATOM     11  N   UNL     1       0.846   1.557  23.702  0.00  0.00    -0.187 NA
ATOM     31  H   UNL     1       1.071   2.290  23.018  0.00  0.00    +0.148 HD
BRANCH  11   2
ATOM      2  S   UNL     1       1.122  -0.076  23.227  0.00  0.00    +0.058 S 
ATOM      8  O   UNL     1       0.700  -0.234  21.848  0.00  0.00    -0.153 OA
ATOM      9  O   UNL     1       0.636  -0.984  24.247  0.00  0.00    -0.153 OA
BRANCH   2  23
ATOM      1 CL   UNL     1       7.394  -0.349  23.374  0.00  0.00    -0.084 Cl
ATOM     23  C   UNL     1       2.888  -0.153  23.268  0.00  0.00    +0.105 A 
ATOM     24  C   UNL     1       3.525  -1.297  23.750  0.00  0.00    +0.030 A 
ATOM     25  C   UNL     1       3.644   0.929  22.818  0.00  0.00    +0.030 A 
ATOM     26  C   UNL     1       4.918  -1.357  23.783  0.00  0.00    +0.022 A 
ATOM     27  C   UNL     1       5.037   0.869  22.852  0.00  0.00    +0.022 A 
ATOM     28  C   UNL     1       5.675  -0.274  23.334  0.00  0.00    +0.041 A 
ENDBRANCH   2  23
ENDBRANCH  11   2
ENDBRANCH  17  11
ENDBRANCH  15  17
TORSDOF 8
ENDMDL
MODEL 3
REMARK VINA RESULT:      -2.2      2.890      6.805
REMARK  Name = 40781553
REMARK  8 active torsions:
REMARK  status: ('A' for Active; 'I' for Inactive)
REMARK    1  A    between atoms: S_2  and  N_11
REMARK    2  A    between atoms: S_2  and  C_23
REMARK    3  A    between atoms: O_4  and  C_13
REMARK    4  A    between atoms: O_5  and  C_14
REMARK    5  A    between atoms: N_11  and  C_17
REMARK    6  A    between atoms: C_12  and  C_16
REMARK    7  A    between atoms: C_15  and  C_17
REMARK    8  A    between atoms: C_16  and  C_18
REMARK                            x       y       z     vdW  Elec       q    Type
REMARK                         _______ _______ _______ _____ _____    ______ ____
ROOT
ATOM      3  O   UNL     1      -1.292  -1.355  24.257  0.00  0.00    -0.366 OA
ATOM     12  C   UNL     1      -0.164  -0.472  24.389  0.00  0.00    +0.158 C 
ATOM     13  C   UNL     1      -0.672   0.728  25.170  0.00  0.00    +0.175 C 
ATOM     14  C   UNL     1      -1.655   0.078  26.120  0.00  0.00    +0.175 C 
ATOM     15  C   UNL     1      -2.289  -0.992  25.238  0.00  0.00    +0.165 C 
ENDROOT
BRANCH  13   4
ATOM      4  O   UNL     1       0.373   1.413  25.828  0.00  0.00    -0.387 OA
ATOM     29  H   UNL     1       1.128   0.804  25.888  0.00  0.00    +0.210 HD
ENDBRANCH  13   4
BRANCH  14   5
ATOM      5  O   UNL     1      -0.960  -0.578  27.180  0.00  0.00    -0.387 OA
ATOM     30  H   UNL     1      -0.867   0.062  27.906  0.00  0.00    +0.210 HD
ENDBRANCH  14   5
BRANCH  12  16
ATOM     16  C   UNL     1       0.369  -0.114  23.014  0.00  0.00    +0.130 C 
BRANCH  16  18
ATOM      6  O   UNL     1       5.352  -0.723  23.557  0.00  0.00    -0.377 OA
ATOM      7  O   UNL     1       1.269   2.058  23.319  0.00  0.00    -0.276 OA
ATOM     10  N   UNL     1       2.796   0.334  23.020  0.00  0.00    -0.297 N 
ATOM     18  C   UNL     1       1.511   0.863  23.131  0.00  0.00    +0.218 C 
ATOM     19  C   UNL     1       3.961   1.212  23.127  0.00  0.00    +0.136 C 
ATOM     20  C   UNL     1       3.118  -1.053  22.672  0.00  0.00    +0.136 C 
ATOM     21  C   UNL     1       5.017   0.586  24.027  0.00  0.00    +0.179 C 
ATOM     22  C   UNL     1       4.213  -1.587  23.587  0.00  0.00    +0.179 C 
ENDBRANCH  16  18
ENDBRANCH  12  16
BRANCH  15  17
ATOM     17  C   UNL     1      -3.518  -0.494  24.489  0.00  0.00    +0.140 C 
BRANCH  17  11
ATOM     11  N   UNL     1      -4.558  -0.111  25.396  0.00  0.00    -0.187 NA
ATOM     31  H   UNL     1      -5.064  -0.874  25.862  0.00  0.00    +0.148 HD
BRANCH  11   2
ATOM      2  S   UNL     1      -5.379   1.395  25.233  0.00  0.00    +0.058 S 
ATOM      8  O   UNL     1      -6.069   1.683  26.477  0.00  0.00    -0.153 OA
ATOM      9  O   UNL     1      -6.097   1.441  23.974  0.00  0.00    -0.153 OA
BRANCH   2  23
ATOM      1 CL   UNL     1      -0.550   5.377  24.734  0.00  0.00    -0.084 Cl
ATOM     23  C   UNL     1      -4.019   2.516  25.092  0.00  0.00    +0.105 A 
ATOM     24  C   UNL     1      -3.651   3.305  26.182  0.00  0.00    +0.030 A 
ATOM     25  C   UNL     1      -3.315   2.612  23.892  0.00  0.00    +0.030 A 
ATOM     26  C   UNL     1      -2.578   4.190  26.072  0.00  0.00    +0.022 A 
ATOM     27  C   UNL     1      -2.242   3.497  23.782  0.00  0.00    +0.022 A 
ATOM     28  C   UNL     1      -1.874   4.286  24.871  0.00  0.00    +0.041 A 
ENDBRANCH   2  23
ENDBRANCH  11   2
ENDBRANCH  17  11
ENDBRANCH  15  17
TORSDOF 8
ENDMDL
MODEL 4
REMARK VINA RESULT:      -2.0      3.002      6.311
REMARK  Name = 40781553
REMARK  8 active torsions:
REMARK  status: ('A' for Active; 'I' for Inactive)
REMARK    1  A    between atoms: S_2  and  N_11
REMARK    2  A    between atoms: S_2  and  C_23
REMARK    3  A    between atoms: O_4  and  C_13
REMARK    4  A    between atoms: O_5  and  C_14
REMARK    5  A    between atoms: N_11  and  C_17
REMARK    6  A    between atoms: C_12  and  C_16
REMARK    7  A    between atoms: C_15  and  C_17
REMARK    8  A    between atoms: C_16  and  C_18
REMARK                            x       y       z     vdW  Elec       q    Type
REMARK                         _______ _______ _______ _____ _____    ______ ____
ROOT
ATOM      3  O   UNL     1      -2.706   0.119  23.849  0.00  0.00    -0.366 OA
ATOM     12  C   UNL     1      -1.513   0.025  24.646  0.00  0.00    +0.158 C 
ATOM     13  C   UNL     1      -1.759  -1.113  25.621  0.00  0.00    +0.175 C 
ATOM     14  C   UNL     1      -2.571  -2.069  24.772  0.00  0.00    +0.175 C 
ATOM     15  C   UNL     1      -3.451  -1.114  23.974  0.00  0.00    +0.165 C 
ENDROOT
BRANCH  13   4
ATOM      4  O   UNL     1      -0.553  -1.674  26.096  0.00  0.00    -0.387 OA
ATOM     29  H   UNL     1      -0.567  -1.618  27.066  0.00  0.00    +0.210 HD
ENDBRANCH  13   4
BRANCH  14   5
ATOM      5  O   UNL     1      -1.725  -2.762  23.856  0.00  0.00    -0.387 OA
ATOM     30  H   UNL     1      -1.676  -2.228  23.045  0.00  0.00    +0.210 HD
ENDBRANCH  14   5
BRANCH  12  16
ATOM     16  C   UNL     1      -1.249   1.355  25.328  0.00  0.00    +0.130 C 
BRANCH  16  18
ATOM      6  O   UNL     1       2.231  -0.061  21.954  0.00  0.00    -0.377 OA
ATOM      7  O   UNL     1       0.732   2.533  25.889  0.00  0.00    -0.276 OA
ATOM     10  N   UNL     1       0.751   1.365  23.882  0.00  0.00    -0.297 N 
ATOM     18  C   UNL     1       0.165   1.809  25.066  0.00  0.00    +0.218 C 
ATOM     19  C   UNL     1       2.122   1.755  23.553  0.00  0.00    +0.136 C 
ATOM     20  C   UNL     1       0.069   0.612  22.825  0.00  0.00    +0.136 C 
ATOM     21  C   UNL     1       2.910   0.553  23.053  0.00  0.00    +0.179 C 
ATOM     22  C   UNL     1       0.943  -0.541  22.349  0.00  0.00    +0.179 C 
ENDBRANCH  16  18
ENDBRANCH  12  16
BRANCH  15  17
ATOM     17  C   UNL     1      -4.767  -0.793  24.669  0.00  0.00    +0.140 C 
BRANCH  17  11
ATOM     11  N   UNL     1      -4.606   0.269  25.618  0.00  0.00    -0.187 NA
ATOM     31  H   UNL     1      -4.252   0.004  26.546  0.00  0.00    +0.148 HD
BRANCH  11   2
ATOM      2  S   UNL     1      -5.540   1.713  25.513  0.00  0.00    +0.058 S 
ATOM      8  O   UNL     1      -6.178   1.945  26.795  0.00  0.00    -0.153 OA
ATOM      9  O   UNL     1      -6.327   1.714  24.296  0.00  0.00    -0.153 OA
BRANCH   2  23
ATOM      1 CL   UNL     1      -1.037   6.028  24.786  0.00  0.00    -0.084 Cl
ATOM     23  C   UNL     1      -4.272   2.929  25.309  0.00  0.00    +0.105 A 
ATOM     24  C   UNL     1      -3.842   3.279  24.029  0.00  0.00    +0.030 A 
ATOM     25  C   UNL     1      -3.702   3.537  26.427  0.00  0.00    +0.030 A 
ATOM     26  C   UNL     1      -2.841   4.237  23.867  0.00  0.00    +0.022 A 
ATOM     27  C   UNL     1      -2.702   4.496  26.265  0.00  0.00    +0.022 A 
ATOM     28  C   UNL     1      -2.271   4.846  24.985  0.00  0.00    +0.041 A 
ENDBRANCH   2  23
ENDBRANCH  11   2
ENDBRANCH  17  11
ENDBRANCH  15  17
TORSDOF 8
ENDMDL
MODEL 5
REMARK VINA RESULT:      -1.9      3.424      7.187
REMARK  Name = 40781553
REMARK  8 active torsions:
REMARK  status: ('A' for Active; 'I' for Inactive)
REMARK    1  A    between atoms: S_2  and  N_11
REMARK    2  A    between atoms: S_2  and  C_23
REMARK    3  A    between atoms: O_4  and  C_13
REMARK    4  A    between atoms: O_5  and  C_14
REMARK    5  A    between atoms: N_11  and  C_17
REMARK    6  A    between atoms: C_12  and  C_16
REMARK    7  A    between atoms: C_15  and  C_17
REMARK    8  A    between atoms: C_16  and  C_18
REMARK                            x       y       z     vdW  Elec       q    Type
REMARK                         _______ _______ _______ _____ _____    ______ ____
ROOT
ATOM      3  O   UNL     1      -0.480   0.745  24.002  0.00  0.00    -0.366 OA
ATOM     12  C   UNL     1      -0.433  -0.691  23.947  0.00  0.00    +0.158 C 
ATOM     13  C   UNL     1      -0.667  -1.165  25.372  0.00  0.00    +0.175 C 
ATOM     14  C   UNL     1      -1.655  -0.132  25.875  0.00  0.00    +0.175 C 
ATOM     15  C   UNL     1      -1.135   1.146  25.227  0.00  0.00    +0.165 C 
ENDROOT
BRANCH  13   4
ATOM      4  O   UNL     1      -1.167  -2.484  25.416  0.00  0.00    -0.387 OA
ATOM     29  H   UNL     1      -0.650  -2.970  26.080  0.00  0.00    +0.210 HD
ENDBRANCH  13   4
BRANCH  14   5
ATOM      5  O   UNL     1      -2.956  -0.395  25.353  0.00  0.00    -0.387 OA
ATOM     30  H   UNL     1      -3.045  -1.359  25.264  0.00  0.00    +0.210 HD
ENDBRANCH  14   5
BRANCH  12  16
ATOM     16  C   UNL     1       0.902  -1.138  23.378  0.00  0.00    +0.130 C 
BRANCH  16  18
ATOM      6  O   UNL     1       5.874  -0.298  23.643  0.00  0.00    -0.377 OA
ATOM      7  O   UNL     1       1.216   1.146  22.821  0.00  0.00    -0.276 OA
ATOM     10  N   UNL     1       3.134  -0.151  23.005  0.00  0.00    -0.297 N 
ATOM     18  C   UNL     1       1.756   0.059  23.041  0.00  0.00    +0.218 C 
ATOM     19  C   UNL     1       4.035   0.958  22.693  0.00  0.00    +0.136 C 
ATOM     20  C   UNL     1       3.800  -1.450  23.137  0.00  0.00    +0.136 C 
ATOM     21  C   UNL     1       5.214   0.971  23.654  0.00  0.00    +0.179 C 
ATOM     22  C   UNL     1       4.994  -1.339  24.077  0.00  0.00    +0.179 C 
ENDBRANCH  16  18
ENDBRANCH  12  16
BRANCH  15  17
ATOM     17  C   UNL     1      -0.110   1.875  26.085  0.00  0.00    +0.140 C 
BRANCH  17  11
ATOM     11  N   UNL     1      -0.450   3.259  26.235  0.00  0.00    -0.187 NA
ATOM     31  H   UNL     1      -0.661   3.577  27.189  0.00  0.00    +0.148 HD
BRANCH  11   2
ATOM      2  S   UNL     1      -1.131   4.160  24.933  0.00  0.00    +0.058 S 
ATOM      8  O   UNL     1      -0.446   3.791  23.708  0.00  0.00    -0.153 OA
ATOM      9  O   UNL     1      -1.261   5.556  25.304  0.00  0.00    -0.153 OA
BRANCH   2  23
ATOM      1 CL   UNL     1      -6.935   1.778  24.696  0.00  0.00    -0.084 Cl
ATOM     23  C   UNL     1      -2.765   3.489  24.867  0.00  0.00    +0.105 A 
ATOM     24  C   UNL     1      -3.188   2.795  23.733  0.00  0.00    +0.030 A 
ATOM     25  C   UNL     1      -3.631   3.653  25.948  0.00  0.00    +0.030 A 
ATOM     26  C   UNL     1      -4.478   2.266  23.680  0.00  0.00    +0.022 A 
ATOM     27  C   UNL     1      -4.920   3.124  25.895  0.00  0.00    +0.022 A 
ATOM     28  C   UNL     1      -5.345   2.431  24.761  0.00  0.00    +0.041 A 
ENDBRANCH   2  23
ENDBRANCH  11   2
ENDBRANCH  17  11
ENDBRANCH  15  17
TORSDOF 8
ENDMDL
MODEL 6
REMARK VINA RESULT:      -1.8      3.274      5.895
REMARK  Name = 40781553
REMARK  8 active torsions:
REMARK  status: ('A' for Active; 'I' for Inactive)
REMARK    1  A    between atoms: S_2  and  N_11
REMARK    2  A    between atoms: S_2  and  C_23
REMARK    3  A    between atoms: O_4  and  C_13
REMARK    4  A    between atoms: O_5  and  C_14
REMARK    5  A    between atoms: N_11  and  C_17
REMARK    6  A    between atoms: C_12  and  C_16
REMARK    7  A    between atoms: C_15  and  C_17
REMARK    8  A    between atoms: C_16  and  C_18
REMARK                            x       y       z     vdW  Elec       q    Type
REMARK                         _______ _______ _______ _____ _____    ______ ____
ROOT
ATOM      3  O   UNL     1      -2.325  -1.266  23.406  0.00  0.00    -0.366 OA
ATOM     12  C   UNL     1      -2.012  -2.316  24.337  0.00  0.00    +0.158 C 
ATOM     13  C   UNL     1      -3.226  -2.438  25.242  0.00  0.00    +0.175 C 
ATOM     14  C   UNL     1      -4.355  -2.151  24.274  0.00  0.00    +0.175 C 
ATOM     15  C   UNL     1      -3.755  -1.052  23.404  0.00  0.00    +0.165 C 
ENDROOT
BRANCH  13   4
ATOM      4  O   UNL     1      -3.315  -3.714  25.842  0.00  0.00    -0.387 OA
ATOM     29  H   UNL     1      -3.459  -3.580  26.793  0.00  0.00    +0.210 HD
ENDBRANCH  13   4
BRANCH  14   5
ATOM      5  O   UNL     1      -4.600  -3.287  23.447  0.00  0.00    -0.387 OA
ATOM     30  H   UNL     1      -3.800  -3.438  22.915  0.00  0.00    +0.210 HD
ENDBRANCH  14   5
BRANCH  12  16
ATOM     16  C   UNL     1      -0.737  -1.972  25.086  0.00  0.00    +0.130 C 
BRANCH  16  18
ATOM      6  O   UNL     1       0.638   2.846  24.459  0.00  0.00    -0.377 OA
ATOM      7  O   UNL     1      -1.345  -0.847  27.083  0.00  0.00    -0.276 OA
ATOM     10  N   UNL     1      -0.634   0.483  25.318  0.00  0.00    -0.297 N 
ATOM     18  C   UNL     1      -0.937  -0.735  25.924  0.00  0.00    +0.218 C 
ATOM     19  C   UNL     1      -0.795   1.732  26.062  0.00  0.00    +0.136 C 
ATOM     20  C   UNL     1      -0.269   0.665  23.909  0.00  0.00    +0.136 C 
ATOM     21  C   UNL     1       0.414   2.632  25.856  0.00  0.00    +0.179 C 
ATOM     22  C   UNL     1       0.916   1.614  23.789  0.00  0.00    +0.179 C 
ENDBRANCH  16  18
ENDBRANCH  12  16
BRANCH  15  17
ATOM     17  C   UNL     1      -4.016   0.347  23.947  0.00  0.00    +0.140 C 
BRANCH  17  11
ATOM     11  N   UNL     1      -5.098   0.344  24.886  0.00  0.00    -0.187 NA
ATOM     31  H   UNL     1      -5.662  -0.513  24.932  0.00  0.00    +0.148 HD
BRANCH  11   2
ATOM      2  S   UNL     1      -5.850   1.811  25.389  0.00  0.00    +0.058 S 
ATOM      8  O   UNL     1      -6.199   1.693  26.792  0.00  0.00    -0.153 OA
ATOM      9  O   UNL     1      -6.848   2.221  24.421  0.00  0.00    -0.153 OA
BRANCH   2  23
ATOM      1 CL   UNL     1      -1.073   5.859  24.921  0.00  0.00    -0.084 Cl
ATOM     23  C   UNL     1      -4.504   2.951  25.257  0.00  0.00    +0.105 A 
ATOM     24  C   UNL     1      -3.982   3.548  26.405  0.00  0.00    +0.030 A 
ATOM     25  C   UNL     1      -3.966   3.252  24.007  0.00  0.00    +0.030 A 
ATOM     26  C   UNL     1      -2.921   4.448  26.301  0.00  0.00    +0.022 A 
ATOM     27  C   UNL     1      -2.905   4.152  23.903  0.00  0.00    +0.022 A 
ATOM     28  C   UNL     1      -2.382   4.750  25.050  0.00  0.00    +0.041 A 
ENDBRANCH   2  23
ENDBRANCH  11   2
ENDBRANCH  17  11
ENDBRANCH  15  17
TORSDOF 8
ENDMDL
MODEL 7
REMARK VINA RESULT:      -1.5      3.105      3.979
REMARK  Name = 40781553
REMARK  8 active torsions:
REMARK  status: ('A' for Active; 'I' for Inactive)
REMARK    1  A    between atoms: S_2  and  N_11
REMARK    2  A    between atoms: S_2  and  C_23
REMARK    3  A    between atoms: O_4  and  C_13
REMARK    4  A    between atoms: O_5  and  C_14
REMARK    5  A    between atoms: N_11  and  C_17
REMARK    6  A    between atoms: C_12  and  C_16
REMARK    7  A    between atoms: C_15  and  C_17
REMARK    8  A    between atoms: C_16  and  C_18
REMARK                            x       y       z     vdW  Elec       q    Type
REMARK                         _______ _______ _______ _____ _____    ______ ____
ROOT
ATOM      3  O   UNL     1      -2.257  -0.365  24.872  0.00  0.00    -0.366 OA
ATOM     12  C   UNL     1      -3.500  -0.686  24.225  0.00  0.00    +0.158 C 
ATOM     13  C   UNL     1      -3.388  -2.146  23.821  0.00  0.00    +0.175 C 
ATOM     14  C   UNL     1      -2.589  -2.718  24.974  0.00  0.00    +0.175 C 
ATOM     15  C   UNL     1      -1.602  -1.593  25.264  0.00  0.00    +0.165 C 
ENDROOT
BRANCH  13   4
ATOM      4  O   UNL     1      -4.654  -2.752  23.665  0.00  0.00    -0.387 OA
ATOM     29  H   UNL     1      -4.656  -3.566  24.194  0.00  0.00    +0.210 HD
ENDBRANCH  13   4
BRANCH  14   5
ATOM      5  O   UNL     1      -3.421  -2.885  26.120  0.00  0.00    -0.387 OA
ATOM     30  H   UNL     1      -2.965  -3.495  26.725  0.00  0.00    +0.210 HD
ENDBRANCH  14   5
BRANCH  12  16
ATOM     16  C   UNL     1      -3.719   0.248  23.048  0.00  0.00    +0.130 C 
BRANCH  16  18
ATOM      6  O   UNL     1      -6.235   2.994  26.457  0.00  0.00    -0.377 OA
ATOM      7  O   UNL     1      -2.917   2.469  22.827  0.00  0.00    -0.276 OA
ATOM     10  N   UNL     1      -4.304   2.040  24.640  0.00  0.00    -0.297 N 
ATOM     18  C   UNL     1      -3.604   1.685  23.488  0.00  0.00    +0.218 C 
ATOM     19  C   UNL     1      -4.251   3.416  25.133  0.00  0.00    +0.136 C 
ATOM     20  C   UNL     1      -5.025   1.113  25.518  0.00  0.00    +0.136 C 
ATOM     21  C   UNL     1      -5.643   3.896  25.518  0.00  0.00    +0.179 C 
ATOM     22  C   UNL     1      -6.385   1.689  25.892  0.00  0.00    +0.179 C 
ENDBRANCH  16  18
ENDBRANCH  12  16
BRANCH  15  17
ATOM     17  C   UNL     1      -0.313  -1.708  24.462  0.00  0.00    +0.140 C 
BRANCH  17  11
ATOM     11  N   UNL     1       0.580  -0.628  24.758  0.00  0.00    -0.187 NA
ATOM     31  H   UNL     1       0.602  -0.307  25.734  0.00  0.00    +0.148 HD
BRANCH  11   2
ATOM      2  S   UNL     1       1.055   0.500  23.545  0.00  0.00    +0.058 S 
ATOM      8  O   UNL     1       0.433   0.119  22.291  0.00  0.00    -0.153 OA
ATOM      9  O   UNL     1       2.484   0.734  23.610  0.00  0.00    -0.153 OA
BRANCH   2  23
ATOM      1 CL   UNL     1      -1.753   5.735  25.579  0.00  0.00    -0.084 Cl
ATOM     23  C   UNL     1       0.264   1.975  24.118  0.00  0.00    +0.105 A 
ATOM     24  C   UNL     1      -0.378   1.985  25.356  0.00  0.00    +0.030 A 
ATOM     25  C   UNL     1       0.283   3.126  23.332  0.00  0.00    +0.030 A 
ATOM     26  C   UNL     1      -1.002   3.148  25.808  0.00  0.00    +0.022 A 
ATOM     27  C   UNL     1      -0.341   4.289  23.784  0.00  0.00    +0.022 A 
ATOM     28  C   UNL     1      -0.984   4.300  25.022  0.00  0.00    +0.041 A 
ENDBRANCH   2  23
ENDBRANCH  11   2
ENDBRANCH  17  11
ENDBRANCH  15  17
TORSDOF 8
ENDMDL
MODEL 8
REMARK VINA RESULT:      -1.4      3.419      6.326
REMARK  Name = 40781553
REMARK  8 active torsions:
REMARK  status: ('A' for Active; 'I' for Inactive)
REMARK    1  A    between atoms: S_2  and  N_11
REMARK    2  A    between atoms: S_2  and  C_23
REMARK    3  A    between atoms: O_4  and  C_13
REMARK    4  A    between atoms: O_5  and  C_14
REMARK    5  A    between atoms: N_11  and  C_17
REMARK    6  A    between atoms: C_12  and  C_16
REMARK    7  A    between atoms: C_15  and  C_17
REMARK    8  A    between atoms: C_16  and  C_18
REMARK                            x       y       z     vdW  Elec       q    Type
REMARK                         _______ _______ _______ _____ _____    ______ ____
ROOT
ATOM      3  O   UNL     1      -0.408   0.953  23.511  0.00  0.00    -0.366 OA
ATOM     12  C   UNL     1       0.875   1.602  23.507  0.00  0.00    +0.158 C 
ATOM     13  C   UNL     1       1.902   0.482  23.490  0.00  0.00    +0.175 C 
ATOM     14  C   UNL     1       1.208  -0.551  22.626  0.00  0.00    +0.175 C 
ATOM     15  C   UNL     1      -0.243  -0.414  23.072  0.00  0.00    +0.165 C 
ENDROOT
BRANCH  13   4
ATOM      4  O   UNL     1       3.142   0.908  22.967  0.00  0.00    -0.387 OA
ATOM     29  H   UNL     1       3.841   0.511  23.513  0.00  0.00    +0.210 HD
ENDBRANCH  13   4
BRANCH  14   5
ATOM      5  O   UNL     1       1.286  -0.179  21.251  0.00  0.00    -0.387 OA
ATOM     30  H   UNL     1       1.991  -0.712  20.845  0.00  0.00    +0.210 HD
ENDBRANCH  14   5
BRANCH  12  16
ATOM     16  C   UNL     1       0.993   2.507  24.721  0.00  0.00    +0.130 C 
BRANCH  16  18
ATOM      6  O   UNL     1      -2.932   5.484  25.829  0.00  0.00    -0.377 OA
ATOM      7  O   UNL     1      -0.219   1.392  26.426  0.00  0.00    -0.276 OA
ATOM     10  N   UNL     1      -1.222   3.269  25.497  0.00  0.00    -0.297 N 
ATOM     18  C   UNL     1      -0.200   2.331  25.626  0.00  0.00    +0.218 C 
ATOM     19  C   UNL     1      -2.413   3.175  26.342  0.00  0.00    +0.136 C 
ATOM     20  C   UNL     1      -1.290   4.319  24.476  0.00  0.00    +0.136 C 
ATOM     21  C   UNL     1      -2.780   4.543  26.896  0.00  0.00    +0.179 C 
ATOM     22  C   UNL     1      -1.709   5.642  25.105  0.00  0.00    +0.179 C 
ENDBRANCH  16  18
ENDBRANCH  12  16
BRANCH  15  17
ATOM     17  C   UNL     1      -0.595  -1.323  24.242  0.00  0.00    +0.140 C 
BRANCH  17  11
ATOM     11  N   UNL     1      -1.673  -0.780  25.014  0.00  0.00    -0.187 NA
ATOM     31  H   UNL     1      -1.444  -0.471  25.966  0.00  0.00    +0.148 HD
BRANCH  11   2
ATOM      2  S   UNL     1      -3.310  -1.220  24.700  0.00  0.00    +0.058 S 
ATOM      8  O   UNL     1      -3.774  -2.072  25.778  0.00  0.00    -0.153 OA
ATOM      9  O   UNL     1      -3.460  -1.642  23.321  0.00  0.00    -0.153 OA
BRANCH   2  23
ATOM      1 CL   UNL     1      -6.192   4.331  25.243  0.00  0.00    -0.084 Cl
ATOM     23  C   UNL     1      -4.122   0.343  24.852  0.00  0.00    +0.105 A 
ATOM     24  C   UNL     1      -3.819   1.375  23.964  0.00  0.00    +0.030 A 
ATOM     25  C   UNL     1      -5.064   0.544  25.860  0.00  0.00    +0.030 A 
ATOM     26  C   UNL     1      -4.459   2.609  24.085  0.00  0.00    +0.022 A 
ATOM     27  C   UNL     1      -5.705   1.777  25.981  0.00  0.00    +0.022 A 
ATOM     28  C   UNL     1      -5.402   2.810  25.094  0.00  0.00    +0.041 A 
ENDBRANCH   2  23
ENDBRANCH  11   2
ENDBRANCH  17  11
ENDBRANCH  15  17
TORSDOF 8
ENDMDL
MODEL 9
REMARK VINA RESULT:      -1.3      1.028      1.972
REMARK  Name = 40781553
REMARK  8 active torsions:
REMARK  status: ('A' for Active; 'I' for Inactive)
REMARK    1  A    between atoms: S_2  and  N_11
REMARK    2  A    between atoms: S_2  and  C_23
REMARK    3  A    between atoms: O_4  and  C_13
REMARK    4  A    between atoms: O_5  and  C_14
REMARK    5  A    between atoms: N_11  and  C_17
REMARK    6  A    between atoms: C_12  and  C_16
REMARK    7  A    between atoms: C_15  and  C_17
REMARK    8  A    between atoms: C_16  and  C_18
REMARK                            x       y       z     vdW  Elec       q    Type
REMARK                         _______ _______ _______ _____ _____    ______ ____
ROOT
ATOM      3  O   UNL     1      -2.022  -0.397  25.065  0.00  0.00    -0.366 OA
ATOM     12  C   UNL     1      -3.239  -0.441  24.300  0.00  0.00    +0.158 C 
ATOM     13  C   UNL     1      -3.299  -1.837  23.705  0.00  0.00    +0.175 C 
ATOM     14  C   UNL     1      -2.688  -2.666  24.815  0.00  0.00    +0.175 C 
ATOM     15  C   UNL     1      -1.581  -1.749  25.323  0.00  0.00    +0.165 C 
ENDROOT
BRANCH  13   4
ATOM      4  O   UNL     1      -4.620  -2.220  23.384  0.00  0.00    -0.387 OA
ATOM     29  H   UNL     1      -4.780  -3.087  23.793  0.00  0.00    +0.210 HD
ENDBRANCH  13   4
BRANCH  14   5
ATOM      5  O   UNL     1      -3.628  -2.852  25.871  0.00  0.00    -0.387 OA
ATOM     30  H   UNL     1      -3.315  -3.597  26.412  0.00  0.00    +0.210 HD
ENDBRANCH  14   5
BRANCH  12  16
ATOM     16  C   UNL     1      -3.225   0.659  23.254  0.00  0.00    +0.130 C 
BRANCH  16  18
ATOM      6  O   UNL     1      -6.308   3.425  26.142  0.00  0.00    -0.377 OA
ATOM      7  O   UNL     1      -2.124   2.731  23.598  0.00  0.00    -0.276 OA
ATOM     10  N   UNL     1      -4.045   2.356  24.848  0.00  0.00    -0.297 N 
ATOM     18  C   UNL     1      -3.074   2.008  23.911  0.00  0.00    +0.218 C 
ATOM     19  C   UNL     1      -3.976   3.649  25.528  0.00  0.00    +0.136 C 
ATOM     20  C   UNL     1      -5.112   1.475  25.335  0.00  0.00    +0.136 C 
ATOM     21  C   UNL     1      -5.348   4.308  25.555  0.00  0.00    +0.179 C 
ATOM     22  C   UNL     1      -6.438   2.225  25.376  0.00  0.00    +0.179 C 
ENDBRANCH  16  18
ENDBRANCH  12  16
BRANCH  15  17
ATOM     17  C   UNL     1      -0.258  -1.953  24.597  0.00  0.00    +0.140 C 
BRANCH  17  11
ATOM     11  N   UNL     1       0.557  -0.776  24.667  0.00  0.00    -0.187 NA
ATOM     31  H   UNL     1       0.552  -0.268  25.560  0.00  0.00    +0.148 HD
BRANCH  11   2
ATOM      2  S   UNL     1       0.959   0.120  23.251  0.00  0.00    +0.058 S 
ATOM      8  O   UNL     1       0.612   1.512  23.472  0.00  0.00    -0.153 OA
ATOM      9  O   UNL     1       0.485  -0.571  22.068  0.00  0.00    -0.153 OA
BRANCH   2  23
ATOM      1 CL   UNL     1       7.221  -0.332  23.254  0.00  0.00    -0.084 Cl
ATOM     23  C   UNL     1       2.722  -0.007  23.252  0.00  0.00    +0.105 A 
ATOM     24  C   UNL     1       3.337  -1.175  23.704  0.00  0.00    +0.030 A 
ATOM     25  C   UNL     1       3.499   1.060  22.800  0.00  0.00    +0.030 A 
ATOM     26  C   UNL     1       4.728  -1.275  23.706  0.00  0.00    +0.022 A 
ATOM     27  C   UNL     1       4.890   0.959  22.801  0.00  0.00    +0.022 A 
ATOM     28  C   UNL     1       5.505  -0.208  23.254  0.00  0.00    +0.041 A 
ENDBRANCH   2  23
ENDBRANCH  11   2
ENDBRANCH  17  11
ENDBRANCH  15  17
TORSDOF 8
ENDMDL
MODEL 10
REMARK VINA RESULT:      -1.2      3.053      7.132
REMARK  Name = 40781553
REMARK  8 active torsions:
REMARK  status: ('A' for Active; 'I' for Inactive)
REMARK    1  A    between atoms: S_2  and  N_11
REMARK    2  A    between atoms: S_2  and  C_23
REMARK    3  A    between atoms: O_4  and  C_13
REMARK    4  A    between atoms: O_5  and  C_14
REMARK    5  A    between atoms: N_11  and  C_17
REMARK    6  A    between atoms: C_12  and  C_16
REMARK    7  A    between atoms: C_15  and  C_17
REMARK    8  A    between atoms: C_16  and  C_18
REMARK                            x       y       z     vdW  Elec       q    Type
REMARK                         _______ _______ _______ _____ _____    ______ ____
ROOT
ATOM      3  O   UNL     1      -1.734   3.221  26.156  0.00  0.00    -0.366 OA
ATOM     12  C   UNL     1      -0.462   3.224  25.487  0.00  0.00    +0.158 C 
ATOM     13  C   UNL     1      -0.736   3.743  24.085  0.00  0.00    +0.175 C 
ATOM     14  C   UNL     1      -1.824   4.763  24.348  0.00  0.00    +0.175 C 
ATOM     15  C   UNL     1      -2.647   4.078  25.433  0.00  0.00    +0.165 C 
ENDROOT
BRANCH  13   4
ATOM      4  O   UNL     1       0.418   4.297  23.489  0.00  0.00    -0.387 OA
ATOM     29  H   UNL     1       0.122   4.921  22.806  0.00  0.00    +0.210 HD
ENDBRANCH  13   4
BRANCH  14   5
ATOM      5  O   UNL     1      -1.265   5.953  24.902  0.00  0.00    -0.387 OA
ATOM     30  H   UNL     1      -0.399   6.092  24.480  0.00  0.00    +0.210 HD
ENDBRANCH  14   5
BRANCH  12  16
ATOM     16  C   UNL     1       0.129   1.826  25.505  0.00  0.00    +0.130 C 
BRANCH  16  18
ATOM      6  O   UNL     1       2.478  -0.380  21.617  0.00  0.00    -0.377 OA
ATOM      7  O   UNL     1      -1.580   1.006  24.081  0.00  0.00    -0.276 OA
ATOM     10  N   UNL     1       0.592   0.357  23.577  0.00  0.00    -0.297 N 
ATOM     18  C   UNL     1      -0.371   1.028  24.328  0.00  0.00    +0.218 C 
ATOM     19  C   UNL     1       0.192  -0.436  22.414  0.00  0.00    +0.136 C 
ATOM     20  C   UNL     1       2.016   0.258  23.912  0.00  0.00    +0.136 C 
ATOM     21  C   UNL     1       1.117  -0.158  21.238  0.00  0.00    +0.179 C 
ATOM     22  C   UNL     1       2.868   0.502  22.673  0.00  0.00    +0.179 C 
ENDBRANCH  16  18
ENDBRANCH  12  16
BRANCH  15  17
ATOM     17  C   UNL     1      -3.760   3.203  24.874  0.00  0.00    +0.140 C 
BRANCH  17  11
ATOM     11  N   UNL     1      -4.736   2.901  25.879  0.00  0.00    -0.187 NA
ATOM     31  H   UNL     1      -4.498   3.167  26.842  0.00  0.00    +0.148 HD
BRANCH  11   2
ATOM      2  S   UNL     1      -5.866   1.617  25.672  0.00  0.00    +0.058 S 
ATOM      8  O   UNL     1      -6.674   1.897  24.500  0.00  0.00    -0.153 OA
ATOM      9  O   UNL     1      -6.501   1.299  26.936  0.00  0.00    -0.153 OA
BRANCH   2  23
ATOM      1 CL   UNL     1      -2.043  -3.167  24.287  0.00  0.00    -0.084 Cl
ATOM     23  C   UNL     1      -4.790   0.269  25.282  0.00  0.00    +0.105 A 
ATOM     24  C   UNL     1      -3.913  -0.224  26.248  0.00  0.00    +0.030 A 
ATOM     25  C   UNL     1      -4.818  -0.300  24.009  0.00  0.00    +0.030 A 
ATOM     26  C   UNL     1      -3.063  -1.286  25.940  0.00  0.00    +0.022 A 
ATOM     27  C   UNL     1      -3.968  -1.363  23.701  0.00  0.00    +0.022 A 
ATOM     28  C   UNL     1      -3.090  -1.856  24.666  0.00  0.00    +0.041 A 
ENDBRANCH   2  23
ENDBRANCH  11   2
ENDBRANCH  17  11
ENDBRANCH  15  17
TORSDOF 8
ENDMDL
