MODEL 1
REMARK VINA RESULT:      -0.2      0.000      0.000
REMARK  Name = 51137389
REMARK  8 active torsions:
REMARK  status: ('A' for Active; 'I' for Inactive)
REMARK    1  A    between atoms: N_2  and  C_10
REMARK    2  A    between atoms: N_5  and  C_19
REMARK    3  A    between atoms: N_5  and  C_21
REMARK    4  A    between atoms: N_5  and  C_22
REMARK    5  A    between atoms: C_6  and  C_11
REMARK    6  A    between atoms: C_10  and  C_12
REMARK    7  A    between atoms: C_15  and  C_16
REMARK    8  A    between atoms: C_16  and  C_20
REMARK                            x       y       z     vdW  Elec       q    Type
REMARK                         _______ _______ _______ _____ _____    ______ ____
ROOT
ATOM      2  N   UNL     1      -2.351  -1.189  24.652  0.00  0.00    -0.297 NA
ATOM      6  C   UNL     1      -4.543  -0.511  25.267  0.00  0.00    +0.092 C 
ATOM      7  C   UNL     1      -4.520  -1.092  23.846  0.00  0.00    +0.029 C 
ATOM      8  C   UNL     1      -3.129  -0.764  25.819  0.00  0.00    +0.097 C 
ATOM      9  C   UNL     1      -3.273  -1.962  23.822  0.00  0.00    +0.085 C 
ENDROOT
BRANCH   6  11
ATOM      1  O   UNL     1      -4.026   1.866  25.558  0.00  0.00    -0.424 OA
ATOM      3  N   UNL     1      -6.179   1.450  25.112  0.00  0.00    -0.112 NA
ATOM      4  N   UNL     1      -6.028   2.817  25.250  0.00  0.00    -0.112 NA
ATOM     11  C   UNL     1      -4.986   0.936  25.299  0.00  0.00    +0.222 A 
ATOM     15  C   UNL     1      -4.757   3.014  25.511  0.00  0.00    +0.222 A 
BRANCH  15  16
ATOM     16  C   UNL     1      -4.033   4.269  25.748  0.00  0.00    +0.132 C 
BRANCH  16  20
ATOM     20  C   UNL     1      -2.531   4.199  25.496  0.00  0.00    -0.038 A 
ATOM     23  C   UNL     1      -1.814   3.063  25.872  0.00  0.00    +0.004 A 
ATOM     24  C   UNL     1      -1.875   5.269  24.889  0.00  0.00    +0.004 A 
ATOM     25  C   UNL     1      -0.440   2.999  25.641  0.00  0.00    +0.000 A 
ATOM     26  C   UNL     1      -0.501   5.205  24.658  0.00  0.00    +0.000 A 
ATOM     27  C   UNL     1       0.217   4.070  25.034  0.00  0.00    +0.000 A 
ENDBRANCH  16  20
ENDBRANCH  15  16
ENDBRANCH   6  11
BRANCH   2  10
ATOM     10  C   UNL     1      -1.162  -1.943  25.017  0.00  0.00    +0.119 C 
BRANCH  10  12
ATOM     12  C   UNL     1       0.082  -1.362  24.402  0.00  0.00    -0.033 A 
ATOM     13  C   UNL     1       1.312  -1.996  24.581  0.00  0.00    +0.007 A 
ATOM     14  C   UNL     1       0.006  -0.189  23.651  0.00  0.00    +0.007 A 
ATOM     17  C   UNL     1       2.465  -1.456  24.011  0.00  0.00    +0.023 A 
ATOM     18  C   UNL     1       1.159   0.351  23.081  0.00  0.00    +0.023 A 
ATOM     19  C   UNL     1       2.388  -0.283  23.261  0.00  0.00    +0.029 A 
BRANCH  19   5
ATOM      5  N   UNL     1       3.554   0.263  22.684  0.00  0.00    -0.336 N 
ATOM     21  C   UNL     1       3.584   0.606  21.276  0.00  0.00    +0.129 C 
ATOM     22  C   UNL     1       4.740   0.478  23.489  0.00  0.00    +0.129 C 
ENDBRANCH  19   5
ENDBRANCH  10  12
ENDBRANCH   2  10
TORSDOF 6
ENDMDL
MODEL 2
REMARK VINA RESULT:       0.6     14.393     16.573
REMARK  Name = 51137389
REMARK  8 active torsions:
REMARK  status: ('A' for Active; 'I' for Inactive)
REMARK    1  A    between atoms: N_2  and  C_10
REMARK    2  A    between atoms: N_5  and  C_19
REMARK    3  A    between atoms: N_5  and  C_21
REMARK    4  A    between atoms: N_5  and  C_22
REMARK    5  A    between atoms: C_6  and  C_11
REMARK    6  A    between atoms: C_10  and  C_12
REMARK    7  A    between atoms: C_15  and  C_16
REMARK    8  A    between atoms: C_16  and  C_20
REMARK                            x       y       z     vdW  Elec       q    Type
REMARK                         _______ _______ _______ _____ _____    ______ ____
ROOT
ATOM      2  N   UNL     1      -8.092  -9.070  11.544  0.00  0.00    -0.297 NA
ATOM      6  C   UNL     1      -9.932  -9.720  12.899  0.00  0.00    +0.092 C 
ATOM      7  C   UNL     1     -10.137  -8.312  12.321  0.00  0.00    +0.029 C 
ATOM      8  C   UNL     1      -8.658 -10.245  12.213  0.00  0.00    +0.097 C 
ATOM      9  C   UNL     1      -9.236  -8.279  11.097  0.00  0.00    +0.085 C 
ENDROOT
BRANCH   6  11
ATOM      1  O   UNL     1      -8.842 -10.385  14.990  0.00  0.00    -0.424 OA
ATOM      3  N   UNL     1     -10.714  -9.193  15.277  0.00  0.00    -0.112 NA
ATOM      4  N   UNL     1     -10.206  -9.498  16.526  0.00  0.00    -0.112 NA
ATOM     11  C   UNL     1      -9.886  -9.730  14.412  0.00  0.00    +0.222 A 
ATOM     15  C   UNL     1      -9.115 -10.195  16.310  0.00  0.00    +0.222 A 
BRANCH  15  16
ATOM     16  C   UNL     1      -8.171 -10.778  17.272  0.00  0.00    +0.132 C 
BRANCH  16  20
ATOM     20  C   UNL     1      -6.701 -10.523  16.959  0.00  0.00    -0.038 A 
ATOM     23  C   UNL     1      -6.288 -10.352  15.638  0.00  0.00    +0.004 A 
ATOM     24  C   UNL     1      -5.768 -10.461  17.995  0.00  0.00    +0.004 A 
ATOM     25  C   UNL     1      -4.943 -10.118  15.352  0.00  0.00    +0.000 A 
ATOM     26  C   UNL     1      -4.423 -10.227  17.710  0.00  0.00    +0.000 A 
ATOM     27  C   UNL     1      -4.011 -10.056  16.389  0.00  0.00    +0.000 A 
ENDBRANCH  16  20
ENDBRANCH  15  16
ENDBRANCH   6  11
BRANCH   2  10
ATOM     10  C   UNL     1      -7.197  -9.425  10.453  0.00  0.00    +0.119 C 
BRANCH  10  12
ATOM     12  C   UNL     1      -5.799  -9.694  10.939  0.00  0.00    -0.033 A 
ATOM     13  C   UNL     1      -4.938 -10.490  10.182  0.00  0.00    +0.007 A 
ATOM     14  C   UNL     1      -5.362  -9.147  12.146  0.00  0.00    +0.007 A 
ATOM     17  C   UNL     1      -3.642 -10.739  10.633  0.00  0.00    +0.023 A 
ATOM     18  C   UNL     1      -4.066  -9.397  12.596  0.00  0.00    +0.023 A 
ATOM     19  C   UNL     1      -3.207 -10.192  11.841  0.00  0.00    +0.029 A 
BRANCH  19   5
ATOM      5  N   UNL     1      -1.895 -10.444  12.297  0.00  0.00    -0.336 N 
ATOM     21  C   UNL     1      -0.777 -10.394  11.377  0.00  0.00    +0.129 C 
ATOM     22  C   UNL     1      -1.651 -10.766  13.689  0.00  0.00    +0.129 C 
ENDBRANCH  19   5
ENDBRANCH  10  12
ENDBRANCH   2  10
TORSDOF 6
ENDMDL
MODEL 3
REMARK VINA RESULT:       0.7      0.746      1.270
REMARK  Name = 51137389
REMARK  8 active torsions:
REMARK  status: ('A' for Active; 'I' for Inactive)
REMARK    1  A    between atoms: N_2  and  C_10
REMARK    2  A    between atoms: N_5  and  C_19
REMARK    3  A    between atoms: N_5  and  C_21
REMARK    4  A    between atoms: N_5  and  C_22
REMARK    5  A    between atoms: C_6  and  C_11
REMARK    6  A    between atoms: C_10  and  C_12
REMARK    7  A    between atoms: C_15  and  C_16
REMARK    8  A    between atoms: C_16  and  C_20
REMARK                            x       y       z     vdW  Elec       q    Type
REMARK                         _______ _______ _______ _____ _____    ______ ____
ROOT
ATOM      2  N   UNL     1      -2.976  -1.055  24.537  0.00  0.00    -0.297 NA
ATOM      6  C   UNL     1      -5.031  -0.131  25.290  0.00  0.00    +0.092 C 
ATOM      7  C   UNL     1      -5.086  -0.460  23.791  0.00  0.00    +0.029 C 
ATOM      8  C   UNL     1      -3.688  -0.708  25.770  0.00  0.00    +0.097 C 
ATOM      9  C   UNL     1      -4.003  -1.510  23.602  0.00  0.00    +0.085 C 
ENDROOT
BRANCH   6  11
ATOM      1  O   UNL     1      -4.149   2.152  25.371  0.00  0.00    -0.424 OA
ATOM      3  N   UNL     1      -6.292   1.981  25.990  0.00  0.00    -0.112 NA
ATOM      4  N   UNL     1      -5.927   3.311  26.081  0.00  0.00    -0.112 NA
ATOM     11  C   UNL     1      -5.225   1.343  25.572  0.00  0.00    +0.222 A 
ATOM     15  C   UNL     1      -4.668   3.365  25.711  0.00  0.00    +0.222 A 
BRANCH  15  16
ATOM     16  C   UNL     1      -3.769   4.521  25.613  0.00  0.00    +0.132 C 
BRANCH  16  20
ATOM     20  C   UNL     1      -2.298   4.172  25.420  0.00  0.00    -0.038 A 
ATOM     23  C   UNL     1      -1.459   5.045  24.727  0.00  0.00    +0.004 A 
ATOM     24  C   UNL     1      -1.789   2.981  25.938  0.00  0.00    +0.004 A 
ATOM     25  C   UNL     1      -0.113   4.727  24.551  0.00  0.00    +0.000 A 
ATOM     26  C   UNL     1      -0.443   2.662  25.762  0.00  0.00    +0.000 A 
ATOM     27  C   UNL     1       0.395   3.534  25.069  0.00  0.00    +0.000 A 
ENDBRANCH  16  20
ENDBRANCH  15  16
ENDBRANCH   6  11
BRANCH   2  10
ATOM     10  C   UNL     1      -1.936  -2.049  24.752  0.00  0.00    +0.119 C 
BRANCH  10  12
ATOM     12  C   UNL     1      -0.581  -1.541  24.341  0.00  0.00    -0.033 A 
ATOM     13  C   UNL     1       0.573  -2.138  24.851  0.00  0.00    +0.007 A 
ATOM     14  C   UNL     1      -0.477  -0.473  23.449  0.00  0.00    +0.007 A 
ATOM     17  C   UNL     1       1.829  -1.667  24.470  0.00  0.00    +0.023 A 
ATOM     18  C   UNL     1       0.779  -0.002  23.069  0.00  0.00    +0.023 A 
ATOM     19  C   UNL     1       1.931  -0.598  23.579  0.00  0.00    +0.029 A 
BRANCH  19   5
ATOM      5  N   UNL     1       3.203  -0.121  23.194  0.00  0.00    -0.336 N 
ATOM     21  C   UNL     1       4.361  -0.989  23.257  0.00  0.00    +0.129 C 
ATOM     22  C   UNL     1       3.367   1.245  22.738  0.00  0.00    +0.129 C 
ENDBRANCH  19   5
ENDBRANCH  10  12
ENDBRANCH   2  10
TORSDOF 6
ENDMDL
MODEL 4
REMARK VINA RESULT:       1.2      1.565      4.595
REMARK  Name = 51137389
REMARK  8 active torsions:
REMARK  status: ('A' for Active; 'I' for Inactive)
REMARK    1  A    between atoms: N_2  and  C_10
REMARK    2  A    between atoms: N_5  and  C_19
REMARK    3  A    between atoms: N_5  and  C_21
REMARK    4  A    between atoms: N_5  and  C_22
REMARK    5  A    between atoms: C_6  and  C_11
REMARK    6  A    between atoms: C_10  and  C_12
REMARK    7  A    between atoms: C_15  and  C_16
REMARK    8  A    between atoms: C_16  and  C_20
REMARK                            x       y       z     vdW  Elec       q    Type
REMARK                         _______ _______ _______ _____ _____    ______ ____
ROOT
ATOM      2  N   UNL     1      -2.444   3.758  25.796  0.00  0.00    -0.297 NA
ATOM      6  C   UNL     1      -4.553   3.452  24.746  0.00  0.00    +0.092 C 
ATOM      7  C   UNL     1      -4.710   4.098  26.131  0.00  0.00    +0.029 C 
ATOM      8  C   UNL     1      -3.034   3.415  24.499  0.00  0.00    +0.097 C 
ATOM      9  C   UNL     1      -3.354   4.729  26.401  0.00  0.00    +0.085 C 
ENDROOT
BRANCH   6  11
ATOM      1  O   UNL     1      -4.445   1.019  24.484  0.00  0.00    -0.424 OA
ATOM      3  N   UNL     1      -6.523   1.821  24.694  0.00  0.00    -0.112 NA
ATOM      4  N   UNL     1      -6.607   0.448  24.556  0.00  0.00    -0.112 NA
ATOM     11  C   UNL     1      -5.244   2.109  24.647  0.00  0.00    +0.222 A 
ATOM     15  C   UNL     1      -5.371   0.022  24.435  0.00  0.00    +0.222 A 
BRANCH  15  16
ATOM     16  C   UNL     1      -4.865  -1.345  24.264  0.00  0.00    +0.132 C 
BRANCH  16  20
ATOM     20  C   UNL     1      -3.421  -1.552  24.708  0.00  0.00    -0.038 A 
ATOM     23  C   UNL     1      -2.588  -2.411  23.992  0.00  0.00    +0.004 A 
ATOM     24  C   UNL     1      -2.933  -0.882  25.830  0.00  0.00    +0.004 A 
ATOM     25  C   UNL     1      -1.266  -2.600  24.397  0.00  0.00    +0.000 A 
ATOM     26  C   UNL     1      -1.612  -1.071  26.236  0.00  0.00    +0.000 A 
ATOM     27  C   UNL     1      -0.779  -1.930  25.520  0.00  0.00    +0.000 A 
ENDBRANCH  16  20
ENDBRANCH  15  16
ENDBRANCH   6  11
BRANCH   2  10
ATOM     10  C   UNL     1      -1.086   4.265  25.676  0.00  0.00    +0.119 C 
BRANCH  10  12
ATOM     12  C   UNL     1      -0.195   3.309  24.929  0.00  0.00    -0.033 A 
ATOM     13  C   UNL     1       0.506   3.743  23.803  0.00  0.00    +0.007 A 
ATOM     14  C   UNL     1      -0.070   1.989  25.362  0.00  0.00    +0.007 A 
ATOM     17  C   UNL     1       1.331   2.857  23.111  0.00  0.00    +0.023 A 
ATOM     18  C   UNL     1       0.756   1.103  24.669  0.00  0.00    +0.023 A 
ATOM     19  C   UNL     1       1.455   1.537  23.544  0.00  0.00    +0.029 A 
BRANCH  19   5
ATOM      5  N   UNL     1       2.291   0.641  22.844  0.00  0.00    -0.336 N 
ATOM     21  C   UNL     1       3.726   0.838  22.826  0.00  0.00    +0.129 C 
ATOM     22  C   UNL     1       1.723  -0.483  22.126  0.00  0.00    +0.129 C 
ENDBRANCH  19   5
ENDBRANCH  10  12
ENDBRANCH   2  10
TORSDOF 6
ENDMDL
MODEL 5
REMARK VINA RESULT:       1.7      1.789      4.637
REMARK  Name = 51137389
REMARK  8 active torsions:
REMARK  status: ('A' for Active; 'I' for Inactive)
REMARK    1  A    between atoms: N_2  and  C_10
REMARK    2  A    between atoms: N_5  and  C_19
REMARK    3  A    between atoms: N_5  and  C_21
REMARK    4  A    between atoms: N_5  and  C_22
REMARK    5  A    between atoms: C_6  and  C_11
REMARK    6  A    between atoms: C_10  and  C_12
REMARK    7  A    between atoms: C_15  and  C_16
REMARK    8  A    between atoms: C_16  and  C_20
REMARK                            x       y       z     vdW  Elec       q    Type
REMARK                         _______ _______ _______ _____ _____    ______ ____
ROOT
ATOM      2  N   UNL     1       0.192   1.083  23.439  0.00  0.00    -0.297 NA
ATOM      6  C   UNL     1      -1.045   2.981  24.155  0.00  0.00    +0.092 C 
ATOM      7  C   UNL     1       0.037   2.604  25.178  0.00  0.00    +0.029 C 
ATOM      8  C   UNL     1      -0.783   2.062  22.948  0.00  0.00    +0.097 C 
ATOM      9  C   UNL     1       1.052   1.812  24.369  0.00  0.00    +0.085 C 
ENDROOT
BRANCH   6  11
ATOM      1  O   UNL     1      -3.031   1.665  24.724  0.00  0.00    -0.424 OA
ATOM      3  N   UNL     1      -3.200   3.837  25.235  0.00  0.00    -0.112 NA
ATOM      4  N   UNL     1      -4.379   3.218  25.607  0.00  0.00    -0.112 NA
ATOM     11  C   UNL     1      -2.444   2.893  24.726  0.00  0.00    +0.222 A 
ATOM     15  C   UNL     1      -4.236   1.952  25.290  0.00  0.00    +0.222 A 
BRANCH  15  16
ATOM     16  C   UNL     1      -5.171   0.834  25.460  0.00  0.00    +0.132 C 
BRANCH  16  20
ATOM     20  C   UNL     1      -4.591  -0.539  25.138  0.00  0.00    -0.038 A 
ATOM     23  C   UNL     1      -4.871  -1.145  23.913  0.00  0.00    +0.004 A 
ATOM     24  C   UNL     1      -3.779  -1.189  26.068  0.00  0.00    +0.004 A 
ATOM     25  C   UNL     1      -4.339  -2.400  23.618  0.00  0.00    +0.000 A 
ATOM     26  C   UNL     1      -3.248  -2.445  25.774  0.00  0.00    +0.000 A 
ATOM     27  C   UNL     1      -3.528  -3.050  24.549  0.00  0.00    +0.000 A 
ENDBRANCH  16  20
ENDBRANCH  15  16
ENDBRANCH   6  11
BRANCH   2  10
ATOM     10  C   UNL     1       0.941   0.452  22.363  0.00  0.00    +0.119 C 
BRANCH  10  12
ATOM     12  C   UNL     1       2.363   0.165  22.763  0.00  0.00    -0.033 A 
ATOM     13  C   UNL     1       3.356   1.120  22.544  0.00  0.00    +0.007 A 
ATOM     14  C   UNL     1       2.688  -1.057  23.352  0.00  0.00    +0.007 A 
ATOM     17  C   UNL     1       4.674   0.853  22.914  0.00  0.00    +0.023 A 
ATOM     18  C   UNL     1       4.006  -1.324  23.722  0.00  0.00    +0.023 A 
ATOM     19  C   UNL     1       4.999  -0.370  23.504  0.00  0.00    +0.029 A 
BRANCH  19   5
ATOM      5  N   UNL     1       6.332  -0.639  23.879  0.00  0.00    -0.336 N 
ATOM     21  C   UNL     1       7.426  -0.303  22.990  0.00  0.00    +0.129 C 
ATOM     22  C   UNL     1       6.624  -1.264  25.153  0.00  0.00    +0.129 C 
ENDBRANCH  19   5
ENDBRANCH  10  12
ENDBRANCH   2  10
TORSDOF 6
ENDMDL
MODEL 6
REMARK VINA RESULT:       1.7      2.321      4.110
REMARK  Name = 51137389
REMARK  8 active torsions:
REMARK  status: ('A' for Active; 'I' for Inactive)
REMARK    1  A    between atoms: N_2  and  C_10
REMARK    2  A    between atoms: N_5  and  C_19
REMARK    3  A    between atoms: N_5  and  C_21
REMARK    4  A    between atoms: N_5  and  C_22
REMARK    5  A    between atoms: C_6  and  C_11
REMARK    6  A    between atoms: C_10  and  C_12
REMARK    7  A    between atoms: C_15  and  C_16
REMARK    8  A    between atoms: C_16  and  C_20
REMARK                            x       y       z     vdW  Elec       q    Type
REMARK                         _______ _______ _______ _____ _____    ______ ____
ROOT
ATOM      2  N   UNL     1       0.017   0.325  23.524  0.00  0.00    -0.297 NA
ATOM      6  C   UNL     1       0.049   1.910  25.294  0.00  0.00    +0.092 C 
ATOM      7  C   UNL     1      -0.814   0.693  25.654  0.00  0.00    +0.029 C 
ATOM      8  C   UNL     1       0.718   1.537  23.958  0.00  0.00    +0.097 C 
ATOM      9  C   UNL     1      -0.295  -0.411  24.747  0.00  0.00    +0.085 C 
ENDROOT
BRANCH   6  11
ATOM      1  O   UNL     1      -2.093   3.094  25.381  0.00  0.00    -0.424 OA
ATOM      3  N   UNL     1      -0.320   4.437  25.150  0.00  0.00    -0.112 NA
ATOM      4  N   UNL     1      -1.452   5.229  25.185  0.00  0.00    -0.112 NA
ATOM     11  C   UNL     1      -0.741   3.200  25.267  0.00  0.00    +0.222 A 
ATOM     15  C   UNL     1      -2.464   4.403  25.321  0.00  0.00    +0.222 A 
BRANCH  15  16
ATOM     16  C   UNL     1      -3.900   4.689  25.417  0.00  0.00    +0.132 C 
BRANCH  16  20
ATOM     20  C   UNL     1      -4.802   3.460  25.375  0.00  0.00    -0.038 A 
ATOM     23  C   UNL     1      -5.682   3.205  26.426  0.00  0.00    +0.004 A 
ATOM     24  C   UNL     1      -4.747   2.592  24.285  0.00  0.00    +0.004 A 
ATOM     25  C   UNL     1      -6.508   2.082  26.388  0.00  0.00    +0.000 A 
ATOM     26  C   UNL     1      -5.571   1.468  24.246  0.00  0.00    +0.000 A 
ATOM     27  C   UNL     1      -6.452   1.213  25.297  0.00  0.00    +0.000 A 
ENDBRANCH  16  20
ENDBRANCH  15  16
ENDBRANCH   6  11
BRANCH   2  10
ATOM     10  C   UNL     1       0.794  -0.463  22.580  0.00  0.00    +0.119 C 
BRANCH  10  12
ATOM     12  C   UNL     1       2.274  -0.309  22.806  0.00  0.00    -0.033 A 
ATOM     13  C   UNL     1       2.977  -1.284  23.514  0.00  0.00    +0.007 A 
ATOM     14  C   UNL     1       2.943   0.809  22.308  0.00  0.00    +0.007 A 
ATOM     17  C   UNL     1       4.348  -1.142  23.724  0.00  0.00    +0.023 A 
ATOM     18  C   UNL     1       4.315   0.952  22.518  0.00  0.00    +0.023 A 
ATOM     19  C   UNL     1       5.017  -0.023  23.226  0.00  0.00    +0.029 A 
BRANCH  19   5
ATOM      5  N   UNL     1       6.405   0.121  23.437  0.00  0.00    -0.336 N 
ATOM     21  C   UNL     1       7.340  -0.797  22.820  0.00  0.00    +0.129 C 
ATOM     22  C   UNL     1       6.912   1.184  24.283  0.00  0.00    +0.129 C 
ENDBRANCH  19   5
ENDBRANCH  10  12
ENDBRANCH   2  10
TORSDOF 6
ENDMDL
MODEL 7
REMARK VINA RESULT:       2.3      2.064      5.445
REMARK  Name = 51137389
REMARK  8 active torsions:
REMARK  status: ('A' for Active; 'I' for Inactive)
REMARK    1  A    between atoms: N_2  and  C_10
REMARK    2  A    between atoms: N_5  and  C_19
REMARK    3  A    between atoms: N_5  and  C_21
REMARK    4  A    between atoms: N_5  and  C_22
REMARK    5  A    between atoms: C_6  and  C_11
REMARK    6  A    between atoms: C_10  and  C_12
REMARK    7  A    between atoms: C_15  and  C_16
REMARK    8  A    between atoms: C_16  and  C_20
REMARK                            x       y       z     vdW  Elec       q    Type
REMARK                         _______ _______ _______ _____ _____    ______ ____
ROOT
ATOM      2  N   UNL     1      -5.027   2.510  25.196  0.00  0.00    -0.297 NA
ATOM      6  C   UNL     1      -3.637   4.193  26.134  0.00  0.00    +0.092 C 
ATOM      7  C   UNL     1      -4.872   4.805  25.456  0.00  0.00    +0.029 C 
ATOM      8  C   UNL     1      -3.879   2.673  26.092  0.00  0.00    +0.097 C 
ATOM      9  C   UNL     1      -5.883   3.670  25.432  0.00  0.00    +0.085 C 
ENDROOT
BRANCH   6  11
ATOM      1  O   UNL     1      -1.504   3.669  25.050  0.00  0.00    -0.424 OA
ATOM      3  N   UNL     1      -1.878   5.859  25.313  0.00  0.00    -0.112 NA
ATOM      4  N   UNL     1      -0.652   5.708  24.694  0.00  0.00    -0.112 NA
ATOM     11  C   UNL     1      -2.339   4.645  25.501  0.00  0.00    +0.222 A 
ATOM     15  C   UNL     1      -0.474   4.414  24.561  0.00  0.00    +0.222 A 
BRANCH  15  16
ATOM     16  C   UNL     1       0.652   3.680  23.969  0.00  0.00    +0.132 C 
BRANCH  16  20
ATOM     20  C   UNL     1       0.498   2.163  23.973  0.00  0.00    -0.038 A 
ATOM     23  C   UNL     1      -0.511   1.566  24.729  0.00  0.00    +0.004 A 
ATOM     24  C   UNL     1       1.365   1.372  23.220  0.00  0.00    +0.004 A 
ATOM     25  C   UNL     1      -0.652   0.178  24.732  0.00  0.00    +0.000 A 
ATOM     26  C   UNL     1       1.225  -0.016  23.222  0.00  0.00    +0.000 A 
ATOM     27  C   UNL     1       0.216  -0.613  23.978  0.00  0.00    +0.000 A 
ENDBRANCH  16  20
ENDBRANCH  15  16
ENDBRANCH   6  11
BRANCH   2  10
ATOM     10  C   UNL     1      -5.724   1.250  25.404  0.00  0.00    +0.119 C 
BRANCH  10  12
ATOM     12  C   UNL     1      -4.837   0.065  25.126  0.00  0.00    -0.033 A 
ATOM     13  C   UNL     1      -4.119  -0.528  26.164  0.00  0.00    +0.007 A 
ATOM     14  C   UNL     1      -4.734  -0.439  23.830  0.00  0.00    +0.007 A 
ATOM     17  C   UNL     1      -3.297  -1.625  25.906  0.00  0.00    +0.023 A 
ATOM     18  C   UNL     1      -3.912  -1.536  23.572  0.00  0.00    +0.023 A 
ATOM     19  C   UNL     1      -3.194  -2.129  24.609  0.00  0.00    +0.029 A 
BRANCH  19   5
ATOM      5  N   UNL     1      -2.363  -3.239  24.348  0.00  0.00    -0.336 N 
ATOM     21  C   UNL     1      -1.159  -3.452  25.126  0.00  0.00    +0.129 C 
ATOM     22  C   UNL     1      -2.698  -4.175  23.294  0.00  0.00    +0.129 C 
ENDBRANCH  19   5
ENDBRANCH  10  12
ENDBRANCH   2  10
TORSDOF 6
ENDMDL
MODEL 8
REMARK VINA RESULT:       3.3      1.858      6.192
REMARK  Name = 51137389
REMARK  8 active torsions:
REMARK  status: ('A' for Active; 'I' for Inactive)
REMARK    1  A    between atoms: N_2  and  C_10
REMARK    2  A    between atoms: N_5  and  C_19
REMARK    3  A    between atoms: N_5  and  C_21
REMARK    4  A    between atoms: N_5  and  C_22
REMARK    5  A    between atoms: C_6  and  C_11
REMARK    6  A    between atoms: C_10  and  C_12
REMARK    7  A    between atoms: C_15  and  C_16
REMARK    8  A    between atoms: C_16  and  C_20
REMARK                            x       y       z     vdW  Elec       q    Type
REMARK                         _______ _______ _______ _____ _____    ______ ____
ROOT
ATOM      2  N   UNL     1      -3.011  -1.160  25.104  0.00  0.00    -0.297 NA
ATOM      6  C   UNL     1      -1.296  -1.648  23.533  0.00  0.00    +0.092 C 
ATOM      7  C   UNL     1      -1.269  -2.634  24.711  0.00  0.00    +0.029 C 
ATOM      8  C   UNL     1      -2.571  -0.813  23.749  0.00  0.00    +0.097 C 
ATOM      9  C   UNL     1      -2.677  -2.572  25.278  0.00  0.00    +0.085 C 
ENDROOT
BRANCH   6  11
ATOM      1  O   UNL     1      -0.084   0.463  23.806  0.00  0.00    -0.424 OA
ATOM      3  N   UNL     1       1.165  -1.206  22.994  0.00  0.00    -0.112 NA
ATOM      4  N   UNL     1       1.967  -0.084  23.097  0.00  0.00    -0.112 NA
ATOM     11  C   UNL     1      -0.022  -0.840  23.418  0.00  0.00    +0.222 A 
ATOM     15  C   UNL     1       1.196   0.865  23.575  0.00  0.00    +0.222 A 
BRANCH  15  16
ATOM     16  C   UNL     1       1.518   2.263  23.888  0.00  0.00    +0.132 C 
BRANCH  16  20
ATOM     20  C   UNL     1       0.382   3.052  24.529  0.00  0.00    -0.038 A 
ATOM     23  C   UNL     1      -0.252   2.561  25.670  0.00  0.00    +0.004 A 
ATOM     24  C   UNL     1      -0.023   4.266  23.975  0.00  0.00    +0.004 A 
ATOM     25  C   UNL     1      -1.291   3.284  26.257  0.00  0.00    +0.000 A 
ATOM     26  C   UNL     1      -1.062   4.989  24.560  0.00  0.00    +0.000 A 
ATOM     27  C   UNL     1      -1.696   4.498  25.702  0.00  0.00    +0.000 A 
ENDBRANCH  16  20
ENDBRANCH  15  16
ENDBRANCH   6  11
BRANCH   2  10
ATOM     10  C   UNL     1      -4.424  -0.889  25.319  0.00  0.00    +0.119 C 
BRANCH  10  12
ATOM     12  C   UNL     1      -4.731   0.583  25.241  0.00  0.00    -0.033 A 
ATOM     13  C   UNL     1      -5.735   1.130  26.040  0.00  0.00    +0.007 A 
ATOM     14  C   UNL     1      -4.011   1.400  24.369  0.00  0.00    +0.007 A 
ATOM     17  C   UNL     1      -6.019   2.493  25.967  0.00  0.00    +0.023 A 
ATOM     18  C   UNL     1      -4.295   2.763  24.296  0.00  0.00    +0.023 A 
ATOM     19  C   UNL     1      -5.299   3.310  25.094  0.00  0.00    +0.029 A 
BRANCH  19   5
ATOM      5  N   UNL     1      -5.587   4.689  25.021  0.00  0.00    -0.336 N 
ATOM     21  C   UNL     1      -6.648   5.261  25.825  0.00  0.00    +0.129 C 
ATOM     22  C   UNL     1      -4.830   5.551  24.134  0.00  0.00    +0.129 C 
ENDBRANCH  19   5
ENDBRANCH  10  12
ENDBRANCH   2  10
TORSDOF 6
ENDMDL
