MODEL 1
REMARK VINA RESULT:      -3.8      0.000      0.000
REMARK  Name = 75537028
REMARK  6 active torsions:
REMARK  status: ('A' for Active; 'I' for Inactive)
REMARK    1  A    between atoms: S_1  and  N_7
REMARK    2  A    between atoms: S_1  and  C_16
REMARK    3  A    between atoms: O_5  and  C_17
REMARK    4  A    between atoms: O_5  and  C_23
REMARK    5  A    between atoms: N_8  and  C_15
REMARK    6  A    between atoms: C_15  and  C_17
REMARK                            x       y       z     vdW  Elec       q    Type
REMARK                         _______ _______ _______ _____ _____    ______ ____
ROOT
ATOM      2  O   UNL     1      -5.292 -10.263  16.765  0.00  0.00    -0.252 OA
ATOM      6  N   UNL     1      -5.871 -10.464  14.497  0.00  0.00    -0.278 N 
ATOM      7  N   UNL     1      -5.674 -10.117  11.730  0.00  0.00    -0.173 NA
ATOM      8  N   UNL     1      -7.492  -9.970  15.971  0.00  0.00    -0.281 N 
ATOM      9  C   UNL     1      -7.090 -10.469  13.712  0.00  0.00    +0.111 C 
ATOM     10  C   UNL     1      -6.908  -9.644  12.442  0.00  0.00    +0.133 C 
ATOM     11  C   UNL     1      -8.146  -9.930  14.674  0.00  0.00    +0.133 C 
ATOM     12  C   UNL     1      -4.607 -10.781  13.862  0.00  0.00    +0.127 C 
ATOM     13  C   UNL     1      -4.448  -9.968  12.582  0.00  0.00    +0.128 C 
ATOM     14  C   UNL     1      -6.115 -10.239  15.859  0.00  0.00    +0.305 C 
ENDROOT
BRANCH   7   1
ATOM      1  S   UNL     1      -5.511  -9.570  10.113  0.00  0.00    +0.061 S 
ATOM      3  O   UNL     1      -4.843 -10.590   9.336  0.00  0.00    -0.153 OA
ATOM      4  O   UNL     1      -5.029  -8.206  10.127  0.00  0.00    -0.153 OA
BRANCH   1  16
ATOM     16  C   UNL     1      -7.208  -9.543   9.626  0.00  0.00    +0.105 A 
ATOM     18  C   UNL     1      -7.892 -10.740   9.415  0.00  0.00    +0.028 A 
ATOM     19  C   UNL     1      -7.863  -8.325   9.449  0.00  0.00    +0.028 A 
ATOM     20  C   UNL     1      -9.231 -10.720   9.027  0.00  0.00    +0.002 A 
ATOM     21  C   UNL     1      -9.203  -8.305   9.060  0.00  0.00    +0.002 A 
ATOM     22  C   UNL     1      -9.886  -9.502   8.849  0.00  0.00    +0.000 A 
ENDBRANCH   1  16
ENDBRANCH   7   1
BRANCH   8  15
ATOM     15  C   UNL     1      -8.192  -9.633  17.191  0.00  0.00    +0.137 C 
BRANCH  15  17
ATOM     17  C   UNL     1      -9.613  -9.179  16.912  0.00  0.00    +0.178 C 
BRANCH  17   5
ATOM      5  O   UNL     1      -9.735  -7.796  17.214  0.00  0.00    -0.381 OA
ATOM     23  C   UNL     1     -10.076  -7.038  16.061  0.00  0.00    +0.194 C 
ENDBRANCH  17   5
ENDBRANCH  15  17
ENDBRANCH   8  15
TORSDOF 5
ENDMDL
MODEL 2
REMARK VINA RESULT:      -3.2      1.245      1.619
REMARK  Name = 75537028
REMARK  6 active torsions:
REMARK  status: ('A' for Active; 'I' for Inactive)
REMARK    1  A    between atoms: S_1  and  N_7
REMARK    2  A    between atoms: S_1  and  C_16
REMARK    3  A    between atoms: O_5  and  C_17
REMARK    4  A    between atoms: O_5  and  C_23
REMARK    5  A    between atoms: N_8  and  C_15
REMARK    6  A    between atoms: C_15  and  C_17
REMARK                            x       y       z     vdW  Elec       q    Type
REMARK                         _______ _______ _______ _____ _____    ______ ____
ROOT
ATOM      2  O   UNL     1      -4.174 -10.189  17.266  0.00  0.00    -0.252 OA
ATOM      6  N   UNL     1      -4.654 -10.522  14.990  0.00  0.00    -0.278 N 
ATOM      7  N   UNL     1      -4.389 -10.262  12.219  0.00  0.00    -0.173 NA
ATOM      8  N   UNL     1      -6.361 -10.108  16.391  0.00  0.00    -0.281 N 
ATOM      9  C   UNL     1      -5.840 -10.656  14.167  0.00  0.00    +0.111 C 
ATOM     10  C   UNL     1      -5.681  -9.866  12.871  0.00  0.00    +0.133 C 
ATOM     11  C   UNL     1      -6.970 -10.170  15.073  0.00  0.00    +0.133 C 
ATOM     12  C   UNL     1      -3.347 -10.757  14.409  0.00  0.00    +0.127 C 
ATOM     13  C   UNL     1      -3.209  -9.981  13.103  0.00  0.00    +0.128 C 
ATOM     14  C   UNL     1      -4.963 -10.267  16.333  0.00  0.00    +0.305 C 
ENDROOT
BRANCH   7   1
ATOM      1  S   UNL     1      -4.214  -9.764  10.588  0.00  0.00    +0.061 S 
ATOM      3  O   UNL     1      -3.486 -10.781   9.860  0.00  0.00    -0.153 OA
ATOM      4  O   UNL     1      -3.791  -8.381  10.563  0.00  0.00    -0.153 OA
BRANCH   1  16
ATOM     16  C   UNL     1      -5.899  -9.828  10.065  0.00  0.00    +0.105 A 
ATOM     18  C   UNL     1      -6.842  -8.983  10.650  0.00  0.00    +0.028 A 
ATOM     19  C   UNL     1      -6.288 -10.724   9.070  0.00  0.00    +0.028 A 
ATOM     20  C   UNL     1      -8.175  -9.034  10.241  0.00  0.00    +0.002 A 
ATOM     21  C   UNL     1      -7.620 -10.776   8.661  0.00  0.00    +0.002 A 
ATOM     22  C   UNL     1      -8.564  -9.932   9.246  0.00  0.00    +0.000 A 
ENDBRANCH   1  16
ENDBRANCH   7   1
BRANCH   8  15
ATOM     15  C   UNL     1      -7.128  -9.785  17.573  0.00  0.00    +0.137 C 
BRANCH  15  17
ATOM     17  C   UNL     1      -8.594  -9.572  17.246  0.00  0.00    +0.178 C 
BRANCH  17   5
ATOM      5  O   UNL     1      -8.985  -8.267  17.652  0.00  0.00    -0.381 OA
ATOM     23  C   UNL     1     -10.145  -7.830  16.958  0.00  0.00    +0.194 C 
ENDBRANCH  17   5
ENDBRANCH  15  17
ENDBRANCH   8  15
TORSDOF 5
ENDMDL
MODEL 3
REMARK VINA RESULT:      -1.7     15.978     18.215
REMARK  Name = 75537028
REMARK  6 active torsions:
REMARK  status: ('A' for Active; 'I' for Inactive)
REMARK    1  A    between atoms: S_1  and  N_7
REMARK    2  A    between atoms: S_1  and  C_16
REMARK    3  A    between atoms: O_5  and  C_17
REMARK    4  A    between atoms: O_5  and  C_23
REMARK    5  A    between atoms: N_8  and  C_15
REMARK    6  A    between atoms: C_15  and  C_17
REMARK                            x       y       z     vdW  Elec       q    Type
REMARK                         _______ _______ _______ _____ _____    ______ ____
ROOT
ATOM      2  O   UNL     1       0.955  -0.747  21.257  0.00  0.00    -0.252 OA
ATOM      6  N   UNL     1       0.188   0.484  23.106  0.00  0.00    -0.278 N 
ATOM      7  N   UNL     1      -1.408   2.264  24.553  0.00  0.00    -0.173 NA
ATOM      8  N   UNL     1       2.400   0.407  22.719  0.00  0.00    -0.281 N 
ATOM      9  C   UNL     1       0.779   1.182  24.231  0.00  0.00    +0.111 C 
ATOM     10  C   UNL     1       0.070   2.513  24.463  0.00  0.00    +0.133 C 
ATOM     11  C   UNL     1       2.253   1.305  23.852  0.00  0.00    +0.133 C 
ATOM     12  C   UNL     1      -1.249   0.311  23.042  0.00  0.00    +0.127 C 
ATOM     13  C   UNL     1      -1.947   1.643  23.299  0.00  0.00    +0.128 C 
ATOM     14  C   UNL     1       1.155  -0.043  22.239  0.00  0.00    +0.305 C 
ENDROOT
BRANCH   7   1
ATOM      1  S   UNL     1      -2.329   3.570  25.176  0.00  0.00    +0.061 S 
ATOM      3  O   UNL     1      -2.385   4.622  24.185  0.00  0.00    -0.153 OA
ATOM      4  O   UNL     1      -1.900   3.842  26.530  0.00  0.00    -0.153 OA
BRANCH   1  16
ATOM     16  C   UNL     1      -3.922   2.813  25.252  0.00  0.00    +0.105 A 
ATOM     18  C   UNL     1      -4.056   1.446  25.008  0.00  0.00    +0.028 A 
ATOM     19  C   UNL     1      -5.046   3.582  25.552  0.00  0.00    +0.028 A 
ATOM     20  C   UNL     1      -5.315   0.848  25.064  0.00  0.00    +0.002 A 
ATOM     21  C   UNL     1      -6.305   2.983  25.608  0.00  0.00    +0.002 A 
ATOM     22  C   UNL     1      -6.439   1.617  25.364  0.00  0.00    +0.000 A 
ENDBRANCH   1  16
ENDBRANCH   7   1
BRANCH   8  15
ATOM     15  C   UNL     1       3.686   0.147  22.111  0.00  0.00    +0.137 C 
BRANCH  15  17
ATOM     17  C   UNL     1       4.810   0.832  22.867  0.00  0.00    +0.178 C 
BRANCH  17   5
ATOM      5  O   UNL     1       5.808  -0.124  23.199  0.00  0.00    -0.381 OA
ATOM     23  C   UNL     1       5.399  -0.954  24.277  0.00  0.00    +0.194 C 
ENDBRANCH  17   5
ENDBRANCH  15  17
ENDBRANCH   8  15
TORSDOF 5
ENDMDL
MODEL 4
REMARK VINA RESULT:      -1.3     15.462     17.564
REMARK  Name = 75537028
REMARK  6 active torsions:
REMARK  status: ('A' for Active; 'I' for Inactive)
REMARK    1  A    between atoms: S_1  and  N_7
REMARK    2  A    between atoms: S_1  and  C_16
REMARK    3  A    between atoms: O_5  and  C_17
REMARK    4  A    between atoms: O_5  and  C_23
REMARK    5  A    between atoms: N_8  and  C_15
REMARK    6  A    between atoms: C_15  and  C_17
REMARK                            x       y       z     vdW  Elec       q    Type
REMARK                         _______ _______ _______ _____ _____    ______ ____
ROOT
ATOM      2  O   UNL     1       2.530  -1.316  23.193  0.00  0.00    -0.252 OA
ATOM      6  N   UNL     1       0.538  -0.594  24.211  0.00  0.00    -0.278 N 
ATOM      7  N   UNL     1      -2.190  -0.534  24.816  0.00  0.00    -0.173 NA
ATOM      8  N   UNL     1       1.940   0.958  23.389  0.00  0.00    -0.281 N 
ATOM      9  C   UNL     1      -0.056   0.672  24.594  0.00  0.00    +0.111 C 
ATOM     10  C   UNL     1      -1.540   0.691  24.241  0.00  0.00    +0.133 C 
ATOM     11  C   UNL     1       0.787   1.709  23.855  0.00  0.00    +0.133 C 
ATOM     12  C   UNL     1      -0.095  -1.835  24.610  0.00  0.00    +0.127 C 
ATOM     13  C   UNL     1      -1.582  -1.794  24.274  0.00  0.00    +0.128 C 
ATOM     14  C   UNL     1       1.767  -0.430  23.555  0.00  0.00    +0.305 C 
ENDROOT
BRANCH   7   1
ATOM      1  S   UNL     1      -3.904  -0.503  24.843  0.00  0.00    +0.061 S 
ATOM      3  O   UNL     1      -4.362  -0.923  26.150  0.00  0.00    -0.153 OA
ATOM      4  O   UNL     1      -4.403  -1.132  23.640  0.00  0.00    -0.153 OA
BRANCH   1  16
ATOM     16  C   UNL     1      -4.182   1.235  24.705  0.00  0.00    +0.105 A 
ATOM     18  C   UNL     1      -4.973   1.891  25.648  0.00  0.00    +0.028 A 
ATOM     19  C   UNL     1      -3.614   1.951  23.651  0.00  0.00    +0.028 A 
ATOM     20  C   UNL     1      -5.196   3.264  25.538  0.00  0.00    +0.002 A 
ATOM     21  C   UNL     1      -3.838   3.323  23.541  0.00  0.00    +0.002 A 
ATOM     22  C   UNL     1      -4.629   3.979  24.483  0.00  0.00    +0.000 A 
ENDBRANCH   1  16
ENDBRANCH   7   1
BRANCH   8  15
ATOM     15  C   UNL     1       3.050   1.598  22.720  0.00  0.00    +0.137 C 
BRANCH  15  17
ATOM     17  C   UNL     1       4.255   0.679  22.633  0.00  0.00    +0.178 C 
BRANCH  17   5
ATOM      5  O   UNL     1       5.031   0.804  23.817  0.00  0.00    -0.381 OA
ATOM     23  C   UNL     1       5.630  -0.432  24.181  0.00  0.00    +0.194 C 
ENDBRANCH  17   5
ENDBRANCH  15  17
ENDBRANCH   8  15
TORSDOF 5
ENDMDL
MODEL 5
REMARK VINA RESULT:      -1.2     15.315     17.740
REMARK  Name = 75537028
REMARK  6 active torsions:
REMARK  status: ('A' for Active; 'I' for Inactive)
REMARK    1  A    between atoms: S_1  and  N_7
REMARK    2  A    between atoms: S_1  and  C_16
REMARK    3  A    between atoms: O_5  and  C_17
REMARK    4  A    between atoms: O_5  and  C_23
REMARK    5  A    between atoms: N_8  and  C_15
REMARK    6  A    between atoms: C_15  and  C_17
REMARK                            x       y       z     vdW  Elec       q    Type
REMARK                         _______ _______ _______ _____ _____    ______ ____
ROOT
ATOM      2  O   UNL     1      -1.382  -2.970  23.592  0.00  0.00    -0.252 OA
ATOM      6  N   UNL     1      -2.381  -1.206  24.780  0.00  0.00    -0.278 N 
ATOM      7  N   UNL     1      -4.299   0.719  25.437  0.00  0.00    -0.173 NA
ATOM      8  N   UNL     1      -0.196  -1.054  24.284  0.00  0.00    -0.281 N 
ATOM      9  C   UNL     1      -1.943   0.010  25.438  0.00  0.00    +0.111 C 
ATOM     10  C   UNL     1      -2.898   1.158  25.127  0.00  0.00    +0.133 C 
ATOM     11  C   UNL     1      -0.519   0.210  24.923  0.00  0.00    +0.133 C 
ATOM     12  C   UNL     1      -3.758  -1.639  24.916  0.00  0.00    +0.127 C 
ATOM     13  C   UNL     1      -4.702  -0.477  24.625  0.00  0.00    +0.128 C 
ATOM     14  C   UNL     1      -1.327  -1.882  24.151  0.00  0.00    +0.305 C 
ENDROOT
BRANCH   7   1
ATOM      1  S   UNL     1      -5.459   1.980  25.505  0.00  0.00    +0.061 S 
ATOM      3  O   UNL     1      -5.975   2.074  26.853  0.00  0.00    -0.153 OA
ATOM      4  O   UNL     1      -6.349   1.858  24.371  0.00  0.00    -0.153 OA
BRANCH   1  16
ATOM     16  C   UNL     1      -4.412   3.375  25.227  0.00  0.00    +0.105 A 
ATOM     18  C   UNL     1      -4.324   3.938  23.954  0.00  0.00    +0.028 A 
ATOM     19  C   UNL     1      -3.671   3.911  26.280  0.00  0.00    +0.028 A 
ATOM     20  C   UNL     1      -3.495   5.037  23.733  0.00  0.00    +0.002 A 
ATOM     21  C   UNL     1      -2.842   5.010  26.059  0.00  0.00    +0.002 A 
ATOM     22  C   UNL     1      -2.753   5.573  24.786  0.00  0.00    +0.000 A 
ENDBRANCH   1  16
ENDBRANCH   7   1
BRANCH   8  15
ATOM     15  C   UNL     1       1.119  -1.325  23.746  0.00  0.00    +0.137 C 
BRANCH  15  17
ATOM     17  C   UNL     1       1.599  -0.198  22.851  0.00  0.00    +0.178 C 
BRANCH  17   5
ATOM      5  O   UNL     1       3.001  -0.314  22.655  0.00  0.00    -0.381 OA
ATOM     23  C   UNL     1       3.646   0.950  22.729  0.00  0.00    +0.194 C 
ENDBRANCH  17   5
ENDBRANCH  15  17
ENDBRANCH   8  15
TORSDOF 5
ENDMDL
MODEL 6
REMARK VINA RESULT:      -1.2     15.739     17.706
REMARK  Name = 75537028
REMARK  6 active torsions:
REMARK  status: ('A' for Active; 'I' for Inactive)
REMARK    1  A    between atoms: S_1  and  N_7
REMARK    2  A    between atoms: S_1  and  C_16
REMARK    3  A    between atoms: O_5  and  C_17
REMARK    4  A    between atoms: O_5  and  C_23
REMARK    5  A    between atoms: N_8  and  C_15
REMARK    6  A    between atoms: C_15  and  C_17
REMARK                            x       y       z     vdW  Elec       q    Type
REMARK                         _______ _______ _______ _____ _____    ______ ____
ROOT
ATOM      2  O   UNL     1       2.546   2.100  23.750  0.00  0.00    -0.252 OA
ATOM      6  N   UNL     1       0.462   1.045  23.502  0.00  0.00    -0.278 N 
ATOM      7  N   UNL     1      -2.109   0.190  24.188  0.00  0.00    -0.173 NA
ATOM      8  N   UNL     1       2.305  -0.069  22.860  0.00  0.00    -0.281 N 
ATOM      9  C   UNL     1      -0.041  -0.178  22.907  0.00  0.00    +0.111 C 
ATOM     10  C   UNL     1      -1.071  -0.831  23.823  0.00  0.00    +0.133 C 
ATOM     11  C   UNL     1       1.216  -1.012  22.669  0.00  0.00    +0.133 C 
ATOM     12  C   UNL     1      -0.470   2.034  24.005  0.00  0.00    +0.127 C 
ATOM     13  C   UNL     1      -1.509   1.366  24.900  0.00  0.00    +0.128 C 
ATOM     14  C   UNL     1       1.857   1.148  23.411  0.00  0.00    +0.305 C 
ENDROOT
BRANCH   7   1
ATOM      1  S   UNL     1      -3.535  -0.444  24.901  0.00  0.00    +0.061 S 
ATOM      3  O   UNL     1      -3.212  -0.978  26.206  0.00  0.00    -0.153 OA
ATOM      4  O   UNL     1      -4.233  -1.243  23.918  0.00  0.00    -0.153 OA
BRANCH   1  16
ATOM     16  C   UNL     1      -4.449   1.048  25.138  0.00  0.00    +0.105 A 
ATOM     18  C   UNL     1      -4.058   2.216  24.483  0.00  0.00    +0.028 A 
ATOM     19  C   UNL     1      -5.559   1.060  25.982  0.00  0.00    +0.028 A 
ATOM     20  C   UNL     1      -4.777   3.396  24.672  0.00  0.00    +0.002 A 
ATOM     21  C   UNL     1      -6.278   2.240  26.171  0.00  0.00    +0.002 A 
ATOM     22  C   UNL     1      -5.887   3.407  25.517  0.00  0.00    +0.000 A 
ENDBRANCH   1  16
ENDBRANCH   7   1
BRANCH   8  15
ATOM     15  C   UNL     1       3.683  -0.434  22.624  0.00  0.00    +0.137 C 
BRANCH  15  17
ATOM     17  C   UNL     1       4.207  -1.366  23.702  0.00  0.00    +0.178 C 
BRANCH  17   5
ATOM      5  O   UNL     1       5.356  -0.790  24.308  0.00  0.00    -0.381 OA
ATOM     23  C   UNL     1       5.651   0.487  23.758  0.00  0.00    +0.194 C 
ENDBRANCH  17   5
ENDBRANCH  15  17
ENDBRANCH   8  15
TORSDOF 5
ENDMDL
MODEL 7
REMARK VINA RESULT:      -0.3     16.479     18.032
REMARK  Name = 75537028
REMARK  6 active torsions:
REMARK  status: ('A' for Active; 'I' for Inactive)
REMARK    1  A    between atoms: S_1  and  N_7
REMARK    2  A    between atoms: S_1  and  C_16
REMARK    3  A    between atoms: O_5  and  C_17
REMARK    4  A    between atoms: O_5  and  C_23
REMARK    5  A    between atoms: N_8  and  C_15
REMARK    6  A    between atoms: C_15  and  C_17
REMARK                            x       y       z     vdW  Elec       q    Type
REMARK                         _______ _______ _______ _____ _____    ______ ____
ROOT
ATOM      2  O   UNL     1      -1.508   5.156  25.367  0.00  0.00    -0.252 OA
ATOM      6  N   UNL     1      -0.986   2.894  25.005  0.00  0.00    -0.278 N 
ATOM      7  N   UNL     1       0.251   0.673  23.844  0.00  0.00    -0.173 NA
ATOM      8  N   UNL     1      -3.145   3.463  25.256  0.00  0.00    -0.281 N 
ATOM      9  C   UNL     1      -1.698   1.631  25.001  0.00  0.00    +0.111 C 
ATOM     10  C   UNL     1      -1.247   0.769  23.826  0.00  0.00    +0.133 C 
ATOM     11  C   UNL     1      -3.168   2.041  24.961  0.00  0.00    +0.133 C 
ATOM     12  C   UNL     1       0.459   2.904  24.893  0.00  0.00    +0.127 C 
ATOM     13  C   UNL     1       0.899   2.021  23.730  0.00  0.00    +0.128 C 
ATOM     14  C   UNL     1      -1.837   3.985  25.230  0.00  0.00    +0.305 C 
ENDROOT
BRANCH   7   1
ATOM      1  S   UNL     1       0.914  -0.544  22.833  0.00  0.00    +0.061 S 
ATOM      3  O   UNL     1       0.640  -0.211  21.453  0.00  0.00    -0.153 OA
ATOM      4  O   UNL     1       0.568  -1.840  23.372  0.00  0.00    -0.153 OA
BRANCH   1  16
ATOM     16  C   UNL     1       2.636  -0.277  23.122  0.00  0.00    +0.105 A 
ATOM     18  C   UNL     1       3.229   0.925  22.735  0.00  0.00    +0.028 A 
ATOM     19  C   UNL     1       3.403  -1.269  23.733  0.00  0.00    +0.028 A 
ATOM     20  C   UNL     1       4.590   1.135  22.959  0.00  0.00    +0.002 A 
ATOM     21  C   UNL     1       4.763  -1.058  23.957  0.00  0.00    +0.002 A 
ATOM     22  C   UNL     1       5.357   0.143  23.570  0.00  0.00    +0.000 A 
ENDBRANCH   1  16
ENDBRANCH   7   1
BRANCH   8  15
ATOM     15  C   UNL     1      -4.359   4.231  25.417  0.00  0.00    +0.137 C 
BRANCH  15  17
ATOM     17  C   UNL     1      -5.590   3.344  25.379  0.00  0.00    +0.178 C 
BRANCH  17   5
ATOM      5  O   UNL     1      -5.804   2.777  26.665  0.00  0.00    -0.381 OA
ATOM     23  C   UNL     1      -6.531   1.559  26.583  0.00  0.00    +0.194 C 
ENDBRANCH  17   5
ENDBRANCH  15  17
ENDBRANCH   8  15
TORSDOF 5
ENDMDL
MODEL 8
REMARK VINA RESULT:      -0.1     14.857     17.375
REMARK  Name = 75537028
REMARK  6 active torsions:
REMARK  status: ('A' for Active; 'I' for Inactive)
REMARK    1  A    between atoms: S_1  and  N_7
REMARK    2  A    between atoms: S_1  and  C_16
REMARK    3  A    between atoms: O_5  and  C_17
REMARK    4  A    between atoms: O_5  and  C_23
REMARK    5  A    between atoms: N_8  and  C_15
REMARK    6  A    between atoms: C_15  and  C_17
REMARK                            x       y       z     vdW  Elec       q    Type
REMARK                         _______ _______ _______ _____ _____    ______ ____
ROOT
ATOM      2  O   UNL     1      -1.433   5.530  24.982  0.00  0.00    -0.252 OA
ATOM      6  N   UNL     1      -1.183   3.230  25.395  0.00  0.00    -0.278 N 
ATOM      7  N   UNL     1      -0.439   0.578  24.923  0.00  0.00    -0.173 NA
ATOM      8  N   UNL     1      -3.164   4.187  25.850  0.00  0.00    -0.281 N 
ATOM      9  C   UNL     1      -1.964   2.175  26.009  0.00  0.00    +0.111 C 
ATOM     10  C   UNL     1      -1.883   0.899  25.177  0.00  0.00    +0.133 C 
ATOM     11  C   UNL     1      -3.365   2.774  26.121  0.00  0.00    +0.133 C 
ATOM     12  C   UNL     1       0.185   2.971  24.994  0.00  0.00    +0.127 C 
ATOM     13  C   UNL     1       0.257   1.682  24.183  0.00  0.00    +0.128 C 
ATOM     14  C   UNL     1      -1.870   4.452  25.364  0.00  0.00    +0.305 C 
ENDROOT
BRANCH   7   1
ATOM      1  S   UNL     1      -0.138  -1.003  24.329  0.00  0.00    +0.061 S 
ATOM      3  O   UNL     1       0.527  -1.774  25.356  0.00  0.00    -0.153 OA
ATOM      4  O   UNL     1       0.412  -0.904  22.995  0.00  0.00    -0.153 OA
BRANCH   1  16
ATOM     16  C   UNL     1      -1.794  -1.599  24.192  0.00  0.00    +0.105 A 
ATOM     18  C   UNL     1      -2.103  -2.897  24.598  0.00  0.00    +0.028 A 
ATOM     19  C   UNL     1      -2.793  -0.774  23.675  0.00  0.00    +0.028 A 
ATOM     20  C   UNL     1      -3.410  -3.371  24.487  0.00  0.00    +0.002 A 
ATOM     21  C   UNL     1      -4.100  -1.247  23.564  0.00  0.00    +0.002 A 
ATOM     22  C   UNL     1      -4.409  -2.545  23.969  0.00  0.00    +0.000 A 
ENDBRANCH   1  16
ENDBRANCH   7   1
BRANCH   8  15
ATOM     15  C   UNL     1      -4.241   5.146  25.957  0.00  0.00    +0.137 C 
BRANCH  15  17
ATOM     17  C   UNL     1      -5.535   4.599  25.382  0.00  0.00    +0.178 C 
BRANCH  17   5
ATOM      5  O   UNL     1      -5.909   3.425  26.091  0.00  0.00    -0.381 OA
ATOM     23  C   UNL     1      -6.180   2.346  25.208  0.00  0.00    +0.194 C 
ENDBRANCH  17   5
ENDBRANCH  15  17
ENDBRANCH   8  15
TORSDOF 5
ENDMDL
