MODEL 1
REMARK VINA RESULT:      -6.5      0.000      0.000
REMARK  Name = 75536113
REMARK  8 active torsions:
REMARK  status: ('A' for Active; 'I' for Inactive)
REMARK    1  A    between atoms: O_1  and  C_8
REMARK    2  A    between atoms: O_2  and  C_10
REMARK    3  A    between atoms: O_3  and  C_20
REMARK    4  A    between atoms: O_3  and  C_23
REMARK    5  A    between atoms: N_4  and  C_6
REMARK    6  A    between atoms: N_4  and  C_12
REMARK    7  A    between atoms: C_7  and  C_11
REMARK    8  A    between atoms: C_12  and  C_15
REMARK                            x       y       z     vdW  Elec       q    Type
REMARK                         _______ _______ _______ _____ _____    ______ ____
ROOT
ATOM      6  C   UNL     1      -1.053   1.131  23.249  0.00  0.00    +0.093 C 
ATOM      7  C   UNL     1      -1.965   0.748  24.455  0.00  0.00    +0.042 C 
ATOM      8  C   UNL     1       0.286   1.554  23.876  0.00  0.00    +0.160 C 
ATOM      9  C   UNL     1      -1.114   0.984  25.717  0.00  0.00    +0.043 C 
ATOM     10  C   UNL     1      -0.097   2.027  25.276  0.00  0.00    +0.145 C 
ENDROOT
BRANCH   7  11
ATOM      5  N   UNL     1      -2.197  -3.036  24.581  0.00  0.00    -0.263 NA
ATOM     11  C   UNL     1      -2.537  -0.651  24.375  0.00  0.00    -0.025 A 
ATOM     13  C   UNL     1      -3.870  -0.863  24.040  0.00  0.00    +0.007 A 
ATOM     14  C   UNL     1      -1.750  -1.761  24.635  0.00  0.00    +0.114 A 
ATOM     16  C   UNL     1      -4.367  -2.160  23.975  0.00  0.00    +0.020 A 
ATOM     17  C   UNL     1      -3.498  -3.203  24.252  0.00  0.00    +0.111 A 
ENDBRANCH   7  11
BRANCH   8   1
ATOM      1  O   UNL     1       1.132   0.408  23.943  0.00  0.00    -0.388 OA
ATOM     25  H   UNL     1       0.561  -0.372  24.037  0.00  0.00    +0.210 HD
ENDBRANCH   8   1
BRANCH  10   2
ATOM      2  O   UNL     1       1.008   2.074  26.154  0.00  0.00    -0.389 OA
ATOM     26  H   UNL     1       1.039   2.967  26.538  0.00  0.00    +0.210 HD
ENDBRANCH  10   2
BRANCH   6   4
ATOM      4  N   UNL     1      -1.644   2.261  22.528  0.00  0.00    -0.306 NA
ATOM     24  H   UNL     1      -1.452   2.159  21.531  0.00  0.00    +0.123 HD
BRANCH   4  12
ATOM     12  C   UNL     1      -3.087   2.301  22.719  0.00  0.00    +0.116 C 
BRANCH  12  15
ATOM     15  C   UNL     1      -3.464   2.988  24.005  0.00  0.00    -0.030 A 
ATOM     18  C   UNL     1      -4.628   2.619  24.677  0.00  0.00    +0.050 A 
ATOM     19  C   UNL     1      -2.647   3.993  24.524  0.00  0.00    +0.005 A 
ATOM     20  C   UNL     1      -4.978   3.255  25.868  0.00  0.00    +0.120 A 
ATOM     21  C   UNL     1      -2.996   4.629  25.714  0.00  0.00    +0.004 A 
ATOM     22  C   UNL     1      -4.161   4.260  26.387  0.00  0.00    +0.045 A 
BRANCH  20   3
ATOM      3  O   UNL     1      -6.116   2.897  26.522  0.00  0.00    -0.495 OA
ATOM     23  C   UNL     1      -6.462   1.513  26.510  0.00  0.00    +0.277 C 
ENDBRANCH  20   3
ENDBRANCH  12  15
ENDBRANCH   4  12
ENDBRANCH   6   4
TORSDOF 7
ENDMDL
MODEL 2
REMARK VINA RESULT:      -6.3      1.762      2.366
REMARK  Name = 75536113
REMARK  8 active torsions:
REMARK  status: ('A' for Active; 'I' for Inactive)
REMARK    1  A    between atoms: O_1  and  C_8
REMARK    2  A    between atoms: O_2  and  C_10
REMARK    3  A    between atoms: O_3  and  C_20
REMARK    4  A    between atoms: O_3  and  C_23
REMARK    5  A    between atoms: N_4  and  C_6
REMARK    6  A    between atoms: N_4  and  C_12
REMARK    7  A    between atoms: C_7  and  C_11
REMARK    8  A    between atoms: C_12  and  C_15
REMARK                            x       y       z     vdW  Elec       q    Type
REMARK                         _______ _______ _______ _____ _____    ______ ____
ROOT
ATOM      6  C   UNL     1      -0.640   0.913  24.850  0.00  0.00    +0.093 C 
ATOM      7  C   UNL     1      -0.641  -0.641  24.711  0.00  0.00    +0.042 C 
ATOM      8  C   UNL     1       0.340   1.413  23.777  0.00  0.00    +0.160 C 
ATOM      9  C   UNL     1       0.351  -0.961  23.576  0.00  0.00    +0.043 C 
ATOM     10  C   UNL     1       1.290   0.237  23.570  0.00  0.00    +0.145 C 
ENDROOT
BRANCH   7  11
ATOM      5  N   UNL     1      -3.394  -3.212  24.275  0.00  0.00    -0.263 NA
ATOM     11  C   UNL     1      -2.013  -1.240  24.490  0.00  0.00    -0.025 A 
ATOM     13  C   UNL     1      -3.128  -0.431  24.303  0.00  0.00    +0.007 A 
ATOM     14  C   UNL     1      -2.197  -2.613  24.467  0.00  0.00    +0.114 A 
ATOM     16  C   UNL     1      -4.375  -1.011  24.103  0.00  0.00    +0.020 A 
ATOM     17  C   UNL     1      -4.455  -2.393  24.097  0.00  0.00    +0.111 A 
ENDBRANCH   7  11
BRANCH   8   1
ATOM      1  O   UNL     1      -0.397   1.682  22.585  0.00  0.00    -0.388 OA
ATOM     25  H   UNL     1      -1.212   2.144  22.844  0.00  0.00    +0.210 HD
ENDBRANCH   8   1
BRANCH  10   2
ATOM      2  O   UNL     1       2.008   0.323  22.357  0.00  0.00    -0.389 OA
ATOM     26  H   UNL     1       2.044   1.262  22.104  0.00  0.00    +0.210 HD
ENDBRANCH  10   2
BRANCH   6   4
ATOM      4  N   UNL     1      -0.154   1.286  26.180  0.00  0.00    -0.306 NA
ATOM     24  H   UNL     1       0.741   0.826  26.351  0.00  0.00    +0.123 HD
BRANCH   4  12
ATOM     12  C   UNL     1       0.040   2.725  26.278  0.00  0.00    +0.116 C 
BRANCH  12  15
ATOM     15  C   UNL     1      -1.169   3.488  25.807  0.00  0.00    -0.030 A 
ATOM     18  C   UNL     1      -2.448   3.020  26.104  0.00  0.00    +0.050 A 
ATOM     19  C   UNL     1      -1.010   4.664  25.073  0.00  0.00    +0.005 A 
ATOM     20  C   UNL     1      -3.569   3.726  25.666  0.00  0.00    +0.120 A 
ATOM     21  C   UNL     1      -2.129   5.370  24.636  0.00  0.00    +0.004 A 
ATOM     22  C   UNL     1      -3.410   4.902  24.933  0.00  0.00    +0.045 A 
BRANCH  20   3
ATOM      3  O   UNL     1      -4.818   3.267  25.954  0.00  0.00    -0.495 OA
ATOM     23  C   UNL     1      -5.438   2.425  24.984  0.00  0.00    +0.277 C 
ENDBRANCH  20   3
ENDBRANCH  12  15
ENDBRANCH   4  12
ENDBRANCH   6   4
TORSDOF 7
ENDMDL
MODEL 3
REMARK VINA RESULT:      -5.9      1.036      1.939
REMARK  Name = 75536113
REMARK  8 active torsions:
REMARK  status: ('A' for Active; 'I' for Inactive)
REMARK    1  A    between atoms: O_1  and  C_8
REMARK    2  A    between atoms: O_2  and  C_10
REMARK    3  A    between atoms: O_3  and  C_20
REMARK    4  A    between atoms: O_3  and  C_23
REMARK    5  A    between atoms: N_4  and  C_6
REMARK    6  A    between atoms: N_4  and  C_12
REMARK    7  A    between atoms: C_7  and  C_11
REMARK    8  A    between atoms: C_12  and  C_15
REMARK                            x       y       z     vdW  Elec       q    Type
REMARK                         _______ _______ _______ _____ _____    ______ ____
ROOT
ATOM      6  C   UNL     1      -1.179   0.902  23.114  0.00  0.00    +0.093 C 
ATOM      7  C   UNL     1      -2.020   0.525  24.373  0.00  0.00    +0.042 C 
ATOM      8  C   UNL     1       0.167   1.400  23.663  0.00  0.00    +0.160 C 
ATOM      9  C   UNL     1      -1.123   0.840  25.586  0.00  0.00    +0.043 C 
ATOM     10  C   UNL     1      -0.171   1.907  25.062  0.00  0.00    +0.145 C 
ENDROOT
BRANCH   7  11
ATOM      5  N   UNL     1      -2.089  -3.257  24.648  0.00  0.00    -0.263 NA
ATOM     11  C   UNL     1      -2.536  -0.898  24.368  0.00  0.00    -0.025 A 
ATOM     13  C   UNL     1      -3.870  -1.176  24.093  0.00  0.00    +0.007 A 
ATOM     14  C   UNL     1      -1.693  -1.965  24.637  0.00  0.00    +0.114 A 
ATOM     16  C   UNL     1      -4.315  -2.493  24.095  0.00  0.00    +0.020 A 
ATOM     17  C   UNL     1      -3.393  -3.489  24.376  0.00  0.00    +0.111 A 
ENDBRANCH   7  11
BRANCH   8   1
ATOM      1  O   UNL     1       1.063   0.292  23.729  0.00  0.00    -0.388 OA
ATOM     25  H   UNL     1       1.572   0.377  24.553  0.00  0.00    +0.210 HD
ENDBRANCH   8   1
BRANCH  10   2
ATOM      2  O   UNL     1       0.969   2.030  25.887  0.00  0.00    -0.389 OA
ATOM     26  H   UNL     1       0.676   2.397  26.738  0.00  0.00    +0.210 HD
ENDBRANCH  10   2
BRANCH   6   4
ATOM      4  N   UNL     1      -1.849   1.980  22.383  0.00  0.00    -0.306 NA
ATOM     24  H   UNL     1      -1.609   1.913  21.393  0.00  0.00    +0.123 HD
BRANCH   4  12
ATOM     12  C   UNL     1      -3.295   1.877  22.516  0.00  0.00    +0.116 C 
BRANCH  12  15
ATOM     15  C   UNL     1      -3.796   2.570  23.756  0.00  0.00    -0.030 A 
ATOM     18  C   UNL     1      -3.045   3.591  24.335  0.00  0.00    +0.050 A 
ATOM     19  C   UNL     1      -5.012   2.189  24.324  0.00  0.00    +0.005 A 
ATOM     20  C   UNL     1      -3.508   4.232  25.484  0.00  0.00    +0.120 A 
ATOM     21  C   UNL     1      -5.475   2.829  25.473  0.00  0.00    +0.004 A 
ATOM     22  C   UNL     1      -4.724   3.851  26.053  0.00  0.00    +0.045 A 
BRANCH  20   3
ATOM      3  O   UNL     1      -2.773   5.228  26.052  0.00  0.00    -0.495 OA
ATOM     23  C   UNL     1      -1.627   5.678  25.331  0.00  0.00    +0.277 C 
ENDBRANCH  20   3
ENDBRANCH  12  15
ENDBRANCH   4  12
ENDBRANCH   6   4
TORSDOF 7
ENDMDL
MODEL 4
REMARK VINA RESULT:      -5.8      1.488      4.616
REMARK  Name = 75536113
REMARK  8 active torsions:
REMARK  status: ('A' for Active; 'I' for Inactive)
REMARK    1  A    between atoms: O_1  and  C_8
REMARK    2  A    between atoms: O_2  and  C_10
REMARK    3  A    between atoms: O_3  and  C_20
REMARK    4  A    between atoms: O_3  and  C_23
REMARK    5  A    between atoms: N_4  and  C_6
REMARK    6  A    between atoms: N_4  and  C_12
REMARK    7  A    between atoms: C_7  and  C_11
REMARK    8  A    between atoms: C_12  and  C_15
REMARK                            x       y       z     vdW  Elec       q    Type
REMARK                         _______ _______ _______ _____ _____    ______ ____
ROOT
ATOM      6  C   UNL     1      -3.842   2.299  24.285  0.00  0.00    +0.093 C 
ATOM      7  C   UNL     1      -4.680   0.986  24.373  0.00  0.00    +0.042 C 
ATOM      8  C   UNL     1      -4.466   3.245  25.323  0.00  0.00    +0.160 C 
ATOM      9  C   UNL     1      -5.755   1.245  25.445  0.00  0.00    +0.043 C 
ATOM     10  C   UNL     1      -5.908   2.760  25.443  0.00  0.00    +0.145 C 
ENDROOT
BRANCH   7  11
ATOM      5  N   UNL     1      -1.950  -1.272  25.725  0.00  0.00    -0.263 NA
ATOM     11  C   UNL     1      -3.856  -0.255  24.642  0.00  0.00    -0.025 A 
ATOM     13  C   UNL     1      -4.208  -1.483  24.093  0.00  0.00    +0.007 A 
ATOM     14  C   UNL     1      -2.728  -0.203  25.445  0.00  0.00    +0.114 A 
ATOM     16  C   UNL     1      -3.431  -2.605  24.358  0.00  0.00    +0.020 A 
ATOM     17  C   UNL     1      -2.322  -2.449  25.173  0.00  0.00    +0.111 A 
ENDBRANCH   7  11
BRANCH   8   1
ATOM      1  O   UNL     1      -3.772   3.077  26.559  0.00  0.00    -0.388 OA
ATOM     25  H   UNL     1      -3.093   3.770  26.608  0.00  0.00    +0.210 HD
ENDBRANCH   8   1
BRANCH  10   2
ATOM      2  O   UNL     1      -6.539   3.216  26.621  0.00  0.00    -0.389 OA
ATOM     26  H   UNL     1      -6.066   4.012  26.918  0.00  0.00    +0.210 HD
ENDBRANCH  10   2
BRANCH   6   4
ATOM      4  N   UNL     1      -3.973   2.875  22.945  0.00  0.00    -0.306 NA
ATOM     24  H   UNL     1      -4.147   3.877  23.026  0.00  0.00    +0.123 HD
BRANCH   4  12
ATOM     12  C   UNL     1      -2.754   2.679  22.173  0.00  0.00    +0.116 C 
BRANCH  12  15
ATOM     15  C   UNL     1      -1.587   2.314  23.051  0.00  0.00    -0.030 A 
ATOM     18  C   UNL     1      -0.872   1.142  22.810  0.00  0.00    +0.050 A 
ATOM     19  C   UNL     1      -1.220   3.150  24.106  0.00  0.00    +0.005 A 
ATOM     20  C   UNL     1       0.209   0.804  23.624  0.00  0.00    +0.120 A 
ATOM     21  C   UNL     1      -0.140   2.813  24.920  0.00  0.00    +0.004 A 
ATOM     22  C   UNL     1       0.576   1.639  24.679  0.00  0.00    +0.045 A 
BRANCH  20   3
ATOM      3  O   UNL     1       0.906  -0.342  23.389  0.00  0.00    -0.495 OA
ATOM     23  C   UNL     1       2.053  -0.242  22.547  0.00  0.00    +0.277 C 
ENDBRANCH  20   3
ENDBRANCH  12  15
ENDBRANCH   4  12
ENDBRANCH   6   4
TORSDOF 7
ENDMDL
MODEL 5
REMARK VINA RESULT:      -5.6      1.751      5.345
REMARK  Name = 75536113
REMARK  8 active torsions:
REMARK  status: ('A' for Active; 'I' for Inactive)
REMARK    1  A    between atoms: O_1  and  C_8
REMARK    2  A    between atoms: O_2  and  C_10
REMARK    3  A    between atoms: O_3  and  C_20
REMARK    4  A    between atoms: O_3  and  C_23
REMARK    5  A    between atoms: N_4  and  C_6
REMARK    6  A    between atoms: N_4  and  C_12
REMARK    7  A    between atoms: C_7  and  C_11
REMARK    8  A    between atoms: C_12  and  C_15
REMARK                            x       y       z     vdW  Elec       q    Type
REMARK                         _______ _______ _______ _____ _____    ______ ____
ROOT
ATOM      6  C   UNL     1      -3.004   2.638  25.244  0.00  0.00    +0.093 C 
ATOM      7  C   UNL     1      -3.953   1.782  24.350  0.00  0.00    +0.042 C 
ATOM      8  C   UNL     1      -3.919   3.655  25.945  0.00  0.00    +0.160 C 
ATOM      9  C   UNL     1      -5.365   2.358  24.566  0.00  0.00    +0.043 C 
ATOM     10  C   UNL     1      -5.107   3.795  24.997  0.00  0.00    +0.145 C 
ENDROOT
BRANCH   7  11
ATOM      5  N   UNL     1      -3.901  -1.960  23.736  0.00  0.00    -0.263 NA
ATOM     11  C   UNL     1      -3.870   0.293  24.610  0.00  0.00    -0.025 A 
ATOM     13  C   UNL     1      -3.696  -0.202  25.898  0.00  0.00    +0.007 A 
ATOM     14  C   UNL     1      -3.966  -0.620  23.572  0.00  0.00    +0.114 A 
ATOM     16  C   UNL     1      -3.624  -1.574  26.106  0.00  0.00    +0.020 A 
ATOM     17  C   UNL     1      -3.731  -2.404  25.002  0.00  0.00    +0.111 A 
ENDBRANCH   7  11
BRANCH   8   1
ATOM      1  O   UNL     1      -4.331   3.102  27.194  0.00  0.00    -0.388 OA
ATOM     25  H   UNL     1      -4.865   3.775  27.648  0.00  0.00    +0.210 HD
ENDBRANCH   8   1
BRANCH  10   2
ATOM      2  O   UNL     1      -6.240   4.357  25.624  0.00  0.00    -0.389 OA
ATOM     26  H   UNL     1      -6.679   3.649  26.126  0.00  0.00    +0.210 HD
ENDBRANCH  10   2
BRANCH   6   4
ATOM      4  N   UNL     1      -2.035   3.339  24.399  0.00  0.00    -0.306 NA
ATOM     24  H   UNL     1      -2.219   4.342  24.440  0.00  0.00    +0.123 HD
BRANCH   4  12
ATOM     12  C   UNL     1      -0.674   3.100  24.858  0.00  0.00    +0.116 C 
BRANCH  12  15
ATOM     15  C   UNL     1      -0.190   1.723  24.486  0.00  0.00    -0.030 A 
ATOM     18  C   UNL     1       0.805   1.571  23.522  0.00  0.00    +0.050 A 
ATOM     19  C   UNL     1      -0.739   0.600  25.106  0.00  0.00    +0.005 A 
ATOM     20  C   UNL     1       1.253   0.296  23.177  0.00  0.00    +0.120 A 
ATOM     21  C   UNL     1      -0.292  -0.675  24.761  0.00  0.00    +0.004 A 
ATOM     22  C   UNL     1       0.705  -0.827  23.797  0.00  0.00    +0.045 A 
BRANCH  20   3
ATOM      3  O   UNL     1       2.223   0.147  22.235  0.00  0.00    -0.495 OA
ATOM     23  C   UNL     1       3.534   0.597  22.577  0.00  0.00    +0.277 C 
ENDBRANCH  20   3
ENDBRANCH  12  15
ENDBRANCH   4  12
ENDBRANCH   6   4
TORSDOF 7
ENDMDL
MODEL 6
REMARK VINA RESULT:      -5.6      1.455      4.435
REMARK  Name = 75536113
REMARK  8 active torsions:
REMARK  status: ('A' for Active; 'I' for Inactive)
REMARK    1  A    between atoms: O_1  and  C_8
REMARK    2  A    between atoms: O_2  and  C_10
REMARK    3  A    between atoms: O_3  and  C_20
REMARK    4  A    between atoms: O_3  and  C_23
REMARK    5  A    between atoms: N_4  and  C_6
REMARK    6  A    between atoms: N_4  and  C_12
REMARK    7  A    between atoms: C_7  and  C_11
REMARK    8  A    between atoms: C_12  and  C_15
REMARK                            x       y       z     vdW  Elec       q    Type
REMARK                         _______ _______ _______ _____ _____    ______ ____
ROOT
ATOM      6  C   UNL     1      -3.720   2.364  24.118  0.00  0.00    +0.093 C 
ATOM      7  C   UNL     1      -4.805   1.252  24.264  0.00  0.00    +0.042 C 
ATOM      8  C   UNL     1      -4.168   3.489  25.064  0.00  0.00    +0.160 C 
ATOM      9  C   UNL     1      -5.833   1.798  25.273  0.00  0.00    +0.043 C 
ATOM     10  C   UNL     1      -5.680   3.308  25.161  0.00  0.00    +0.145 C 
ENDROOT
BRANCH   7  11
ATOM      5  N   UNL     1      -3.952  -2.440  24.110  0.00  0.00    -0.263 NA
ATOM     11  C   UNL     1      -4.253  -0.103  24.650  0.00  0.00    -0.025 A 
ATOM     13  C   UNL     1      -3.563  -0.283  25.843  0.00  0.00    +0.007 A 
ATOM     14  C   UNL     1      -4.419  -1.204  23.825  0.00  0.00    +0.114 A 
ATOM     16  C   UNL     1      -3.067  -1.540  26.171  0.00  0.00    +0.020 A 
ATOM     17  C   UNL     1      -3.286  -2.577  25.279  0.00  0.00    +0.111 A 
ENDBRANCH   7  11
BRANCH   8   1
ATOM      1  O   UNL     1      -3.552   3.281  26.334  0.00  0.00    -0.388 OA
ATOM     25  H   UNL     1      -3.434   2.323  26.448  0.00  0.00    +0.210 HD
ENDBRANCH   8   1
BRANCH  10   2
ATOM      2  O   UNL     1      -6.236   3.967  26.280  0.00  0.00    -0.389 OA
ATOM     26  H   UNL     1      -6.956   4.536  25.957  0.00  0.00    +0.210 HD
ENDBRANCH  10   2
BRANCH   6   4
ATOM      4  N   UNL     1      -3.701   2.852  22.738  0.00  0.00    -0.306 NA
ATOM     24  H   UNL     1      -3.690   3.872  22.743  0.00  0.00    +0.123 HD
BRANCH   4  12
ATOM     12  C   UNL     1      -2.516   2.380  22.036  0.00  0.00    +0.116 C 
BRANCH  12  15
ATOM     15  C   UNL     1      -1.561   1.672  22.960  0.00  0.00    -0.030 A 
ATOM     18  C   UNL     1      -0.890   2.387  23.951  0.00  0.00    +0.050 A 
ATOM     19  C   UNL     1      -1.348   0.300  22.824  0.00  0.00    +0.005 A 
ATOM     20  C   UNL     1      -0.005   1.732  24.807  0.00  0.00    +0.120 A 
ATOM     21  C   UNL     1      -0.463  -0.356  23.679  0.00  0.00    +0.004 A 
ATOM     22  C   UNL     1       0.209   0.360  24.671  0.00  0.00    +0.045 A 
BRANCH  20   3
ATOM      3  O   UNL     1       0.652   2.430  25.772  0.00  0.00    -0.495 OA
ATOM     23  C   UNL     1      -0.064   2.698  26.978  0.00  0.00    +0.277 C 
ENDBRANCH  20   3
ENDBRANCH  12  15
ENDBRANCH   4  12
ENDBRANCH   6   4
TORSDOF 7
ENDMDL
MODEL 7
REMARK VINA RESULT:      -5.1      2.313      4.594
REMARK  Name = 75536113
REMARK  8 active torsions:
REMARK  status: ('A' for Active; 'I' for Inactive)
REMARK    1  A    between atoms: O_1  and  C_8
REMARK    2  A    between atoms: O_2  and  C_10
REMARK    3  A    between atoms: O_3  and  C_20
REMARK    4  A    between atoms: O_3  and  C_23
REMARK    5  A    between atoms: N_4  and  C_6
REMARK    6  A    between atoms: N_4  and  C_12
REMARK    7  A    between atoms: C_7  and  C_11
REMARK    8  A    between atoms: C_12  and  C_15
REMARK                            x       y       z     vdW  Elec       q    Type
REMARK                         _______ _______ _______ _____ _____    ______ ____
ROOT
ATOM      6  C   UNL     1      -1.295   2.051  24.557  0.00  0.00    +0.093 C 
ATOM      7  C   UNL     1      -2.549   2.851  24.086  0.00  0.00    +0.042 C 
ATOM      8  C   UNL     1      -0.323   3.111  25.101  0.00  0.00    +0.160 C 
ATOM      9  C   UNL     1      -2.231   4.332  24.367  0.00  0.00    +0.043 C 
ATOM     10  C   UNL     1      -0.710   4.384  24.354  0.00  0.00    +0.145 C 
ENDROOT
BRANCH   7  11
ATOM      5  N   UNL     1      -5.754   2.888  26.113  0.00  0.00    -0.263 NA
ATOM     11  C   UNL     1      -3.846   2.391  24.714  0.00  0.00    -0.025 A 
ATOM     13  C   UNL     1      -4.331   1.106  24.498  0.00  0.00    +0.007 A 
ATOM     14  C   UNL     1      -4.589   3.236  25.522  0.00  0.00    +0.114 A 
ATOM     16  C   UNL     1      -5.527   0.711  25.089  0.00  0.00    +0.020 A 
ATOM     17  C   UNL     1      -6.194   1.631  25.881  0.00  0.00    +0.111 A 
ENDBRANCH   7  11
BRANCH   8   1
ATOM      1  O   UNL     1      -0.555   3.256  26.501  0.00  0.00    -0.388 OA
ATOM     25  H   UNL     1      -0.249   4.142  26.757  0.00  0.00    +0.210 HD
ENDBRANCH   8   1
BRANCH  10   2
ATOM      2  O   UNL     1      -0.228   5.552  24.984  0.00  0.00    -0.389 OA
ATOM     26  H   UNL     1       0.268   5.276  25.774  0.00  0.00    +0.210 HD
ENDBRANCH  10   2
BRANCH   6   4
ATOM      4  N   UNL     1      -0.693   1.366  23.411  0.00  0.00    -0.306 NA
ATOM     24  H   UNL     1       0.093   1.917  23.066  0.00  0.00    +0.123 HD
BRANCH   4  12
ATOM     12  C   UNL     1      -0.202   0.049  23.793  0.00  0.00    +0.116 C 
BRANCH  12  15
ATOM     15  C   UNL     1      -1.202  -0.702  24.631  0.00  0.00    -0.030 A 
ATOM     18  C   UNL     1      -2.061  -1.624  24.034  0.00  0.00    +0.050 A 
ATOM     19  C   UNL     1      -1.270  -0.474  26.006  0.00  0.00    +0.005 A 
ATOM     20  C   UNL     1      -2.988  -2.319  24.811  0.00  0.00    +0.120 A 
ATOM     21  C   UNL     1      -2.197  -1.168  26.783  0.00  0.00    +0.004 A 
ATOM     22  C   UNL     1      -3.056  -2.091  26.186  0.00  0.00    +0.045 A 
BRANCH  20   3
ATOM      3  O   UNL     1      -3.827  -3.217  24.228  0.00  0.00    -0.495 OA
ATOM     23  C   UNL     1      -4.820  -2.698  23.344  0.00  0.00    +0.277 C 
ENDBRANCH  20   3
ENDBRANCH  12  15
ENDBRANCH   4  12
ENDBRANCH   6   4
TORSDOF 7
ENDMDL
MODEL 8
REMARK VINA RESULT:      -4.9      1.789      4.854
REMARK  Name = 75536113
REMARK  8 active torsions:
REMARK  status: ('A' for Active; 'I' for Inactive)
REMARK    1  A    between atoms: O_1  and  C_8
REMARK    2  A    between atoms: O_2  and  C_10
REMARK    3  A    between atoms: O_3  and  C_20
REMARK    4  A    between atoms: O_3  and  C_23
REMARK    5  A    between atoms: N_4  and  C_6
REMARK    6  A    between atoms: N_4  and  C_12
REMARK    7  A    between atoms: C_7  and  C_11
REMARK    8  A    between atoms: C_12  and  C_15
REMARK                            x       y       z     vdW  Elec       q    Type
REMARK                         _______ _______ _______ _____ _____    ______ ____
ROOT
ATOM      6  C   UNL     1       0.434   0.298  24.581  0.00  0.00    +0.093 C 
ATOM      7  C   UNL     1      -0.790   0.844  23.782  0.00  0.00    +0.042 C 
ATOM      8  C   UNL     1       1.501  -0.016  23.520  0.00  0.00    +0.160 C 
ATOM      9  C   UNL     1      -0.374   0.802  22.299  0.00  0.00    +0.043 C 
ATOM     10  C   UNL     1       0.692  -0.284  22.254  0.00  0.00    +0.145 C 
ENDROOT
BRANCH   7  11
ATOM      5  N   UNL     1      -3.021   3.865  24.308  0.00  0.00    -0.263 NA
ATOM     11  C   UNL     1      -1.260   2.210  24.230  0.00  0.00    -0.025 A 
ATOM     13  C   UNL     1      -0.424   3.057  24.948  0.00  0.00    +0.007 A 
ATOM     14  C   UNL     1      -2.539   2.657  23.938  0.00  0.00    +0.114 A 
ATOM     16  C   UNL     1      -0.884   4.307  25.347  0.00  0.00    +0.020 A 
ATOM     17  C   UNL     1      -2.179   4.661  25.004  0.00  0.00    +0.111 A 
ENDBRANCH   7  11
BRANCH   8   1
ATOM      1  O   UNL     1       2.326   1.136  23.358  0.00  0.00    -0.388 OA
ATOM     25  H   UNL     1       2.965   0.941  22.652  0.00  0.00    +0.210 HD
ENDBRANCH   8   1
BRANCH  10   2
ATOM      2  O   UNL     1       1.472  -0.192  21.080  0.00  0.00    -0.389 OA
ATOM     26  H   UNL     1       0.878   0.060  20.352  0.00  0.00    +0.210 HD
ENDBRANCH  10   2
BRANCH   6   4
ATOM      4  N   UNL     1       0.053  -0.930  25.282  0.00  0.00    -0.306 NA
ATOM     24  H   UNL     1       0.813  -1.212  25.901  0.00  0.00    +0.123 HD
BRANCH   4  12
ATOM     12  C   UNL     1      -1.143  -0.719  26.086  0.00  0.00    +0.116 C 
BRANCH  12  15
ATOM     15  C   UNL     1      -2.395  -1.097  25.340  0.00  0.00    -0.030 A 
ATOM     18  C   UNL     1      -3.468  -0.209  25.284  0.00  0.00    +0.050 A 
ATOM     19  C   UNL     1      -2.481  -2.336  24.704  0.00  0.00    +0.005 A 
ATOM     20  C   UNL     1      -4.628  -0.558  24.594  0.00  0.00    +0.120 A 
ATOM     21  C   UNL     1      -3.640  -2.686  24.014  0.00  0.00    +0.004 A 
ATOM     22  C   UNL     1      -4.714  -1.797  23.958  0.00  0.00    +0.045 A 
BRANCH  20   3
ATOM      3  O   UNL     1      -5.677   0.307  24.541  0.00  0.00    -0.495 OA
ATOM     23  C   UNL     1      -5.542   1.533  25.260  0.00  0.00    +0.277 C 
ENDBRANCH  20   3
ENDBRANCH  12  15
ENDBRANCH   4  12
ENDBRANCH   6   4
TORSDOF 7
ENDMDL
MODEL 9
REMARK VINA RESULT:      -4.8     18.950     20.721
REMARK  Name = 75536113
REMARK  8 active torsions:
REMARK  status: ('A' for Active; 'I' for Inactive)
REMARK    1  A    between atoms: O_1  and  C_8
REMARK    2  A    between atoms: O_2  and  C_10
REMARK    3  A    between atoms: O_3  and  C_20
REMARK    4  A    between atoms: O_3  and  C_23
REMARK    5  A    between atoms: N_4  and  C_6
REMARK    6  A    between atoms: N_4  and  C_12
REMARK    7  A    between atoms: C_7  and  C_11
REMARK    8  A    between atoms: C_12  and  C_15
REMARK                            x       y       z     vdW  Elec       q    Type
REMARK                         _______ _______ _______ _____ _____    ______ ____
ROOT
ATOM      6  C   UNL     1      15.927  -7.358  27.049  0.00  0.00    +0.093 C 
ATOM      7  C   UNL     1      16.139  -7.718  28.552  0.00  0.00    +0.042 C 
ATOM      8  C   UNL     1      16.290  -8.634  26.274  0.00  0.00    +0.160 C 
ATOM      9  C   UNL     1      16.628  -9.179  28.568  0.00  0.00    +0.043 C 
ATOM     10  C   UNL     1      17.264  -9.361  27.197  0.00  0.00    +0.145 C 
ENDROOT
BRANCH   7  11
ATOM      5  N   UNL     1      13.024  -8.412  30.602  0.00  0.00    -0.263 NA
ATOM     11  C   UNL     1      14.920  -7.489  29.420  0.00  0.00    -0.025 A 
ATOM     13  C   UNL     1      14.563  -6.210  29.832  0.00  0.00    +0.007 A 
ATOM     14  C   UNL     1      14.124  -8.547  29.828  0.00  0.00    +0.114 A 
ATOM     16  C   UNL     1      13.437  -6.031  30.628  0.00  0.00    +0.020 A 
ATOM     17  C   UNL     1      12.708  -7.154  30.983  0.00  0.00    +0.111 A 
ENDBRANCH   7  11
BRANCH   8   1
ATOM      1  O   UNL     1      15.101  -9.401  26.090  0.00  0.00    -0.388 OA
ATOM     25  H   UNL     1      14.719  -9.146  25.233  0.00  0.00    +0.210 HD
ENDBRANCH   8   1
BRANCH  10   2
ATOM      2  O   UNL     1      17.405 -10.728  26.872  0.00  0.00    -0.389 OA
ATOM     26  H   UNL     1      18.356 -10.930  26.859  0.00  0.00    +0.210 HD
ENDBRANCH  10   2
BRANCH   6   4
ATOM      4  N   UNL     1      16.836  -6.272  26.674  0.00  0.00    -0.306 NA
ATOM     24  H   UNL     1      17.679  -6.328  27.245  0.00  0.00    +0.123 HD
BRANCH   4  12
ATOM     12  C   UNL     1      17.220  -6.377  25.273  0.00  0.00    +0.116 C 
BRANCH  12  15
ATOM     15  C   UNL     1      17.189  -5.041  24.581  0.00  0.00    -0.030 A 
ATOM     18  C   UNL     1      16.944  -3.881  25.314  0.00  0.00    +0.050 A 
ATOM     19  C   UNL     1      17.404  -4.964  23.204  0.00  0.00    +0.005 A 
ATOM     20  C   UNL     1      16.914  -2.642  24.672  0.00  0.00    +0.120 A 
ATOM     21  C   UNL     1      17.374  -3.726  22.562  0.00  0.00    +0.004 A 
ATOM     22  C   UNL     1      17.130  -2.565  23.296  0.00  0.00    +0.045 A 
BRANCH  20   3
ATOM      3  O   UNL     1      16.673  -1.510  25.388  0.00  0.00    -0.495 OA
ATOM     23  C   UNL     1      17.045  -0.271  24.785  0.00  0.00    +0.277 C 
ENDBRANCH  20   3
ENDBRANCH  12  15
ENDBRANCH   4  12
ENDBRANCH   6   4
TORSDOF 7
ENDMDL
MODEL 10
REMARK VINA RESULT:      -4.5     18.461     20.492
REMARK  Name = 75536113
REMARK  8 active torsions:
REMARK  status: ('A' for Active; 'I' for Inactive)
REMARK    1  A    between atoms: O_1  and  C_8
REMARK    2  A    between atoms: O_2  and  C_10
REMARK    3  A    between atoms: O_3  and  C_20
REMARK    4  A    between atoms: O_3  and  C_23
REMARK    5  A    between atoms: N_4  and  C_6
REMARK    6  A    between atoms: N_4  and  C_12
REMARK    7  A    between atoms: C_7  and  C_11
REMARK    8  A    between atoms: C_12  and  C_15
REMARK                            x       y       z     vdW  Elec       q    Type
REMARK                         _______ _______ _______ _____ _____    ______ ____
ROOT
ATOM      6  C   UNL     1      16.125  -6.917  27.009  0.00  0.00    +0.093 C 
ATOM      7  C   UNL     1      16.473  -7.619  28.358  0.00  0.00    +0.042 C 
ATOM      8  C   UNL     1      16.269  -8.009  25.937  0.00  0.00    +0.160 C 
ATOM      9  C   UNL     1      16.816  -9.077  27.995  0.00  0.00    +0.043 C 
ATOM     10  C   UNL     1      17.268  -8.990  26.544  0.00  0.00    +0.145 C 
ENDROOT
BRANCH   7  11
ATOM      5  N   UNL     1      14.462  -8.271  31.507  0.00  0.00    -0.263 NA
ATOM     11  C   UNL     1      15.391  -7.506  29.410  0.00  0.00    -0.025 A 
ATOM     13  C   UNL     1      14.359  -6.583  29.282  0.00  0.00    +0.007 A 
ATOM     14  C   UNL     1      15.397  -8.320  30.531  0.00  0.00    +0.114 A 
ATOM     16  C   UNL     1      13.379  -6.502  30.265  0.00  0.00    +0.020 A 
ATOM     17  C   UNL     1      13.474  -7.361  31.348  0.00  0.00    +0.111 A 
ENDBRANCH   7  11
BRANCH   8   1
ATOM      1  O   UNL     1      14.998  -8.630  25.755  0.00  0.00    -0.388 OA
ATOM     25  H   UNL     1      14.604  -8.259  24.948  0.00  0.00    +0.210 HD
ENDBRANCH   8   1
BRANCH  10   2
ATOM      2  O   UNL     1      17.236 -10.256  25.918  0.00  0.00    -0.389 OA
ATOM     26  H   UNL     1      17.008 -10.914  26.597  0.00  0.00    +0.210 HD
ENDBRANCH  10   2
BRANCH   6   4
ATOM      4  N   UNL     1      17.085  -5.841  26.755  0.00  0.00    -0.306 NA
ATOM     24  H   UNL     1      18.014  -6.144  27.050  0.00  0.00    +0.123 HD
BRANCH   4  12
ATOM     12  C   UNL     1      17.135  -5.513  25.337  0.00  0.00    +0.116 C 
BRANCH  12  15
ATOM     15  C   UNL     1      16.987  -4.034  25.098  0.00  0.00    -0.030 A 
ATOM     18  C   UNL     1      16.436  -3.572  23.904  0.00  0.00    +0.050 A 
ATOM     19  C   UNL     1      17.401  -3.125  26.072  0.00  0.00    +0.005 A 
ATOM     20  C   UNL     1      16.299  -2.202  23.681  0.00  0.00    +0.120 A 
ATOM     21  C   UNL     1      17.265  -1.755  25.851  0.00  0.00    +0.004 A 
ATOM     22  C   UNL     1      16.713  -1.293  24.655  0.00  0.00    +0.045 A 
BRANCH  20   3
ATOM      3  O   UNL     1      15.763  -1.751  22.515  0.00  0.00    -0.495 OA
ATOM     23  C   UNL     1      14.631  -2.456  22.006  0.00  0.00    +0.277 C 
ENDBRANCH  20   3
ENDBRANCH  12  15
ENDBRANCH   4  12
ENDBRANCH   6   4
TORSDOF 7
ENDMDL
