MODEL 1
REMARK VINA RESULT:       5.5      0.000      0.000
REMARK  Name = 7143919
REMARK  6 active torsions:
REMARK  status: ('A' for Active; 'I' for Inactive)
REMARK    1  A    between atoms: S_2  and  N_6
REMARK    2  A    between atoms: S_2  and  C_17
REMARK    3  A    between atoms: C_17  and  C_20
REMARK    4  A    between atoms: C_18  and  C_21
REMARK    5  A    between atoms: C_20  and  C_22
REMARK    6  A    between atoms: C_23  and  C_24
REMARK                            x       y       z     vdW  Elec       q    Type
REMARK                         _______ _______ _______ _____ _____    ______ ____
ROOT
ATOM      5  O   UNL     1      -0.185   2.741  26.139  0.00  0.00    -0.267 OA
ATOM      6  N   UNL     1      -5.080   2.480  25.283  0.00  0.00    -0.180 NA
ATOM      7  N   UNL     1      -2.051   3.270  24.844  0.00  0.00    -0.311 N 
ATOM      8  C   UNL     1      -3.992   4.680  25.741  0.00  0.00    +0.025 C 
ATOM      9  C   UNL     1      -4.072   3.816  23.444  0.00  0.00    +0.052 C 
ATOM     10  C   UNL     1      -4.186   5.084  24.286  0.00  0.00    +0.017 C 
ATOM     11  C   UNL     1      -5.075   3.677  26.172  0.00  0.00    +0.114 C 
ATOM     12  C   UNL     1      -5.192   2.835  23.837  0.00  0.00    +0.118 C 
ATOM     13  C   UNL     1      -2.574   4.124  25.920  0.00  0.00    +0.130 C 
ATOM     14  C   UNL     1      -2.713   3.164  23.620  0.00  0.00    +0.026 A 
ATOM     15  C   UNL     1      -2.158   2.471  22.613  0.00  0.00    +0.022 A 
ATOM     16  C   UNL     1      -0.805   2.652  25.077  0.00  0.00    +0.259 A 
ATOM     18  C   UNL     1      -0.220   1.860  23.938  0.00  0.00    +0.040 A 
ATOM     19  C   UNL     1      -0.895   1.810  22.780  0.00  0.00    +0.015 A 
ENDROOT
BRANCH   6   2
ATOM      2  S   UNL     1      -6.060   1.176  25.802  0.00  0.00    +0.032 S 
ATOM      3  O   UNL     1      -7.010   0.863  24.756  0.00  0.00    -0.158 OA
ATOM      4  O   UNL     1      -6.482   1.423  27.164  0.00  0.00    -0.158 OA
BRANCH   2  17
ATOM     17  C   UNL     1      -4.835  -0.107  25.830  0.00  0.00    +0.185 C 
BRANCH  17  20
ATOM     20  C   UNL     1      -4.136  -0.233  24.487  0.00  0.00    +0.021 C 
ATOM     22  C   UNL     1      -4.218  -1.652  23.949  0.00  0.00    +0.005 C 
ENDBRANCH  17  20
ENDBRANCH   2  17
ENDBRANCH   6   2
BRANCH  18  21
ATOM     21  C   UNL     1       1.043   1.186  24.103  0.00  0.00    +0.014 C 
ATOM     23  C   UNL     1       1.980   1.155  23.148  0.00  0.00    +0.008 C 
BRANCH  23  24
ATOM      1 CL   UNL     1       7.247  -1.605  23.629  0.00  0.00    -0.084 Cl
ATOM     24  C   UNL     1       3.281   0.473  23.267  0.00  0.00    -0.025 A 
ATOM     25  C   UNL     1       4.447   1.195  23.063  0.00  0.00    +0.009 A 
ATOM     26  C   UNL     1       3.314  -0.876  23.580  0.00  0.00    +0.009 A 
ATOM     27  C   UNL     1       5.678   0.549  23.175  0.00  0.00    +0.020 A 
ATOM     28  C   UNL     1       4.546  -1.522  23.692  0.00  0.00    +0.020 A 
ATOM     29  C   UNL     1       5.728  -0.809  23.490  0.00  0.00    +0.041 A 
ENDBRANCH  23  24
ENDBRANCH  18  21
TORSDOF 5
ENDMDL
MODEL 2
REMARK VINA RESULT:       6.0      2.048      3.465
REMARK  Name = 7143919
REMARK  6 active torsions:
REMARK  status: ('A' for Active; 'I' for Inactive)
REMARK    1  A    between atoms: S_2  and  N_6
REMARK    2  A    between atoms: S_2  and  C_17
REMARK    3  A    between atoms: C_17  and  C_20
REMARK    4  A    between atoms: C_18  and  C_21
REMARK    5  A    between atoms: C_20  and  C_22
REMARK    6  A    between atoms: C_23  and  C_24
REMARK                            x       y       z     vdW  Elec       q    Type
REMARK                         _______ _______ _______ _____ _____    ______ ____
ROOT
ATOM      5  O   UNL     1      -0.540   0.970  22.566  0.00  0.00    -0.267 OA
ATOM      6  N   UNL     1      -4.061   2.957  25.467  0.00  0.00    -0.180 NA
ATOM      7  N   UNL     1      -2.481   0.755  23.839  0.00  0.00    -0.311 N 
ATOM      8  C   UNL     1      -4.655   1.976  23.249  0.00  0.00    +0.025 C 
ATOM      9  C   UNL     1      -4.567   0.533  25.234  0.00  0.00    +0.052 C 
ATOM     10  C   UNL     1      -5.336   0.805  23.944  0.00  0.00    +0.017 C 
ATOM     11  C   UNL     1      -4.688   3.228  24.142  0.00  0.00    +0.114 C 
ATOM     12  C   UNL     1      -4.649   1.767  26.152  0.00  0.00    +0.118 C 
ATOM     13  C   UNL     1      -3.226   1.568  22.867  0.00  0.00    +0.130 C 
ATOM     14  C   UNL     1      -3.118   0.187  24.944  0.00  0.00    +0.026 A 
ATOM     15  C   UNL     1      -2.444  -0.645  25.753  0.00  0.00    +0.022 A 
ATOM     16  C   UNL     1      -1.127   0.500  23.542  0.00  0.00    +0.259 A 
ATOM     18  C   UNL     1      -0.390  -0.415  24.484  0.00  0.00    +0.040 A 
ATOM     19  C   UNL     1      -1.061  -0.945  25.517  0.00  0.00    +0.015 A 
ENDROOT
BRANCH   6   2
ATOM      2  S   UNL     1      -3.803   4.328  26.459  0.00  0.00    +0.032 S 
ATOM      3  O   UNL     1      -3.471   3.880  27.795  0.00  0.00    -0.158 OA
ATOM      4  O   UNL     1      -4.863   5.284  26.218  0.00  0.00    -0.158 OA
BRANCH   2  17
ATOM     17  C   UNL     1      -2.322   4.949  25.706  0.00  0.00    +0.185 C 
BRANCH  17  20
ATOM     20  C   UNL     1      -1.545   3.840  25.016  0.00  0.00    +0.021 C 
ATOM     22  C   UNL     1      -0.650   3.098  25.994  0.00  0.00    +0.005 C 
ENDBRANCH  17  20
ENDBRANCH   2  17
ENDBRANCH   6   2
BRANCH  18  21
ATOM     21  C   UNL     1       1.002  -0.712  24.258  0.00  0.00    +0.014 C 
ATOM     23  C   UNL     1       1.859   0.176  23.738  0.00  0.00    +0.008 C 
BRANCH  23  24
ATOM      1 CL   UNL     1       7.638  -0.873  22.692  0.00  0.00    -0.084 Cl
ATOM     24  C   UNL     1       3.286  -0.083  23.480  0.00  0.00    -0.025 A 
ATOM     25  C   UNL     1       3.841  -1.287  23.882  0.00  0.00    +0.009 A 
ATOM     26  C   UNL     1       4.046   0.882  22.839  0.00  0.00    +0.009 A 
ATOM     27  C   UNL     1       5.193  -1.531  23.638  0.00  0.00    +0.020 A 
ATOM     28  C   UNL     1       5.397   0.637  22.594  0.00  0.00    +0.020 A 
ATOM     29  C   UNL     1       5.971  -0.569  22.994  0.00  0.00    +0.041 A 
ENDBRANCH  23  24
ENDBRANCH  18  21
TORSDOF 5
ENDMDL
