MODEL 1
REMARK VINA RESULT:      -4.8      0.000      0.000
REMARK  Name = 26743984
REMARK  4 active torsions:
REMARK  status: ('A' for Active; 'I' for Inactive)
REMARK    1  A    between atoms: O_2  and  C_12
REMARK    2  A    between atoms: N_4  and  C_8
REMARK    3  A    between atoms: C_9  and  C_15
REMARK    4  A    between atoms: C_18  and  C_19
REMARK                            x       y       z     vdW  Elec       q    Type
REMARK                         _______ _______ _______ _____ _____    ______ ____
ROOT
ATOM      4  N   UNL     1      -4.190   1.150  25.552  0.00  0.00    -0.286 NA
ATOM      9  C   UNL     1      -3.670   1.881  24.379  0.00  0.00    +0.149 C 
ATOM     10  C   UNL     1      -5.457   1.786  25.908  0.00  0.00    +0.116 C 
ATOM     11  C   UNL     1      -4.253   3.301  24.512  0.00  0.00    +0.061 C 
ATOM     12  C   UNL     1      -5.120   3.257  25.762  0.00  0.00    +0.130 C 
ENDROOT
BRANCH   4   8
ATOM      1  O   UNL     1      -3.287  -2.727  24.217  0.00  0.00    -0.380 OA
ATOM      8  C   UNL     1      -4.341  -0.284  25.317  0.00  0.00    +0.062 C 
ATOM     13  C   UNL     1      -4.352  -0.579  23.814  0.00  0.00    +0.047 C 
ATOM     14  C   UNL     1      -3.222  -1.075  25.999  0.00  0.00    +0.047 C 
ATOM     16  C   UNL     1      -4.385  -2.084  23.570  0.00  0.00    +0.161 C 
ATOM     17  C   UNL     1      -3.318  -2.553  25.634  0.00  0.00    +0.161 C 
ENDBRANCH   4   8
BRANCH   9  15
ATOM      3  O   UNL     1      -1.509   2.721  25.148  0.00  0.00    -0.336 OA
ATOM      5  N   UNL     1      -1.366   1.161  23.548  0.00  0.00    -0.190 NA
ATOM      6  N   UNL     1      -0.141   2.537  24.904  0.00  0.00    -0.056 NA
ATOM     15  C   UNL     1      -2.158   1.873  24.309  0.00  0.00    +0.245 A 
ATOM     18  C   UNL     1      -0.139   1.603  23.949  0.00  0.00    +0.204 A 
BRANCH  18  19
ATOM      7  N   UNL     1       3.463   1.284  23.082  0.00  0.00    -0.263 NA
ATOM     19  C   UNL     1       1.071   1.088  23.375  0.00  0.00    +0.041 A 
ATOM     20  C   UNL     1       1.060  -0.055  22.584  0.00  0.00    +0.014 A 
ATOM     21  C   UNL     1       2.288   1.716  23.593  0.00  0.00    +0.122 A 
ATOM     22  C   UNL     1       2.249  -0.529  22.041  0.00  0.00    +0.020 A 
ATOM     23  C   UNL     1       3.413   0.170  22.318  0.00  0.00    +0.111 A 
ENDBRANCH  18  19
ENDBRANCH   9  15
BRANCH  12   2
ATOM      2  O   UNL     1      -6.282   4.047  25.596  0.00  0.00    -0.390 OA
ATOM     24  H   UNL     1      -6.166   4.851  26.131  0.00  0.00    +0.210 HD
ENDBRANCH  12   2
TORSDOF 4
ENDMDL
MODEL 2
REMARK VINA RESULT:      -4.6     13.778     15.856
REMARK  Name = 26743984
REMARK  4 active torsions:
REMARK  status: ('A' for Active; 'I' for Inactive)
REMARK    1  A    between atoms: O_2  and  C_12
REMARK    2  A    between atoms: N_4  and  C_8
REMARK    3  A    between atoms: C_9  and  C_15
REMARK    4  A    between atoms: C_18  and  C_19
REMARK                            x       y       z     vdW  Elec       q    Type
REMARK                         _______ _______ _______ _____ _____    ______ ____
ROOT
ATOM      4  N   UNL     1      -7.708  -9.074  16.059  0.00  0.00    -0.286 NA
ATOM      9  C   UNL     1      -8.692  -9.725  15.171  0.00  0.00    +0.149 C 
ATOM     10  C   UNL     1      -8.475  -8.394  17.100  0.00  0.00    +0.116 C 
ATOM     11  C   UNL     1      -9.961  -8.861  15.292  0.00  0.00    +0.061 C 
ATOM     12  C   UNL     1      -9.608  -7.778  16.301  0.00  0.00    +0.130 C 
ENDROOT
BRANCH   4   8
ATOM      1  O   UNL     1      -4.304 -10.436  18.106  0.00  0.00    -0.380 OA
ATOM      8  C   UNL     1      -6.729 -10.005  16.616  0.00  0.00    +0.062 C 
ATOM     13  C   UNL     1      -5.342  -9.739  16.022  0.00  0.00    +0.047 C 
ATOM     14  C   UNL     1      -6.675  -9.902  18.142  0.00  0.00    +0.047 C 
ATOM     16  C   UNL     1      -4.299 -10.627  16.692  0.00  0.00    +0.161 C 
ATOM     17  C   UNL     1      -5.558 -10.781  18.695  0.00  0.00    +0.161 C 
ENDBRANCH   4   8
BRANCH   9  15
ATOM      3  O   UNL     1      -9.011 -10.509  12.879  0.00  0.00    -0.336 OA
ATOM      5  N   UNL     1      -7.090  -9.406  13.208  0.00  0.00    -0.190 NA
ATOM      6  N   UNL     1      -8.354 -10.494  11.641  0.00  0.00    -0.056 NA
ATOM     15  C   UNL     1      -8.200  -9.847  13.744  0.00  0.00    +0.245 A 
ATOM     18  C   UNL     1      -7.230  -9.826  11.918  0.00  0.00    +0.204 A 
BRANCH  18  19
ATOM      7  N   UNL     1      -5.640  -9.334   8.592  0.00  0.00    -0.263 NA
ATOM     19  C   UNL     1      -6.227  -9.561  10.927  0.00  0.00    +0.041 A 
ATOM     20  C   UNL     1      -4.914  -9.285  11.291  0.00  0.00    +0.014 A 
ATOM     21  C   UNL     1      -6.536  -9.574   9.576  0.00  0.00    +0.122 A 
ATOM     22  C   UNL     1      -3.963  -9.032  10.308  0.00  0.00    +0.020 A 
ATOM     23  C   UNL     1      -4.374  -9.068   8.985  0.00  0.00    +0.111 A 
ENDBRANCH  18  19
ENDBRANCH   9  15
BRANCH  12   2
ATOM      2  O   UNL     1     -10.719  -7.471  17.120  0.00  0.00    -0.390 OA
ATOM     24  H   UNL     1     -10.668  -8.041  17.907  0.00  0.00    +0.210 HD
ENDBRANCH  12   2
TORSDOF 4
ENDMDL
MODEL 3
REMARK VINA RESULT:      -3.8      2.033      2.912
REMARK  Name = 26743984
REMARK  4 active torsions:
REMARK  status: ('A' for Active; 'I' for Inactive)
REMARK    1  A    between atoms: O_2  and  C_12
REMARK    2  A    between atoms: N_4  and  C_8
REMARK    3  A    between atoms: C_9  and  C_15
REMARK    4  A    between atoms: C_18  and  C_19
REMARK                            x       y       z     vdW  Elec       q    Type
REMARK                         _______ _______ _______ _____ _____    ______ ____
ROOT
ATOM      4  N   UNL     1      -1.717   1.795  25.269  0.00  0.00    -0.286 NA
ATOM      9  C   UNL     1      -1.196   2.094  23.920  0.00  0.00    +0.149 C 
ATOM     10  C   UNL     1      -2.288   3.040  25.777  0.00  0.00    +0.116 C 
ATOM     11  C   UNL     1      -0.848   3.594  23.957  0.00  0.00    +0.061 C 
ATOM     12  C   UNL     1      -1.250   4.059  25.350  0.00  0.00    +0.130 C 
ENDROOT
BRANCH   4   8
ATOM      1  O   UNL     1      -3.587  -1.807  24.192  0.00  0.00    -0.380 OA
ATOM      8  C   UNL     1      -2.683   0.699  25.284  0.00  0.00    +0.062 C 
ATOM     13  C   UNL     1      -3.401   0.603  23.934  0.00  0.00    +0.047 C 
ATOM     14  C   UNL     1      -2.002  -0.632  25.612  0.00  0.00    +0.047 C 
ATOM     16  C   UNL     1      -4.318  -0.615  23.907  0.00  0.00    +0.161 C 
ATOM     17  C   UNL     1      -2.997  -1.781  25.493  0.00  0.00    +0.161 C 
ENDBRANCH   4   8
BRANCH   9  15
ATOM      3  O   UNL     1      -0.261   0.197  22.697  0.00  0.00    -0.336 OA
ATOM      5  N   UNL     1       1.237   1.320  23.924  0.00  0.00    -0.190 NA
ATOM      6  N   UNL     1       0.966  -0.452  22.503  0.00  0.00    -0.056 NA
ATOM     15  C   UNL     1      -0.012   1.227  23.546  0.00  0.00    +0.245 A 
ATOM     18  C   UNL     1       1.799   0.270  23.259  0.00  0.00    +0.204 A 
BRANCH  18  19
ATOM      7  N   UNL     1       4.928  -1.641  23.878  0.00  0.00    -0.263 NA
ATOM     19  C   UNL     1       3.197  -0.032  23.370  0.00  0.00    +0.041 A 
ATOM     20  C   UNL     1       4.162   0.931  23.096  0.00  0.00    +0.014 A 
ATOM     21  C   UNL     1       3.628  -1.292  23.754  0.00  0.00    +0.122 A 
ATOM     22  C   UNL     1       5.510   0.609  23.213  0.00  0.00    +0.020 A 
ATOM     23  C   UNL     1       5.838  -0.679  23.604  0.00  0.00    +0.111 A 
ENDBRANCH  18  19
ENDBRANCH   9  15
BRANCH  12   2
ATOM      2  O   UNL     1      -1.784   5.368  25.309  0.00  0.00    -0.390 OA
ATOM     24  H   UNL     1      -2.720   5.308  25.566  0.00  0.00    +0.210 HD
ENDBRANCH  12   2
TORSDOF 4
ENDMDL
MODEL 4
REMARK VINA RESULT:      -3.5      1.625      3.948
REMARK  Name = 26743984
REMARK  4 active torsions:
REMARK  status: ('A' for Active; 'I' for Inactive)
REMARK    1  A    between atoms: O_2  and  C_12
REMARK    2  A    between atoms: N_4  and  C_8
REMARK    3  A    between atoms: C_9  and  C_15
REMARK    4  A    between atoms: C_18  and  C_19
REMARK                            x       y       z     vdW  Elec       q    Type
REMARK                         _______ _______ _______ _____ _____    ______ ____
ROOT
ATOM      4  N   UNL     1      -3.266  -0.027  24.145  0.00  0.00    -0.286 NA
ATOM      9  C   UNL     1      -2.099  -0.700  24.751  0.00  0.00    +0.149 C 
ATOM     10  C   UNL     1      -4.361  -0.993  24.173  0.00  0.00    +0.116 C 
ATOM     11  C   UNL     1      -2.324  -2.199  24.477  0.00  0.00    +0.061 C 
ATOM     12  C   UNL     1      -3.661  -2.272  23.754  0.00  0.00    +0.130 C 
ENDROOT
BRANCH   4   8
ATOM      1  O   UNL     1      -5.246   3.598  24.896  0.00  0.00    -0.380 OA
ATOM      8  C   UNL     1      -3.620   1.225  24.811  0.00  0.00    +0.062 C 
ATOM     13  C   UNL     1      -3.390   2.412  23.869  0.00  0.00    +0.047 C 
ATOM     14  C   UNL     1      -5.075   1.206  25.286  0.00  0.00    +0.047 C 
ATOM     16  C   UNL     1      -3.874   3.704  24.519  0.00  0.00    +0.161 C 
ATOM     17  C   UNL     1      -5.465   2.565  25.857  0.00  0.00    +0.161 C 
ENDBRANCH   4   8
BRANCH   9  15
ATOM      3  O   UNL     1      -0.823   0.981  23.520  0.00  0.00    -0.336 OA
ATOM      5  N   UNL     1       0.410  -0.728  24.278  0.00  0.00    -0.190 NA
ATOM      6  N   UNL     1       0.493   1.239  23.112  0.00  0.00    -0.056 NA
ATOM     15  C   UNL     1      -0.783  -0.194  24.200  0.00  0.00    +0.245 A 
ATOM     18  C   UNL     1       1.159   0.187  23.598  0.00  0.00    +0.204 A 
BRANCH  18  19
ATOM      7  N   UNL     1       4.534  -1.373  23.659  0.00  0.00    -0.263 NA
ATOM     19  C   UNL     1       2.573   0.021  23.420  0.00  0.00    +0.041 A 
ATOM     20  C   UNL     1       3.350   1.031  22.865  0.00  0.00    +0.014 A 
ATOM     21  C   UNL     1       3.207  -1.153  23.798  0.00  0.00    +0.122 A 
ATOM     22  C   UNL     1       4.718   0.841  22.706  0.00  0.00    +0.020 A 
ATOM     23  C   UNL     1       5.256  -0.368  23.115  0.00  0.00    +0.111 A 
ENDBRANCH  18  19
ENDBRANCH   9  15
BRANCH  12   2
ATOM      2  O   UNL     1      -4.385  -3.421  24.150  0.00  0.00    -0.390 OA
ATOM     24  H   UNL     1      -5.321  -3.164  24.222  0.00  0.00    +0.210 HD
ENDBRANCH  12   2
TORSDOF 4
ENDMDL
MODEL 5
REMARK VINA RESULT:      -2.5      2.836      3.619
REMARK  Name = 26743984
REMARK  4 active torsions:
REMARK  status: ('A' for Active; 'I' for Inactive)
REMARK    1  A    between atoms: O_2  and  C_12
REMARK    2  A    between atoms: N_4  and  C_8
REMARK    3  A    between atoms: C_9  and  C_15
REMARK    4  A    between atoms: C_18  and  C_19
REMARK                            x       y       z     vdW  Elec       q    Type
REMARK                         _______ _______ _______ _____ _____    ______ ____
ROOT
ATOM      4  N   UNL     1      -3.749   1.098  25.195  0.00  0.00    -0.286 NA
ATOM      9  C   UNL     1      -3.022   2.285  24.700  0.00  0.00    +0.149 C 
ATOM     10  C   UNL     1      -5.170   1.432  25.145  0.00  0.00    +0.116 C 
ATOM     11  C   UNL     1      -3.941   3.475  25.033  0.00  0.00    +0.061 C 
ATOM     12  C   UNL     1      -5.176   2.855  25.671  0.00  0.00    +0.130 C 
ENDROOT
BRANCH   4   8
ATOM      1  O   UNL     1      -3.339  -2.995  24.353  0.00  0.00    -0.380 OA
ATOM      8  C   UNL     1      -3.443  -0.119  24.448  0.00  0.00    +0.062 C 
ATOM     13  C   UNL     1      -2.355  -0.925  25.164  0.00  0.00    +0.047 C 
ATOM     14  C   UNL     1      -4.695  -0.980  24.258  0.00  0.00    +0.047 C 
ATOM     16  C   UNL     1      -2.124  -2.253  24.451  0.00  0.00    +0.161 C 
ATOM     17  C   UNL     1      -4.333  -2.305  23.595  0.00  0.00    +0.161 C 
ENDBRANCH   4   8
BRANCH   9  15
ATOM      3  O   UNL     1      -0.609   2.563  24.440  0.00  0.00    -0.336 OA
ATOM      5  N   UNL     1      -1.288   2.420  26.569  0.00  0.00    -0.190 NA
ATOM      6  N   UNL     1       0.547   2.667  25.225  0.00  0.00    -0.056 NA
ATOM     15  C   UNL     1      -1.643   2.421  25.309  0.00  0.00    +0.245 A 
ATOM     18  C   UNL     1       0.063   2.574  26.467  0.00  0.00    +0.204 A 
BRANCH  18  19
ATOM      7  N   UNL     1       3.071   3.115  28.587  0.00  0.00    -0.263 NA
ATOM     19  C   UNL     1       0.904   2.633  27.629  0.00  0.00    +0.041 A 
ATOM     20  C   UNL     1       0.418   2.286  28.884  0.00  0.00    +0.014 A 
ATOM     21  C   UNL     1       2.226   3.038  27.533  0.00  0.00    +0.122 A 
ATOM     22  C   UNL     1       1.257   2.353  29.991  0.00  0.00    +0.020 A 
ATOM     23  C   UNL     1       2.563   2.770  29.791  0.00  0.00    +0.111 A 
ENDBRANCH  18  19
ENDBRANCH   9  15
BRANCH  12   2
ATOM      2  O   UNL     1      -6.345   3.552  25.286  0.00  0.00    -0.390 OA
ATOM     24  H   UNL     1      -6.577   4.155  26.013  0.00  0.00    +0.210 HD
ENDBRANCH  12   2
TORSDOF 4
ENDMDL
MODEL 6
REMARK VINA RESULT:      -1.5     14.320     16.995
REMARK  Name = 26743984
REMARK  4 active torsions:
REMARK  status: ('A' for Active; 'I' for Inactive)
REMARK    1  A    between atoms: O_2  and  C_12
REMARK    2  A    between atoms: N_4  and  C_8
REMARK    3  A    between atoms: C_9  and  C_15
REMARK    4  A    between atoms: C_18  and  C_19
REMARK                            x       y       z     vdW  Elec       q    Type
REMARK                         _______ _______ _______ _____ _____    ______ ____
ROOT
ATOM      4  N   UNL     1      -4.841  -9.731  14.607  0.00  0.00    -0.286 NA
ATOM      9  C   UNL     1      -5.964 -10.498  14.029  0.00  0.00    +0.149 C 
ATOM     10  C   UNL     1      -5.087  -9.655  16.044  0.00  0.00    +0.116 C 
ATOM     11  C   UNL     1      -7.144 -10.246  14.987  0.00  0.00    +0.061 C 
ATOM     12  C   UNL     1      -6.575  -9.366  16.092  0.00  0.00    +0.130 C 
ENDROOT
BRANCH   4   8
ATOM      1  O   UNL     1      -0.698  -9.946  13.957  0.00  0.00    -0.380 OA
ATOM      8  C   UNL     1      -3.533 -10.308  14.302  0.00  0.00    +0.062 C 
ATOM     13  C   UNL     1      -2.935  -9.645  13.057  0.00  0.00    +0.047 C 
ATOM     14  C   UNL     1      -2.575 -10.159  15.487  0.00  0.00    +0.047 C 
ATOM     16  C   UNL     1      -1.521 -10.158  12.811  0.00  0.00    +0.161 C 
ATOM     17  C   UNL     1      -1.180 -10.644  15.106  0.00  0.00    +0.161 C 
ENDBRANCH   4   8
BRANCH   9  15
ATOM      3  O   UNL     1      -5.618 -10.781  11.628  0.00  0.00    -0.336 OA
ATOM      5  N   UNL     1      -7.085  -9.174  12.156  0.00  0.00    -0.190 NA
ATOM      6  N   UNL     1      -6.059 -10.241  10.412  0.00  0.00    -0.056 NA
ATOM     15  C   UNL     1      -6.272 -10.097  12.603  0.00  0.00    +0.245 A 
ATOM     18  C   UNL     1      -6.921  -9.300  10.808  0.00  0.00    +0.204 A 
BRANCH  18  19
ATOM      7  N   UNL     1      -9.750  -7.772   8.939  0.00  0.00    -0.263 NA
ATOM     19  C   UNL     1      -7.635  -8.469   9.881  0.00  0.00    +0.041 A 
ATOM     20  C   UNL     1      -6.963  -7.582   9.048  0.00  0.00    +0.014 A 
ATOM     21  C   UNL     1      -9.017  -8.526   9.789  0.00  0.00    +0.122 A 
ATOM     22  C   UNL     1      -7.683  -6.790   8.159  0.00  0.00    +0.020 A 
ATOM     23  C   UNL     1      -9.062  -6.922   8.144  0.00  0.00    +0.111 A 
ENDBRANCH  18  19
ENDBRANCH   9  15
BRANCH  12   2
ATOM      2  O   UNL     1      -7.136  -9.706  17.345  0.00  0.00    -0.390 OA
ATOM     24  H   UNL     1      -7.552 -10.581  17.250  0.00  0.00    +0.210 HD
ENDBRANCH  12   2
TORSDOF 4
ENDMDL
