MODEL 1
REMARK VINA RESULT:      -1.5      0.000      0.000
REMARK  Name = 7142733
REMARK  5 active torsions:
REMARK  status: ('A' for Active; 'I' for Inactive)
REMARK    1  A    between atoms: O_3  and  C_21
REMARK    2  A    between atoms: O_3  and  C_23
REMARK    3  A    between atoms: N_7  and  C_19
REMARK    4  A    between atoms: C_18  and  C_21
REMARK    5  A    between atoms: C_22  and  C_24
REMARK                            x       y       z     vdW  Elec       q    Type
REMARK                         _______ _______ _______ _____ _____    ______ ____
ROOT
ATOM      1  O   UNL     1      -0.013   2.400  26.076  0.00  0.00    -0.266 OA
ATOM      2  O   UNL     1      -4.756  -0.018  26.652  0.00  0.00    -0.272 OA
ATOM      5  N   UNL     1      -4.905   1.738  25.139  0.00  0.00    -0.298 N 
ATOM      6  N   UNL     1      -1.940   2.904  24.854  0.00  0.00    -0.310 N 
ATOM      9  C   UNL     1      -4.023   3.942  25.921  0.00  0.00    +0.027 C 
ATOM     10  C   UNL     1      -4.017   3.408  23.521  0.00  0.00    +0.054 C 
ATOM     11  C   UNL     1      -4.273   4.521  24.533  0.00  0.00    +0.018 C 
ATOM     12  C   UNL     1      -4.968   2.757  26.188  0.00  0.00    +0.113 C 
ATOM     13  C   UNL     1      -2.548   3.539  26.031  0.00  0.00    +0.130 C 
ATOM     14  C   UNL     1      -5.006   2.250  23.764  0.00  0.00    +0.117 C 
ATOM     15  C   UNL     1      -2.592   2.897  23.617  0.00  0.00    +0.027 A 
ATOM     16  C   UNL     1      -1.970   2.416  22.528  0.00  0.00    +0.024 A 
ATOM     17  C   UNL     1      -0.634   2.399  25.012  0.00  0.00    +0.273 A 
ATOM     18  C   UNL     1      -4.841   0.391  25.491  0.00  0.00    +0.253 C 
ATOM     19  C   UNL     1       0.015   1.849  23.779  0.00  0.00    +0.099 A 
ATOM     20  C   UNL     1      -0.641   1.881  22.614  0.00  0.00    +0.030 A 
ENDROOT
BRANCH  19   7
ATOM      4  O   UNL     1       1.198  -0.113  22.076  0.00  0.00    -0.270 OA
ATOM      7  N   UNL     1       1.276   1.340  23.892  0.00  0.00    -0.277 N 
ATOM     22  C   UNL     1       1.794   0.383  23.028  0.00  0.00    +0.248 C 
ATOM     34  H   UNL     1       1.768   1.590  24.743  0.00  0.00    +0.155 HD
BRANCH  22  24
ATOM      8  N   UNL     1       5.799  -0.811  23.797  0.00  0.00    -0.263 NA
ATOM     24  C   UNL     1       3.194  -0.035  23.297  0.00  0.00    +0.040 A 
ATOM     27  C   UNL     1       4.206   0.880  23.129  0.00  0.00    +0.033 A 
ATOM     28  C   UNL     1       3.437  -1.324  23.707  0.00  0.00    +0.033 A 
ATOM     32  C   UNL     1       5.494   0.442  23.392  0.00  0.00    +0.111 A 
ATOM     33  C   UNL     1       4.760  -1.664  23.945  0.00  0.00    +0.111 A 
ENDBRANCH  22  24
ENDBRANCH  19   7
BRANCH  18  21
ATOM     21  C   UNL     1      -4.873  -0.606  24.359  0.00  0.00    +0.324 C 
BRANCH  21   3
ATOM      3  O   UNL     1      -4.268  -1.781  24.840  0.00  0.00    -0.483 OA
BRANCH   3  23
ATOM     23  C   UNL     1      -2.894  -1.800  24.918  0.00  0.00    +0.121 A 
ATOM     25  C   UNL     1      -2.179  -2.698  24.139  0.00  0.00    +0.045 A 
ATOM     26  C   UNL     1      -2.247  -0.921  25.774  0.00  0.00    +0.045 A 
ATOM     29  C   UNL     1      -0.787  -2.717  24.218  0.00  0.00    +0.004 A 
ATOM     30  C   UNL     1      -0.855  -0.940  25.854  0.00  0.00    +0.004 A 
ATOM     31  C   UNL     1      -0.125  -1.839  25.075  0.00  0.00    +0.000 A 
ENDBRANCH   3  23
ENDBRANCH  21   3
ENDBRANCH  18  21
TORSDOF 5
ENDMDL
