MODEL 1
REMARK VINA RESULT:      -3.7      0.000      0.000
REMARK  Name = 56775906
REMARK  5 active torsions:
REMARK  status: ('A' for Active; 'I' for Inactive)
REMARK    1  A    between atoms: N_2  and  C_6
REMARK    2  A    between atoms: C_5  and  C_10
REMARK    3  A    between atoms: C_6  and  C_11
REMARK    4  A    between atoms: C_6  and  C_12
REMARK    5  A    between atoms: C_13  and  C_15
REMARK                            x       y       z     vdW  Elec       q    Type
REMARK                         _______ _______ _______ _____ _____    ______ ____
ROOT
ATOM      3  N   UNL     1      -1.066   1.453  23.834  0.00  0.00    -0.341 N 
ATOM      4  N   UNL     1      -1.052   2.592  25.741  0.00  0.00    -0.238 NA
ATOM     10  C   UNL     1      -1.809   2.073  24.799  0.00  0.00    +0.127 A 
ATOM     13  C   UNL     1       0.248   1.584  24.181  0.00  0.00    +0.066 A 
ATOM     14  C   UNL     1       0.232   2.290  25.360  0.00  0.00    +0.139 A 
ATOM     21  H   UNL     1      -1.433   0.992  23.011  0.00  0.00    +0.167 HD
ENDROOT
BRANCH  10   5
ATOM      1  O   UNL     1      -5.241   3.558  25.217  0.00  0.00    -0.377 OA
ATOM      2  N   UNL     1      -3.991   0.991  25.433  0.00  0.00    -0.286 NA
ATOM      5  C   UNL     1      -3.329   2.117  24.725  0.00  0.00    +0.149 C 
ATOM      7  C   UNL     1      -5.455   1.161  25.404  0.00  0.00    +0.113 C 
ATOM      8  C   UNL     1      -3.819   3.462  25.295  0.00  0.00    +0.186 C 
ATOM      9  C   UNL     1      -5.853   2.516  25.973  0.00  0.00    +0.175 C 
BRANCH   2   6
ATOM      6  C   UNL     1      -3.647  -0.309  24.848  0.00  0.00    +0.051 C 
ATOM     11  C   UNL     1      -3.322  -1.298  25.962  0.00  0.00    +0.024 C 
ATOM     12  C   UNL     1      -4.794  -0.819  23.980  0.00  0.00    +0.024 C 
ENDBRANCH   2   6
ENDBRANCH  10   5
BRANCH  13  15
ATOM     15  C   UNL     1       1.332   1.051  23.397  0.00  0.00    -0.000 A 
ATOM     16  C   UNL     1       1.098   0.004  22.505  0.00  0.00    +0.010 A 
ATOM     17  C   UNL     1       2.614   1.581  23.530  0.00  0.00    +0.010 A 
ATOM     18  C   UNL     1       2.148  -0.512  21.746  0.00  0.00    +0.001 A 
ATOM     19  C   UNL     1       3.665   1.065  22.772  0.00  0.00    +0.001 A 
ATOM     20  C   UNL     1       3.432   0.019  21.879  0.00  0.00    +0.000 A 
ENDBRANCH  13  15
TORSDOF 3
ENDMDL
MODEL 2
REMARK VINA RESULT:      -3.5      1.704      2.678
REMARK  Name = 56775906
REMARK  5 active torsions:
REMARK  status: ('A' for Active; 'I' for Inactive)
REMARK    1  A    between atoms: N_2  and  C_6
REMARK    2  A    between atoms: C_5  and  C_10
REMARK    3  A    between atoms: C_6  and  C_11
REMARK    4  A    between atoms: C_6  and  C_12
REMARK    5  A    between atoms: C_13  and  C_15
REMARK                            x       y       z     vdW  Elec       q    Type
REMARK                         _______ _______ _______ _____ _____    ______ ____
ROOT
ATOM      3  N   UNL     1       0.793   1.385  23.844  0.00  0.00    -0.341 N 
ATOM      4  N   UNL     1      -0.854   0.065  23.151  0.00  0.00    -0.238 NA
ATOM     10  C   UNL     1      -0.556   1.228  23.688  0.00  0.00    +0.127 A 
ATOM     13  C   UNL     1       1.394   0.251  23.377  0.00  0.00    +0.066 A 
ATOM     14  C   UNL     1       0.358  -0.548  22.955  0.00  0.00    +0.139 A 
ATOM     21  H   UNL     1       1.252   2.194  24.242  0.00  0.00    +0.167 HD
ENDROOT
BRANCH  10   5
ATOM      1  O   UNL     1      -1.622   4.581  25.024  0.00  0.00    -0.377 OA
ATOM      2  N   UNL     1      -2.523   1.864  25.124  0.00  0.00    -0.286 NA
ATOM      5  C   UNL     1      -1.535   2.315  24.110  0.00  0.00    +0.149 C 
ATOM      7  C   UNL     1      -3.363   2.996  25.554  0.00  0.00    +0.113 C 
ATOM      8  C   UNL     1      -0.741   3.523  24.644  0.00  0.00    +0.186 C 
ATOM      9  C   UNL     1      -2.504   4.148  26.057  0.00  0.00    +0.175 C 
BRANCH   2   6
ATOM      6  C   UNL     1      -3.385   0.791  24.617  0.00  0.00    +0.051 C 
ATOM     11  C   UNL     1      -3.224  -0.446  25.494  0.00  0.00    +0.024 C 
ATOM     12  C   UNL     1      -4.839   1.253  24.582  0.00  0.00    +0.024 C 
ENDBRANCH   2   6
ENDBRANCH  10   5
BRANCH  13  15
ATOM     15  C   UNL     1       2.819   0.052  23.377  0.00  0.00    -0.000 A 
ATOM     16  C   UNL     1       3.668   1.086  22.983  0.00  0.00    +0.010 A 
ATOM     17  C   UNL     1       3.351  -1.175  23.771  0.00  0.00    +0.010 A 
ATOM     18  C   UNL     1       5.049   0.893  22.983  0.00  0.00    +0.001 A 
ATOM     19  C   UNL     1       4.732  -1.370  23.771  0.00  0.00    +0.001 A 
ATOM     20  C   UNL     1       5.582  -0.336  23.378  0.00  0.00    +0.000 A 
ENDBRANCH  13  15
TORSDOF 3
ENDMDL
MODEL 3
REMARK VINA RESULT:      -3.4     15.925     18.529
REMARK  Name = 56775906
REMARK  5 active torsions:
REMARK  status: ('A' for Active; 'I' for Inactive)
REMARK    1  A    between atoms: N_2  and  C_6
REMARK    2  A    between atoms: C_5  and  C_10
REMARK    3  A    between atoms: C_6  and  C_11
REMARK    4  A    between atoms: C_6  and  C_12
REMARK    5  A    between atoms: C_13  and  C_15
REMARK                            x       y       z     vdW  Elec       q    Type
REMARK                         _______ _______ _______ _____ _____    ______ ____
ROOT
ATOM      3  N   UNL     1      11.206  -7.326  32.040  0.00  0.00    -0.341 N 
ATOM      4  N   UNL     1      12.593  -9.061  32.057  0.00  0.00    -0.238 NA
ATOM     10  C   UNL     1      12.506  -7.749  32.052  0.00  0.00    +0.127 A 
ATOM     13  C   UNL     1      10.414  -8.438  32.039  0.00  0.00    +0.066 A 
ATOM     14  C   UNL     1      11.292  -9.496  32.050  0.00  0.00    +0.139 A 
ATOM     21  H   UNL     1      10.898  -6.362  32.026  0.00  0.00    +0.167 HD
ENDROOT
BRANCH  10   5
ATOM      1  O   UNL     1      14.299  -4.543  32.871  0.00  0.00    -0.377 OA
ATOM      2  N   UNL     1      14.142  -6.399  30.697  0.00  0.00    -0.286 NA
ATOM      5  C   UNL     1      13.662  -6.758  32.056  0.00  0.00    +0.149 C 
ATOM      7  C   UNL     1      15.187  -5.363  30.783  0.00  0.00    +0.113 C 
ATOM      8  C   UNL     1      13.231  -5.490  32.817  0.00  0.00    +0.186 C 
ATOM      9  C   UNL     1      14.685  -4.151  31.557  0.00  0.00    +0.175 C 
BRANCH   2   6
ATOM      6  C   UNL     1      14.676  -7.560  29.974  0.00  0.00    +0.051 C 
ATOM     11  C   UNL     1      15.047  -7.147  28.554  0.00  0.00    +0.024 C 
ATOM     12  C   UNL     1      15.882  -8.133  30.711  0.00  0.00    +0.024 C 
ENDBRANCH   2   6
ENDBRANCH  10   5
BRANCH  13  15
ATOM     15  C   UNL     1       8.975  -8.386  32.030  0.00  0.00    -0.000 A 
ATOM     16  C   UNL     1       8.304  -7.501  32.873  0.00  0.00    +0.010 A 
ATOM     17  C   UNL     1       8.253  -9.222  31.179  0.00  0.00    +0.010 A 
ATOM     18  C   UNL     1       6.910  -7.451  32.864  0.00  0.00    +0.001 A 
ATOM     19  C   UNL     1       6.859  -9.173  31.170  0.00  0.00    +0.001 A 
ATOM     20  C   UNL     1       6.187  -8.287  32.012  0.00  0.00    +0.000 A 
ENDBRANCH  13  15
TORSDOF 3
ENDMDL
MODEL 4
REMARK VINA RESULT:      -3.4      1.763      3.511
REMARK  Name = 56775906
REMARK  5 active torsions:
REMARK  status: ('A' for Active; 'I' for Inactive)
REMARK    1  A    between atoms: N_2  and  C_6
REMARK    2  A    between atoms: C_5  and  C_10
REMARK    3  A    between atoms: C_6  and  C_11
REMARK    4  A    between atoms: C_6  and  C_12
REMARK    5  A    between atoms: C_13  and  C_15
REMARK                            x       y       z     vdW  Elec       q    Type
REMARK                         _______ _______ _______ _____ _____    ______ ____
ROOT
ATOM      3  N   UNL     1       0.699   0.612  24.133  0.00  0.00    -0.341 N 
ATOM      4  N   UNL     1      -0.659   0.081  22.458  0.00  0.00    -0.238 NA
ATOM     10  C   UNL     1      -0.585   0.595  23.666  0.00  0.00    +0.127 A 
ATOM     13  C   UNL     1       1.495   0.076  23.162  0.00  0.00    +0.066 A 
ATOM     14  C   UNL     1       0.635  -0.245  22.139  0.00  0.00    +0.139 A 
ATOM     21  H   UNL     1       0.995   0.954  25.039  0.00  0.00    +0.167 HD
ENDROOT
BRANCH  10   5
ATOM      1  O   UNL     1      -4.147   0.870  24.848  0.00  0.00    -0.377 OA
ATOM      2  N   UNL     1      -1.906   2.600  24.422  0.00  0.00    -0.286 NA
ATOM      5  C   UNL     1      -1.741   1.126  24.504  0.00  0.00    +0.149 C 
ATOM      7  C   UNL     1      -3.102   3.020  25.173  0.00  0.00    +0.113 C 
ATOM      8  C   UNL     1      -3.040   0.423  24.065  0.00  0.00    +0.186 C 
ATOM      9  C   UNL     1      -4.337   2.273  24.687  0.00  0.00    +0.175 C 
BRANCH   2   6
ATOM      6  C   UNL     1      -0.736   3.317  24.942  0.00  0.00    +0.051 C 
ATOM     11  C   UNL     1      -1.023   4.814  24.954  0.00  0.00    +0.024 C 
ATOM     12  C   UNL     1      -0.386   2.815  26.340  0.00  0.00    +0.024 C 
ENDBRANCH   2   6
ENDBRANCH  10   5
BRANCH  13  15
ATOM     15  C   UNL     1       2.921  -0.070  23.297  0.00  0.00    -0.000 A 
ATOM     16  C   UNL     1       3.763   1.003  23.001  0.00  0.00    +0.010 A 
ATOM     17  C   UNL     1       3.461  -1.283  23.722  0.00  0.00    +0.010 A 
ATOM     18  C   UNL     1       5.144   0.861  23.131  0.00  0.00    +0.001 A 
ATOM     19  C   UNL     1       4.842  -1.425  23.852  0.00  0.00    +0.001 A 
ATOM     20  C   UNL     1       5.685  -0.353  23.557  0.00  0.00    +0.000 A 
ENDBRANCH  13  15
TORSDOF 3
ENDMDL
MODEL 5
REMARK VINA RESULT:      -2.8      2.085      5.447
REMARK  Name = 56775906
REMARK  5 active torsions:
REMARK  status: ('A' for Active; 'I' for Inactive)
REMARK    1  A    between atoms: N_2  and  C_6
REMARK    2  A    between atoms: C_5  and  C_10
REMARK    3  A    between atoms: C_6  and  C_11
REMARK    4  A    between atoms: C_6  and  C_12
REMARK    5  A    between atoms: C_13  and  C_15
REMARK                            x       y       z     vdW  Elec       q    Type
REMARK                         _______ _______ _______ _____ _____    ______ ____
ROOT
ATOM      3  N   UNL     1      -2.881   1.196  25.107  0.00  0.00    -0.341 N 
ATOM      4  N   UNL     1      -4.621   2.552  25.361  0.00  0.00    -0.238 NA
ATOM     10  C   UNL     1      -3.309   2.473  25.337  0.00  0.00    +0.127 A 
ATOM     13  C   UNL     1      -3.990   0.410  24.974  0.00  0.00    +0.066 A 
ATOM     14  C   UNL     1      -5.051   1.269  25.135  0.00  0.00    +0.139 A 
ATOM     21  H   UNL     1      -1.916   0.895  25.055  0.00  0.00    +0.167 HD
ENDROOT
BRANCH  10   5
ATOM      1  O   UNL     1      -2.105   6.038  25.283  0.00  0.00    -0.377 OA
ATOM      2  N   UNL     1      -1.037   3.423  24.815  0.00  0.00    -0.286 NA
ATOM      5  C   UNL     1      -2.323   3.616  25.534  0.00  0.00    +0.149 C 
ATOM      7  C   UNL     1      -0.183   4.614  24.970  0.00  0.00    +0.113 C 
ATOM      8  C   UNL     1      -2.987   4.932  25.086  0.00  0.00    +0.186 C 
ATOM      9  C   UNL     1      -0.916   5.869  24.516  0.00  0.00    +0.175 C 
BRANCH   2   6
ATOM      6  C   UNL     1      -0.308   2.243  25.293  0.00  0.00    +0.051 C 
ATOM     11  C   UNL     1       0.670   1.781  24.218  0.00  0.00    +0.024 C 
ATOM     12  C   UNL     1       0.420   2.562  26.595  0.00  0.00    +0.024 C 
ENDBRANCH   2   6
ENDBRANCH  10   5
BRANCH  13  15
ATOM     15  C   UNL     1      -3.933  -1.006  24.720  0.00  0.00    -0.000 A 
ATOM     16  C   UNL     1      -4.558  -1.538  23.592  0.00  0.00    +0.010 A 
ATOM     17  C   UNL     1      -3.253  -1.846  25.602  0.00  0.00    +0.010 A 
ATOM     18  C   UNL     1      -4.502  -2.909  23.346  0.00  0.00    +0.001 A 
ATOM     19  C   UNL     1      -3.197  -3.217  25.357  0.00  0.00    +0.001 A 
ATOM     20  C   UNL     1      -3.822  -3.750  24.229  0.00  0.00    +0.000 A 
ENDBRANCH  13  15
TORSDOF 3
ENDMDL
MODEL 6
REMARK VINA RESULT:      -2.7      1.997      3.380
REMARK  Name = 56775906
REMARK  5 active torsions:
REMARK  status: ('A' for Active; 'I' for Inactive)
REMARK    1  A    between atoms: N_2  and  C_6
REMARK    2  A    between atoms: C_5  and  C_10
REMARK    3  A    between atoms: C_6  and  C_11
REMARK    4  A    between atoms: C_6  and  C_12
REMARK    5  A    between atoms: C_13  and  C_15
REMARK                            x       y       z     vdW  Elec       q    Type
REMARK                         _______ _______ _______ _____ _____    ______ ____
ROOT
ATOM      3  N   UNL     1       0.720   0.033  24.223  0.00  0.00    -0.341 N 
ATOM      4  N   UNL     1      -0.571  -0.024  22.417  0.00  0.00    -0.238 NA
ATOM     10  C   UNL     1      -0.553   0.068  23.728  0.00  0.00    +0.127 A 
ATOM     13  C   UNL     1       1.570  -0.088  23.161  0.00  0.00    +0.066 A 
ATOM     14  C   UNL     1       0.751  -0.122  22.057  0.00  0.00    +0.139 A 
ATOM     21  H   UNL     1       0.976   0.081  25.201  0.00  0.00    +0.167 HD
ENDROOT
BRANCH  10   5
ATOM      1  O   UNL     1      -3.516  -1.119  25.721  0.00  0.00    -0.377 OA
ATOM      2  N   UNL     1      -2.776   1.166  24.161  0.00  0.00    -0.286 NA
ATOM      5  C   UNL     1      -1.759   0.199  24.649  0.00  0.00    +0.149 C 
ATOM      7  C   UNL     1      -3.953   1.158  25.049  0.00  0.00    +0.113 C 
ATOM      8  C   UNL     1      -2.397  -1.191  24.838  0.00  0.00    +0.186 C 
ATOM      9  C   UNL     1      -4.515  -0.251  25.190  0.00  0.00    +0.175 C 
BRANCH   2   6
ATOM      6  C   UNL     1      -2.247   2.531  24.078  0.00  0.00    +0.051 C 
ATOM     11  C   UNL     1      -3.393   3.506  23.828  0.00  0.00    +0.024 C 
ATOM     12  C   UNL     1      -1.495   2.886  25.357  0.00  0.00    +0.024 C 
ENDBRANCH   2   6
ENDBRANCH  10   5
BRANCH  13  15
ATOM     15  C   UNL     1       3.002  -0.155  23.294  0.00  0.00    -0.000 A 
ATOM     16  C   UNL     1       3.605  -1.325  23.756  0.00  0.00    +0.010 A 
ATOM     17  C   UNL     1       3.785   0.950  22.963  0.00  0.00    +0.010 A 
ATOM     18  C   UNL     1       4.992  -1.390  23.884  0.00  0.00    +0.001 A 
ATOM     19  C   UNL     1       5.172   0.886  23.092  0.00  0.00    +0.001 A 
ATOM     20  C   UNL     1       5.777  -0.284  23.553  0.00  0.00    +0.000 A 
ENDBRANCH  13  15
TORSDOF 3
ENDMDL
MODEL 7
REMARK VINA RESULT:      -2.6      2.087      3.141
REMARK  Name = 56775906
REMARK  5 active torsions:
REMARK  status: ('A' for Active; 'I' for Inactive)
REMARK    1  A    between atoms: N_2  and  C_6
REMARK    2  A    between atoms: C_5  and  C_10
REMARK    3  A    between atoms: C_6  and  C_11
REMARK    4  A    between atoms: C_6  and  C_12
REMARK    5  A    between atoms: C_13  and  C_15
REMARK                            x       y       z     vdW  Elec       q    Type
REMARK                         _______ _______ _______ _____ _____    ______ ____
ROOT
ATOM      3  N   UNL     1       0.295  -0.327  24.080  0.00  0.00    -0.341 N 
ATOM      4  N   UNL     1      -0.740   1.632  24.238  0.00  0.00    -0.238 NA
ATOM     10  C   UNL     1      -0.879   0.328  24.328  0.00  0.00    +0.127 A 
ATOM     13  C   UNL     1       1.244   0.619  23.817  0.00  0.00    +0.066 A 
ATOM     14  C   UNL     1       0.582   1.820  23.919  0.00  0.00    +0.139 A 
ATOM     21  H   UNL     1       0.425  -1.331  24.086  0.00  0.00    +0.167 HD
ENDROOT
BRANCH  10   5
ATOM      1  O   UNL     1      -3.122  -2.677  24.647  0.00  0.00    -0.377 OA
ATOM      2  N   UNL     1      -3.359   0.093  23.963  0.00  0.00    -0.286 NA
ATOM      5  C   UNL     1      -2.156  -0.431  24.661  0.00  0.00    +0.149 C 
ATOM      7  C   UNL     1      -4.528  -0.755  24.256  0.00  0.00    +0.113 C 
ATOM      8  C   UNL     1      -1.955  -1.921  24.321  0.00  0.00    +0.186 C 
ATOM      9  C   UNL     1      -4.243  -2.209  23.902  0.00  0.00    +0.175 C 
BRANCH   2   6
ATOM      6  C   UNL     1      -3.661   1.477  24.347  0.00  0.00    +0.051 C 
ATOM     11  C   UNL     1      -3.672   2.358  23.103  0.00  0.00    +0.024 C 
ATOM     12  C   UNL     1      -4.999   1.543  25.077  0.00  0.00    +0.024 C 
ENDBRANCH   2   6
ENDBRANCH  10   5
BRANCH  13  15
ATOM     15  C   UNL     1       2.614   0.303  23.510  0.00  0.00    -0.000 A 
ATOM     16  C   UNL     1       3.126  -0.957  23.823  0.00  0.00    +0.010 A 
ATOM     17  C   UNL     1       3.430   1.256  22.902  0.00  0.00    +0.010 A 
ATOM     18  C   UNL     1       4.454  -1.263  23.526  0.00  0.00    +0.001 A 
ATOM     19  C   UNL     1       4.758   0.951  22.606  0.00  0.00    +0.001 A 
ATOM     20  C   UNL     1       5.271  -0.309  22.917  0.00  0.00    +0.000 A 
ENDBRANCH  13  15
TORSDOF 3
ENDMDL
MODEL 8
REMARK VINA RESULT:      -2.6      1.580      2.928
REMARK  Name = 56775906
REMARK  5 active torsions:
REMARK  status: ('A' for Active; 'I' for Inactive)
REMARK    1  A    between atoms: N_2  and  C_6
REMARK    2  A    between atoms: C_5  and  C_10
REMARK    3  A    between atoms: C_6  and  C_11
REMARK    4  A    between atoms: C_6  and  C_12
REMARK    5  A    between atoms: C_13  and  C_15
REMARK                            x       y       z     vdW  Elec       q    Type
REMARK                         _______ _______ _______ _____ _____    ______ ____
ROOT
ATOM      3  N   UNL     1      -1.122   0.931  24.203  0.00  0.00    -0.341 N 
ATOM      4  N   UNL     1      -1.848  -0.828  25.349  0.00  0.00    -0.238 NA
ATOM     10  C   UNL     1      -2.116   0.406  24.981  0.00  0.00    +0.127 A 
ATOM     13  C   UNL     1      -0.160  -0.028  24.064  0.00  0.00    +0.066 A 
ATOM     14  C   UNL     1      -0.630  -1.104  24.780  0.00  0.00    +0.139 A 
ATOM     21  H   UNL     1      -1.107   1.865  23.812  0.00  0.00    +0.167 HD
ENDROOT
BRANCH  10   5
ATOM      1  O   UNL     1      -5.777   1.273  25.013  0.00  0.00    -0.377 OA
ATOM      2  N   UNL     1      -3.265   2.645  24.944  0.00  0.00    -0.286 NA
ATOM      5  C   UNL     1      -3.355   1.215  25.337  0.00  0.00    +0.149 C 
ATOM      7  C   UNL     1      -4.537   3.333  25.228  0.00  0.00    +0.113 C 
ATOM      8  C   UNL     1      -4.585   0.562  24.679  0.00  0.00    +0.186 C 
ATOM      9  C   UNL     1      -5.700   2.619  24.551  0.00  0.00    +0.175 C 
BRANCH   2   6
ATOM      6  C   UNL     1      -2.177   3.342  25.639  0.00  0.00    +0.051 C 
ATOM     11  C   UNL     1      -1.320   4.088  24.622  0.00  0.00    +0.024 C 
ATOM     12  C   UNL     1      -2.744   4.299  26.684  0.00  0.00    +0.024 C 
ENDBRANCH   2   6
ENDBRANCH  10   5
BRANCH  13  15
ATOM     15  C   UNL     1       1.047   0.164  23.304  0.00  0.00    -0.000 A 
ATOM     16  C   UNL     1       2.008   1.077  23.739  0.00  0.00    +0.010 A 
ATOM     17  C   UNL     1       1.256  -0.563  22.132  0.00  0.00    +0.010 A 
ATOM     18  C   UNL     1       3.177   1.262  23.002  0.00  0.00    +0.001 A 
ATOM     19  C   UNL     1       2.425  -0.377  21.395  0.00  0.00    +0.001 A 
ATOM     20  C   UNL     1       3.387   0.535  21.829  0.00  0.00    +0.000 A 
ENDBRANCH  13  15
TORSDOF 3
ENDMDL
MODEL 9
REMARK VINA RESULT:      -2.0      2.460      6.333
REMARK  Name = 56775906
REMARK  5 active torsions:
REMARK  status: ('A' for Active; 'I' for Inactive)
REMARK    1  A    between atoms: N_2  and  C_6
REMARK    2  A    between atoms: C_5  and  C_10
REMARK    3  A    between atoms: C_6  and  C_11
REMARK    4  A    between atoms: C_6  and  C_12
REMARK    5  A    between atoms: C_13  and  C_15
REMARK                            x       y       z     vdW  Elec       q    Type
REMARK                         _______ _______ _______ _____ _____    ______ ____
ROOT
ATOM      3  N   UNL     1      -1.779   1.683  24.767  0.00  0.00    -0.341 N 
ATOM      4  N   UNL     1      -0.284   3.197  25.406  0.00  0.00    -0.238 NA
ATOM     10  C   UNL     1      -0.455   2.007  24.873  0.00  0.00    +0.127 A 
ATOM     13  C   UNL     1      -2.498   2.733  25.263  0.00  0.00    +0.066 A 
ATOM     14  C   UNL     1      -1.555   3.654  25.651  0.00  0.00    +0.139 A 
ATOM     21  H   UNL     1      -2.148   0.817  24.395  0.00  0.00    +0.167 HD
ENDROOT
BRANCH  10   5
ATOM      1  O   UNL     1       2.602   0.929  22.961  0.00  0.00    -0.377 OA
ATOM      2  N   UNL     1       0.110  -0.201  23.806  0.00  0.00    -0.286 NA
ATOM      5  C   UNL     1       0.635   1.051  24.408  0.00  0.00    +0.149 C 
ATOM      7  C   UNL     1       1.220  -1.022  23.290  0.00  0.00    +0.113 C 
ATOM      8  C   UNL     1       1.545   1.782  23.402  0.00  0.00    +0.186 C 
ATOM      9  C   UNL     1       2.074  -0.224  22.312  0.00  0.00    +0.175 C 
BRANCH   2   6
ATOM      6  C   UNL     1      -0.666  -0.993  24.766  0.00  0.00    +0.051 C 
ATOM     11  C   UNL     1      -1.925  -1.522  24.087  0.00  0.00    +0.024 C 
ATOM     12  C   UNL     1       0.181  -2.137  25.317  0.00  0.00    +0.024 C 
ENDBRANCH   2   6
ENDBRANCH  10   5
BRANCH  13  15
ATOM     15  C   UNL     1      -3.937   2.754  25.314  0.00  0.00    -0.000 A 
ATOM     16  C   UNL     1      -4.659   1.580  25.101  0.00  0.00    +0.010 A 
ATOM     17  C   UNL     1      -4.607   3.948  25.576  0.00  0.00    +0.010 A 
ATOM     18  C   UNL     1      -6.053   1.600  25.151  0.00  0.00    +0.001 A 
ATOM     19  C   UNL     1      -6.001   3.970  25.625  0.00  0.00    +0.001 A 
ATOM     20  C   UNL     1      -6.725   2.796  25.413  0.00  0.00    +0.000 A 
ENDBRANCH  13  15
TORSDOF 3
ENDMDL
MODEL 10
REMARK VINA RESULT:      -1.5      1.561      2.146
REMARK  Name = 56775906
REMARK  5 active torsions:
REMARK  status: ('A' for Active; 'I' for Inactive)
REMARK    1  A    between atoms: N_2  and  C_6
REMARK    2  A    between atoms: C_5  and  C_10
REMARK    3  A    between atoms: C_6  and  C_11
REMARK    4  A    between atoms: C_6  and  C_12
REMARK    5  A    between atoms: C_13  and  C_15
REMARK                            x       y       z     vdW  Elec       q    Type
REMARK                         _______ _______ _______ _____ _____    ______ ____
ROOT
ATOM      3  N   UNL     1      -0.292   0.676  23.557  0.00  0.00    -0.341 N 
ATOM      4  N   UNL     1      -1.388  -1.103  24.308  0.00  0.00    -0.238 NA
ATOM     10  C   UNL     1      -1.500   0.147  23.916  0.00  0.00    +0.127 A 
ATOM     13  C   UNL     1       0.650  -0.297  23.730  0.00  0.00    +0.066 A 
ATOM     14  C   UNL     1      -0.050  -1.386  24.194  0.00  0.00    +0.139 A 
ATOM     21  H   UNL     1      -0.133   1.621  23.232  0.00  0.00    +0.167 HD
ENDROOT
BRANCH  10   5
ATOM      1  O   UNL     1      -3.584   3.257  23.543  0.00  0.00    -0.377 OA
ATOM      2  N   UNL     1      -3.652   0.816  25.037  0.00  0.00    -0.286 NA
ATOM      5  C   UNL     1      -2.779   0.969  23.844  0.00  0.00    +0.149 C 
ATOM      7  C   UNL     1      -4.813   1.718  24.937  0.00  0.00    +0.113 C 
ATOM      8  C   UNL     1      -2.410   2.452  23.646  0.00  0.00    +0.186 C 
ATOM      9  C   UNL     1      -4.362   3.158  24.733  0.00  0.00    +0.175 C 
BRANCH   2   6
ATOM      6  C   UNL     1      -4.128  -0.562  25.200  0.00  0.00    +0.051 C 
ATOM     11  C   UNL     1      -4.160  -1.252  23.840  0.00  0.00    +0.024 C 
ATOM     12  C   UNL     1      -3.233  -1.320  26.177  0.00  0.00    +0.024 C 
ENDBRANCH   2   6
ENDBRANCH  10   5
BRANCH  13  15
ATOM     15  C   UNL     1       2.049  -0.106  23.450  0.00  0.00    -0.000 A 
ATOM     16  C   UNL     1       2.956  -1.138  23.691  0.00  0.00    +0.010 A 
ATOM     17  C   UNL     1       2.497   1.112  22.939  0.00  0.00    +0.010 A 
ATOM     18  C   UNL     1       4.311  -0.952  23.419  0.00  0.00    +0.001 A 
ATOM     19  C   UNL     1       3.853   1.298  22.668  0.00  0.00    +0.001 A 
ATOM     20  C   UNL     1       4.760   0.266  22.907  0.00  0.00    +0.000 A 
ENDBRANCH  13  15
TORSDOF 3
ENDMDL
