MODEL 1
REMARK VINA RESULT:       3.7      0.000      0.000
REMARK  Name = 40777764
REMARK  9 active torsions:
REMARK  status: ('A' for Active; 'I' for Inactive)
REMARK    1  A    between atoms: O_5  and  C_21
REMARK    2  A    between atoms: O_5  and  C_28
REMARK    3  A    between atoms: N_6  and  C_11
REMARK    4  A    between atoms: N_7  and  C_19
REMARK    5  A    between atoms: C_9  and  C_12
REMARK    6  A    between atoms: C_15  and  C_17
REMARK    7  A    between atoms: C_16  and  C_18
REMARK    8  A    between atoms: C_20  and  C_21
REMARK    9  A    between atoms: C_26  and  C_27
REMARK                            x       y       z     vdW  Elec       q    Type
REMARK                         _______ _______ _______ _____ _____    ______ ____
ROOT
ATOM      9  C   UNL     1      -2.511   0.567  24.706  0.00  0.00    +0.047 C 
ATOM     10  C   UNL     1      -3.553   0.519  23.569  0.00  0.00    +0.039 C 
ATOM     11  C   UNL     1      -4.920   0.413  24.259  0.00  0.00    +0.097 C 
ATOM     13  C   UNL     1      -3.259  -0.046  25.854  0.00  0.00    -0.021 C 
ATOM     14  C   UNL     1      -4.570  -0.124  25.607  0.00  0.00    -0.009 C 
ENDROOT
BRANCH   9  12
ATOM      7  N   UNL     1       0.880  -0.582  23.930  0.00  0.00    -0.236 N 
ATOM      8  N   UNL     1       0.265  -1.767  23.781  0.00  0.00    -0.171 NA
ATOM     12  C   UNL     1      -1.213  -0.123  24.356  0.00  0.00    +0.003 A 
ATOM     15  C   UNL     1       0.039   0.436  24.275  0.00  0.00    +0.046 A 
ATOM     16  C   UNL     1      -1.014  -1.481  24.042  0.00  0.00    +0.064 A 
ATOM     17  C   UNL     1       0.493   1.824  24.495  0.00  0.00    +0.066 C 
ATOM     18  C   UNL     1      -2.023  -2.552  23.979  0.00  0.00    +0.068 C 
BRANCH   7  19
ATOM     19  C   UNL     1       2.258  -0.487  23.734  0.00  0.00    +0.066 A 
ATOM     22  C   UNL     1       2.804   0.662  23.163  0.00  0.00    +0.028 A 
ATOM     23  C   UNL     1       3.088  -1.544  24.107  0.00  0.00    +0.028 A 
ATOM     24  C   UNL     1       4.182   0.756  22.967  0.00  0.00    +0.014 A 
ATOM     25  C   UNL     1       4.466  -1.451  23.910  0.00  0.00    +0.014 A 
ATOM     26  C   UNL     1       5.014  -0.301  23.340  0.00  0.00    +0.055 A 
BRANCH  26  27
ATOM      1  F   UNL     1       6.897  -0.644  21.906  0.00  0.00    -0.166 F 
ATOM      2  F   UNL     1       7.198  -0.928  24.040  0.00  0.00    -0.166 F 
ATOM      3  F   UNL     1       6.966   1.075  23.226  0.00  0.00    -0.166 F 
ATOM     27  C   UNL     1       6.487  -0.200  23.130  0.00  0.00    +0.417 C 
ENDBRANCH  26  27
ENDBRANCH   7  19
ENDBRANCH   9  12
BRANCH  11   6
ATOM      4  O   UNL     1      -6.117   1.487  26.663  0.00  0.00    -0.272 OA
ATOM      6  N   UNL     1      -5.567   1.688  24.411  0.00  0.00    -0.306 N 
ATOM     20  C   UNL     1      -6.117   2.122  25.612  0.00  0.00    +0.251 C 
ATOM     34  H   UNL     1      -5.659   2.285  23.594  0.00  0.00    +0.149 HD
BRANCH  20  21
ATOM     21  C   UNL     1      -6.732   3.500  25.487  0.00  0.00    +0.324 C 
BRANCH  21   5
ATOM      5  O   UNL     1      -5.821   4.493  25.906  0.00  0.00    -0.483 OA
BRANCH   5  28
ATOM     28  C   UNL     1      -4.498   4.308  25.580  0.00  0.00    +0.121 A 
ATOM     29  C   UNL     1      -3.554   4.103  26.585  0.00  0.00    +0.045 A 
ATOM     30  C   UNL     1      -4.100   4.329  24.243  0.00  0.00    +0.045 A 
ATOM     31  C   UNL     1      -2.211   3.917  26.254  0.00  0.00    +0.004 A 
ATOM     32  C   UNL     1      -2.756   4.144  23.912  0.00  0.00    +0.004 A 
ATOM     33  C   UNL     1      -1.813   3.938  24.918  0.00  0.00    +0.000 A 
ENDBRANCH   5  28
ENDBRANCH  21   5
ENDBRANCH  20  21
ENDBRANCH  11   6
TORSDOF 7
ENDMDL
MODEL 2
REMARK VINA RESULT:       5.7      1.088      2.637
REMARK  Name = 40777764
REMARK  9 active torsions:
REMARK  status: ('A' for Active; 'I' for Inactive)
REMARK    1  A    between atoms: O_5  and  C_21
REMARK    2  A    between atoms: O_5  and  C_28
REMARK    3  A    between atoms: N_6  and  C_11
REMARK    4  A    between atoms: N_7  and  C_19
REMARK    5  A    between atoms: C_9  and  C_12
REMARK    6  A    between atoms: C_15  and  C_17
REMARK    7  A    between atoms: C_16  and  C_18
REMARK    8  A    between atoms: C_20  and  C_21
REMARK    9  A    between atoms: C_26  and  C_27
REMARK                            x       y       z     vdW  Elec       q    Type
REMARK                         _______ _______ _______ _____ _____    ______ ____
ROOT
ATOM      9  C   UNL     1      -2.142   1.191  23.738  0.00  0.00    +0.047 C 
ATOM     10  C   UNL     1      -1.990   2.554  24.444  0.00  0.00    +0.039 C 
ATOM     11  C   UNL     1      -2.906   3.523  23.685  0.00  0.00    +0.097 C 
ATOM     13  C   UNL     1      -2.653   1.586  22.382  0.00  0.00    -0.021 C 
ATOM     14  C   UNL     1      -3.070   2.855  22.360  0.00  0.00    -0.009 C 
ENDROOT
BRANCH   9  12
ATOM      7  N   UNL     1       1.221  -0.259  23.645  0.00  0.00    -0.236 N 
ATOM      8  N   UNL     1       0.545  -1.414  23.774  0.00  0.00    -0.171 NA
ATOM     12  C   UNL     1      -0.867   0.381  23.721  0.00  0.00    +0.003 A 
ATOM     15  C   UNL     1       0.421   0.846  23.609  0.00  0.00    +0.046 A 
ATOM     16  C   UNL     1      -0.730  -1.017  23.820  0.00  0.00    +0.064 A 
ATOM     17  C   UNL     1       0.944   2.221  23.475  0.00  0.00    +0.066 C 
ATOM     18  C   UNL     1      -1.796  -2.022  23.961  0.00  0.00    +0.068 C 
BRANCH   7  19
ATOM     19  C   UNL     1       2.613  -0.277  23.563  0.00  0.00    +0.066 A 
ATOM     22  C   UNL     1       3.323  -1.402  23.983  0.00  0.00    +0.028 A 
ATOM     23  C   UNL     1       3.295   0.832  23.063  0.00  0.00    +0.028 A 
ATOM     24  C   UNL     1       4.715  -1.419  23.902  0.00  0.00    +0.014 A 
ATOM     25  C   UNL     1       4.688   0.815  22.981  0.00  0.00    +0.014 A 
ATOM     26  C   UNL     1       5.398  -0.310  23.401  0.00  0.00    +0.055 A 
BRANCH  26  27
ATOM      1  F   UNL     1       7.361  -0.915  22.175  0.00  0.00    -0.166 F 
ATOM      2  F   UNL     1       7.465  -1.010  24.345  0.00  0.00    -0.166 F 
ATOM      3  F   UNL     1       7.451   0.915  23.335  0.00  0.00    -0.166 F 
ATOM     27  C   UNL     1       6.887  -0.328  23.313  0.00  0.00    +0.417 C 
ENDBRANCH  26  27
ENDBRANCH   7  19
ENDBRANCH   9  12
BRANCH  11   6
ATOM      4  O   UNL     1      -3.454   4.257  26.430  0.00  0.00    -0.272 OA
ATOM      6  N   UNL     1      -4.196   3.669  24.304  0.00  0.00    -0.306 N 
ATOM     20  C   UNL     1      -4.363   4.027  25.637  0.00  0.00    +0.251 C 
ATOM     34  H   UNL     1      -5.024   3.466  23.751  0.00  0.00    +0.149 HD
BRANCH  20  21
ATOM     21  C   UNL     1      -5.825   4.107  26.022  0.00  0.00    +0.324 C 
BRANCH  21   5
ATOM      5  O   UNL     1      -6.292   2.852  26.471  0.00  0.00    -0.483 OA
BRANCH   5  28
ATOM     28  C   UNL     1      -5.802   1.736  25.834  0.00  0.00    +0.121 A 
ATOM     29  C   UNL     1      -4.763   1.004  26.410  0.00  0.00    +0.045 A 
ATOM     30  C   UNL     1      -6.341   1.338  24.610  0.00  0.00    +0.045 A 
ATOM     31  C   UNL     1      -4.265  -0.127  25.763  0.00  0.00    +0.004 A 
ATOM     32  C   UNL     1      -5.842   0.207  23.963  0.00  0.00    +0.004 A 
ATOM     33  C   UNL     1      -4.804  -0.525  24.540  0.00  0.00    +0.000 A 
ENDBRANCH   5  28
ENDBRANCH  21   5
ENDBRANCH  20  21
ENDBRANCH  11   6
TORSDOF 7
ENDMDL
