MODEL 1
REMARK VINA RESULT:      -0.6      0.000      0.000
REMARK  Name = 45361006
REMARK  7 active torsions:
REMARK  status: ('A' for Active; 'I' for Inactive)
REMARK    1  A    between atoms: N_3  and  C_10
REMARK    2  A    between atoms: N_4  and  C_22
REMARK    3  A    between atoms: N_6  and  C_25
REMARK    4  A    between atoms: C_15  and  C_21
REMARK    5  A    between atoms: C_21  and  C_23
REMARK    6  A    between atoms: C_23  and  C_24
REMARK    7  A    between atoms: C_25  and  C_26
REMARK                            x       y       z     vdW  Elec       q    Type
REMARK                         _______ _______ _______ _____ _____    ______ ____
ROOT
ATOM      1  O   UNL     1      -0.274   1.398  26.398  0.00  0.00    -0.274 OA
ATOM      3  N   UNL     1       0.267   0.747  23.834  0.00  0.00    -0.287 NA
ATOM      4  N   UNL     1      -2.574   3.051  23.760  0.00  0.00    -0.296 NA
ATOM      5  N   UNL     1      -0.773   3.585  25.950  0.00  0.00    -0.312 N 
ATOM      8  C   UNL     1      -1.386   2.395  23.170  0.00  0.00    +0.084 C 
ATOM      9  C   UNL     1      -0.151   2.138  24.084  0.00  0.00    +0.161 C 
ATOM     11  C   UNL     1      -1.664   0.989  22.606  0.00  0.00    +0.036 C 
ATOM     12  C   UNL     1      -0.291   0.356  22.545  0.00  0.00    +0.087 C 
ATOM     15  C   UNL     1      -2.338   4.444  24.233  0.00  0.00    +0.074 C 
ATOM     16  C   UNL     1      -0.408   2.305  25.579  0.00  0.00    +0.232 C 
ATOM     19  C   UNL     1      -1.018   4.654  25.001  0.00  0.00    +0.123 C 
ATOM     22  C   UNL     1      -3.710   3.016  22.824  0.00  0.00    +0.105 C 
ATOM     31  H   UNL     1      -0.937   3.769  26.935  0.00  0.00    +0.149 HD
ENDROOT
BRANCH   3  10
ATOM     10  C   UNL     1       1.716   0.559  23.886  0.00  0.00    +0.057 C 
ATOM     13  C   UNL     1       2.071  -0.873  23.469  0.00  0.00    +0.019 C 
ATOM     14  C   UNL     1       2.408   1.585  22.983  0.00  0.00    +0.019 C 
ATOM     17  C   UNL     1       3.584  -1.084  23.438  0.00  0.00    +0.002 C 
ATOM     18  C   UNL     1       3.920   1.372  22.953  0.00  0.00    +0.002 C 
ATOM     20  C   UNL     1       4.278  -0.056  22.549  0.00  0.00    +0.000 C 
ENDBRANCH   3  10
BRANCH  15  21
ATOM     21  C   UNL     1      -3.488   4.905  25.151  0.00  0.00    +0.029 C 
BRANCH  21  23
ATOM     23  C   UNL     1      -3.679   3.933  26.300  0.00  0.00    +0.097 C 
BRANCH  23  24
ATOM      2  O   UNL     1      -5.912   3.044  26.004  0.00  0.00    -0.276 OA
ATOM      6  N   UNL     1      -4.085   1.665  25.610  0.00  0.00    -0.311 N 
ATOM     24  C   UNL     1      -4.697   2.859  25.963  0.00  0.00    +0.213 C 
ATOM     32  H   UNL     1      -3.072   1.599  25.622  0.00  0.00    +0.149 HD
BRANCH   6  25
ATOM     25  C   UNL     1      -4.840   0.489  25.248  0.00  0.00    +0.141 C 
BRANCH  25  26
ATOM      7  N   UNL     1      -1.810  -1.772  25.210  0.00  0.00    -0.263 NA
ATOM     26  C   UNL     1      -3.948  -0.678  24.938  0.00  0.00    -0.012 A 
ATOM     27  C   UNL     1      -4.386  -1.717  24.125  0.00  0.00    +0.008 A 
ATOM     28  C   UNL     1      -2.664  -0.752  25.451  0.00  0.00    +0.115 A 
ATOM     29  C   UNL     1      -3.536  -2.785  23.853  0.00  0.00    +0.020 A 
ATOM     30  C   UNL     1      -2.270  -2.764  24.415  0.00  0.00    +0.111 A 
ENDBRANCH  25  26
ENDBRANCH   6  25
ENDBRANCH  23  24
ENDBRANCH  21  23
ENDBRANCH  15  21
TORSDOF 6
ENDMDL
MODEL 2
REMARK VINA RESULT:       2.5      2.048      4.412
REMARK  Name = 45361006
REMARK  7 active torsions:
REMARK  status: ('A' for Active; 'I' for Inactive)
REMARK    1  A    between atoms: N_3  and  C_10
REMARK    2  A    between atoms: N_4  and  C_22
REMARK    3  A    between atoms: N_6  and  C_25
REMARK    4  A    between atoms: C_15  and  C_21
REMARK    5  A    between atoms: C_21  and  C_23
REMARK    6  A    between atoms: C_23  and  C_24
REMARK    7  A    between atoms: C_25  and  C_26
REMARK                            x       y       z     vdW  Elec       q    Type
REMARK                         _______ _______ _______ _____ _____    ______ ____
ROOT
ATOM      1  O   UNL     1      -0.303  -1.522  22.315  0.00  0.00    -0.274 OA
ATOM      3  N   UNL     1       1.182   0.556  23.193  0.00  0.00    -0.287 NA
ATOM      4  N   UNL     1      -1.689   0.287  25.445  0.00  0.00    -0.296 NA
ATOM      5  N   UNL     1      -0.855  -2.272  24.405  0.00  0.00    -0.312 N 
ATOM      8  C   UNL     1      -0.303   0.681  25.108  0.00  0.00    +0.084 C 
ATOM      9  C   UNL     1       0.548  -0.281  24.228  0.00  0.00    +0.161 C 
ATOM     11  C   UNL     1      -0.203   2.004  24.327  0.00  0.00    +0.036 C 
ATOM     12  C   UNL     1       1.165   1.930  23.682  0.00  0.00    +0.087 C 
ATOM     15  C   UNL     1      -1.795  -0.947  26.274  0.00  0.00    +0.074 C 
ATOM     16  C   UNL     1      -0.239  -1.391  23.536  0.00  0.00    +0.232 C 
ATOM     19  C   UNL     1      -0.867  -2.099  25.844  0.00  0.00    +0.123 C 
ATOM     22  C   UNL     1      -2.407   1.398  26.090  0.00  0.00    +0.105 C 
ATOM     31  H   UNL     1      -1.377  -3.048  24.009  0.00  0.00    +0.149 HD
ENDROOT
BRANCH   3  10
ATOM     10  C   UNL     1       2.529   0.116  22.836  0.00  0.00    +0.057 C 
ATOM     13  C   UNL     1       3.495   1.306  22.879  0.00  0.00    +0.019 C 
ATOM     14  C   UNL     1       2.982  -0.998  23.786  0.00  0.00    +0.019 C 
ATOM     17  C   UNL     1       4.930   0.869  22.585  0.00  0.00    +0.002 C 
ATOM     18  C   UNL     1       4.417  -1.432  23.492  0.00  0.00    +0.002 C 
ATOM     20  C   UNL     1       5.381  -0.249  23.522  0.00  0.00    +0.000 C 
ENDBRANCH   3  10
BRANCH  15  21
ATOM     21  C   UNL     1      -3.240  -1.485  26.260  0.00  0.00    +0.029 C 
BRANCH  21  23
ATOM     23  C   UNL     1      -3.638  -1.917  24.861  0.00  0.00    +0.097 C 
BRANCH  23  24
ATOM      2  O   UNL     1      -3.955  -0.539  22.895  0.00  0.00    -0.276 OA
ATOM      6  N   UNL     1      -5.125  -0.027  24.833  0.00  0.00    -0.311 N 
ATOM     24  C   UNL     1      -4.237  -0.768  24.069  0.00  0.00    +0.213 C 
ATOM     32  H   UNL     1      -5.283  -0.280  25.804  0.00  0.00    +0.149 HD
BRANCH   6  25
ATOM     25  C   UNL     1      -5.824   1.121  24.306  0.00  0.00    +0.141 C 
BRANCH  25  26
ATOM      7  N   UNL     1      -4.775   4.280  26.099  0.00  0.00    -0.263 NA
ATOM     26  C   UNL     1      -5.108   2.405  24.611  0.00  0.00    -0.012 A 
ATOM     27  C   UNL     1      -4.151   2.915  23.740  0.00  0.00    +0.008 A 
ATOM     28  C   UNL     1      -5.381   3.119  25.766  0.00  0.00    +0.115 A 
ATOM     29  C   UNL     1      -3.505   4.108  24.048  0.00  0.00    +0.020 A 
ATOM     30  C   UNL     1      -3.850   4.746  25.228  0.00  0.00    +0.111 A 
ENDBRANCH  25  26
ENDBRANCH   6  25
ENDBRANCH  23  24
ENDBRANCH  21  23
ENDBRANCH  15  21
TORSDOF 6
ENDMDL
MODEL 3
REMARK VINA RESULT:       2.5      1.694      3.969
REMARK  Name = 45361006
REMARK  7 active torsions:
REMARK  status: ('A' for Active; 'I' for Inactive)
REMARK    1  A    between atoms: N_3  and  C_10
REMARK    2  A    between atoms: N_4  and  C_22
REMARK    3  A    between atoms: N_6  and  C_25
REMARK    4  A    between atoms: C_15  and  C_21
REMARK    5  A    between atoms: C_21  and  C_23
REMARK    6  A    between atoms: C_23  and  C_24
REMARK    7  A    between atoms: C_25  and  C_26
REMARK                            x       y       z     vdW  Elec       q    Type
REMARK                         _______ _______ _______ _____ _____    ______ ____
ROOT
ATOM      1  O   UNL     1       0.624  -2.364  25.214  0.00  0.00    -0.274 OA
ATOM      3  N   UNL     1       1.383  -0.658  23.263  0.00  0.00    -0.287 NA
ATOM      4  N   UNL     1      -2.231  -0.255  23.669  0.00  0.00    -0.296 NA
ATOM      5  N   UNL     1      -0.909  -0.942  26.141  0.00  0.00    -0.312 N 
ATOM      8  C   UNL     1      -0.882   0.213  23.280  0.00  0.00    +0.084 C 
ATOM      9  C   UNL     1       0.328  -0.183  24.177  0.00  0.00    +0.161 C 
ATOM     11  C   UNL     1      -0.427  -0.278  21.893  0.00  0.00    +0.036 C 
ATOM     12  C   UNL     1       1.078  -0.124  21.941  0.00  0.00    +0.087 C 
ATOM     15  C   UNL     1      -2.717   0.283  24.972  0.00  0.00    +0.074 C 
ATOM     16  C   UNL     1       0.043  -1.281  25.198  0.00  0.00    +0.232 C 
ATOM     19  C   UNL     1      -1.670   0.292  26.102  0.00  0.00    +0.123 C 
ATOM     22  C   UNL     1      -3.209   0.024  22.605  0.00  0.00    +0.105 C 
ATOM     31  H   UNL     1      -1.130  -1.620  26.864  0.00  0.00    +0.149 HD
ENDROOT
BRANCH   3  10
ATOM     10  C   UNL     1       2.732  -0.304  23.702  0.00  0.00    +0.057 C 
ATOM     13  C   UNL     1       3.617  -1.556  23.727  0.00  0.00    +0.019 C 
ATOM     14  C   UNL     1       3.316   0.768  22.776  0.00  0.00    +0.019 C 
ATOM     17  C   UNL     1       5.056  -1.212  24.108  0.00  0.00    +0.002 C 
ATOM     18  C   UNL     1       4.755   1.109  23.158  0.00  0.00    +0.002 C 
ATOM     20  C   UNL     1       5.638  -0.135  23.196  0.00  0.00    +0.000 C 
ENDBRANCH   3  10
BRANCH  15  21
ATOM     21  C   UNL     1      -3.931  -0.527  25.471  0.00  0.00    +0.029 C 
BRANCH  21  23
ATOM     23  C   UNL     1      -5.228   0.165  25.097  0.00  0.00    +0.097 C 
BRANCH  23  24
ATOM      2  O   UNL     1      -5.607   2.213  26.332  0.00  0.00    -0.276 OA
ATOM      6  N   UNL     1      -4.515   2.314  24.286  0.00  0.00    -0.311 N 
ATOM     24  C   UNL     1      -5.152   1.663  25.332  0.00  0.00    +0.213 C 
ATOM     32  H   UNL     1      -4.186   1.778  23.488  0.00  0.00    +0.149 HD
BRANCH   6  25
ATOM     25  C   UNL     1      -4.319   3.744  24.272  0.00  0.00    +0.141 C 
BRANCH  25  26
ATOM      7  N   UNL     1      -0.546   3.496  24.287  0.00  0.00    -0.263 NA
ATOM     26  C   UNL     1      -2.876   4.116  24.457  0.00  0.00    -0.012 A 
ATOM     27  C   UNL     1      -2.516   5.365  24.950  0.00  0.00    +0.008 A 
ATOM     28  C   UNL     1      -1.863   3.226  24.143  0.00  0.00    +0.115 A 
ATOM     29  C   UNL     1      -1.171   5.681  25.113  0.00  0.00    +0.020 A 
ATOM     30  C   UNL     1      -0.234   4.720  24.770  0.00  0.00    +0.111 A 
ENDBRANCH  25  26
ENDBRANCH   6  25
ENDBRANCH  23  24
ENDBRANCH  21  23
ENDBRANCH  15  21
TORSDOF 6
ENDMDL
