MODEL 1
REMARK VINA RESULT:      -0.8      0.000      0.000
REMARK  Name = 40777102
REMARK  8 active torsions:
REMARK  status: ('A' for Active; 'I' for Inactive)
REMARK    1  A    between atoms: O_3  and  C_22
REMARK    2  A    between atoms: O_3  and  C_29
REMARK    3  A    between atoms: N_5  and  C_15
REMARK    4  A    between atoms: C_9  and  C_16
REMARK    5  A    between atoms: C_10  and  C_15
REMARK    6  A    between atoms: C_18  and  C_21
REMARK    7  A    between atoms: C_19  and  C_22
REMARK    8  A    between atoms: C_20  and  C_23
REMARK                            x       y       z     vdW  Elec       q    Type
REMARK                         _______ _______ _______ _____ _____    ______ ____
ROOT
ATOM      4  N   UNL     1      -1.939  -2.218  23.780  0.00  0.00    -0.297 NA
ATOM      8  C   UNL     1      -3.820  -1.946  25.561  0.00  0.00    +0.002 C 
ATOM      9  C   UNL     1      -3.949  -0.855  24.462  0.00  0.00    +0.055 C 
ATOM     10  C   UNL     1      -1.352  -2.229  25.145  0.00  0.00    +0.074 C 
ATOM     11  C   UNL     1      -2.418  -1.863  26.200  0.00  0.00    +0.024 C 
ATOM     12  C   UNL     1      -3.912  -3.311  24.844  0.00  0.00    +0.019 C 
ATOM     13  C   UNL     1      -2.688  -0.956  23.558  0.00  0.00    +0.094 C 
ATOM     14  C   UNL     1      -2.897  -3.346  23.689  0.00  0.00    +0.085 C 
ENDROOT
BRANCH   9  16
ATOM      6  N   UNL     1      -5.428   0.805  25.482  0.00  0.00    -0.237 NA
ATOM      7  N   UNL     1      -4.800   3.121  25.702  0.00  0.00    -0.232 NA
ATOM     16  C   UNL     1      -4.233   0.576  24.899  0.00  0.00    +0.050 A 
ATOM     17  C   UNL     1      -3.283   1.553  24.686  0.00  0.00    +0.052 A 
ATOM     18  C   UNL     1      -3.624   2.820  25.113  0.00  0.00    +0.076 A 
ATOM     20  C   UNL     1      -5.642   2.082  25.854  0.00  0.00    +0.127 A 
ATOM     23  C   UNL     1      -6.954   2.376  26.500  0.00  0.00    +0.088 C 
BRANCH  18  21
ATOM      1 BR   UNL     1      -0.634   2.299  26.121  0.00  0.00    -0.050 Br
ATOM     21  C   UNL     1      -2.719   3.932  24.947  0.00  0.00    +0.014 A 
ATOM     24  C   UNL     1      -1.381   3.861  25.337  0.00  0.00    +0.027 A 
ATOM     25  C   UNL     1      -3.217   5.102  24.376  0.00  0.00    +0.011 A 
ATOM     26  C   UNL     1      -0.542   4.961  25.156  0.00  0.00    +0.016 A 
ATOM     27  C   UNL     1      -2.378   6.203  24.195  0.00  0.00    +0.001 A 
ATOM     28  C   UNL     1      -1.041   6.131  24.586  0.00  0.00    +0.001 A 
ENDBRANCH  18  21
ENDBRANCH   9  16
BRANCH  10  15
ATOM     15  C   UNL     1      -0.113  -1.337  25.253  0.00  0.00    +0.123 C 
BRANCH  15   5
ATOM      2  O   UNL     1       0.106   0.918  23.455  0.00  0.00    -0.272 OA
ATOM      5  N   UNL     1       0.592  -1.290  24.009  0.00  0.00    -0.311 N 
ATOM     19  C   UNL     1       0.646  -0.155  23.201  0.00  0.00    +0.251 C 
ATOM     35  H   UNL     1       1.073  -2.131  23.704  0.00  0.00    +0.149 HD
BRANCH  19  22
ATOM     22  C   UNL     1       1.460  -0.386  21.946  0.00  0.00    +0.324 C 
BRANCH  22   3
ATOM      3  O   UNL     1       2.599   0.449  21.929  0.00  0.00    -0.483 OA
BRANCH   3  29
ATOM     29  C   UNL     1       3.656   0.085  22.728  0.00  0.00    +0.121 A 
ATOM     30  C   UNL     1       4.646   1.015  23.042  0.00  0.00    +0.045 A 
ATOM     31  C   UNL     1       3.738  -1.217  23.224  0.00  0.00    +0.045 A 
ATOM     32  C   UNL     1       5.719   0.645  23.853  0.00  0.00    +0.004 A 
ATOM     33  C   UNL     1       4.811  -1.587  24.035  0.00  0.00    +0.004 A 
ATOM     34  C   UNL     1       5.801  -0.656  24.349  0.00  0.00    +0.000 A 
ENDBRANCH   3  29
ENDBRANCH  22   3
ENDBRANCH  19  22
ENDBRANCH  15   5
ENDBRANCH  10  15
TORSDOF 7
ENDMDL
MODEL 2
REMARK VINA RESULT:      -0.3      1.408      4.958
REMARK  Name = 40777102
REMARK  8 active torsions:
REMARK  status: ('A' for Active; 'I' for Inactive)
REMARK    1  A    between atoms: O_3  and  C_22
REMARK    2  A    between atoms: O_3  and  C_29
REMARK    3  A    between atoms: N_5  and  C_15
REMARK    4  A    between atoms: C_9  and  C_16
REMARK    5  A    between atoms: C_10  and  C_15
REMARK    6  A    between atoms: C_18  and  C_21
REMARK    7  A    between atoms: C_19  and  C_22
REMARK    8  A    between atoms: C_20  and  C_23
REMARK                            x       y       z     vdW  Elec       q    Type
REMARK                         _______ _______ _______ _____ _____    ______ ____
ROOT
ATOM      4  N   UNL     1      -0.583   4.423  25.522  0.00  0.00    -0.297 NA
ATOM      8  C   UNL     1      -2.468   4.130  23.748  0.00  0.00    +0.002 C 
ATOM      9  C   UNL     1      -3.008   3.822  25.172  0.00  0.00    +0.055 C 
ATOM     10  C   UNL     1      -0.102   3.569  24.405  0.00  0.00    +0.074 C 
ATOM     11  C   UNL     1      -1.262   3.213  23.452  0.00  0.00    +0.024 C 
ATOM     12  C   UNL     1      -1.939   5.580  23.778  0.00  0.00    +0.019 C 
ATOM     13  C   UNL     1      -1.791   3.820  26.140  0.00  0.00    +0.094 C 
ATOM     14  C   UNL     1      -0.962   5.740  24.956  0.00  0.00    +0.085 C 
ENDROOT
BRANCH   9  16
ATOM      6  N   UNL     1      -5.094   2.798  25.939  0.00  0.00    -0.237 NA
ATOM      7  N   UNL     1      -5.524   0.438  25.715  0.00  0.00    -0.232 NA
ATOM     16  C   UNL     1      -3.894   2.596  25.356  0.00  0.00    +0.050 A 
ATOM     17  C   UNL     1      -3.444   1.363  24.932  0.00  0.00    +0.052 A 
ATOM     18  C   UNL     1      -4.311   0.309  25.138  0.00  0.00    +0.076 A 
ATOM     20  C   UNL     1      -5.847   1.691  26.085  0.00  0.00    +0.127 A 
ATOM     23  C   UNL     1      -7.180   1.873  26.728  0.00  0.00    +0.088 C 
BRANCH  18  21
ATOM      1 BR   UNL     1      -1.713  -0.893  26.565  0.00  0.00    -0.050 Br
ATOM     21  C   UNL     1      -3.959  -1.033  24.741  0.00  0.00    +0.014 A 
ATOM     24  C   UNL     1      -2.853  -1.697  25.273  0.00  0.00    +0.027 A 
ATOM     25  C   UNL     1      -4.763  -1.668  23.795  0.00  0.00    +0.011 A 
ATOM     26  C   UNL     1      -2.552  -2.994  24.860  0.00  0.00    +0.016 A 
ATOM     27  C   UNL     1      -4.462  -2.966  23.381  0.00  0.00    +0.001 A 
ATOM     28  C   UNL     1      -3.356  -3.629  23.914  0.00  0.00    +0.001 A 
ENDBRANCH  18  21
ENDBRANCH   9  16
BRANCH  10  15
ATOM     15  C   UNL     1       0.631   2.320  24.902  0.00  0.00    +0.123 C 
BRANCH  15   5
ATOM      2  O   UNL     1      -0.410  -0.216  23.978  0.00  0.00    -0.272 OA
ATOM      5  N   UNL     1       1.110   1.539  23.803  0.00  0.00    -0.311 N 
ATOM     19  C   UNL     1       0.547   0.321  23.425  0.00  0.00    +0.251 C 
ATOM     35  H   UNL     1       1.904   1.893  23.279  0.00  0.00    +0.149 HD
BRANCH  19  22
ATOM     22  C   UNL     1       1.250  -0.289  22.232  0.00  0.00    +0.324 C 
BRANCH  22   3
ATOM      3  O   UNL     1       2.465   0.384  21.972  0.00  0.00    -0.483 OA
BRANCH   3  29
ATOM     29  C   UNL     1       3.553   0.030  22.734  0.00  0.00    +0.121 A 
ATOM     30  C   UNL     1       3.639  -1.252  23.275  0.00  0.00    +0.045 A 
ATOM     31  C   UNL     1       4.571   0.956  22.967  0.00  0.00    +0.045 A 
ATOM     32  C   UNL     1       4.743  -1.610  24.048  0.00  0.00    +0.004 A 
ATOM     33  C   UNL     1       5.675   0.597  23.741  0.00  0.00    +0.004 A 
ATOM     34  C   UNL     1       5.761  -0.685  24.281  0.00  0.00    +0.000 A 
ENDBRANCH   3  29
ENDBRANCH  22   3
ENDBRANCH  19  22
ENDBRANCH  15   5
ENDBRANCH  10  15
TORSDOF 7
ENDMDL
