MODEL 1
REMARK VINA RESULT:      -1.9      0.000      0.000
REMARK  Name = 51137308
REMARK  5 active torsions:
REMARK  status: ('A' for Active; 'I' for Inactive)
REMARK    1  A    between atoms: N_4  and  C_13
REMARK    2  A    between atoms: N_7  and  C_21
REMARK    3  A    between atoms: C_9  and  C_14
REMARK    4  A    between atoms: C_13  and  C_15
REMARK    5  A    between atoms: C_18  and  C_22
REMARK                            x       y       z     vdW  Elec       q    Type
REMARK                         _______ _______ _______ _____ _____    ______ ____
ROOT
ATOM      4  N   UNL     1      -0.660   4.721  24.990  0.00  0.00    -0.297 NA
ATOM      9  C   UNL     1       0.459   2.694  24.617  0.00  0.00    +0.092 C 
ATOM     10  C   UNL     1       0.665   3.626  23.410  0.00  0.00    +0.029 C 
ATOM     11  C   UNL     1      -0.714   3.314  25.389  0.00  0.00    +0.097 C 
ATOM     12  C   UNL     1      -0.410   4.696  23.549  0.00  0.00    +0.085 C 
ENDROOT
BRANCH   9  14
ATOM      1  O   UNL     1      -1.023   0.752  24.459  0.00  0.00    -0.420 OA
ATOM      5  N   UNL     1       1.076   0.354  23.795  0.00  0.00    -0.112 NA
ATOM      6  N   UNL     1       0.354  -0.816  23.655  0.00  0.00    -0.107 NA
ATOM     14  C   UNL     1       0.232   1.242  24.267  0.00  0.00    +0.222 A 
ATOM     18  C   UNL     1      -0.865  -0.538  24.055  0.00  0.00    +0.248 A 
BRANCH  18  22
ATOM      8  N   UNL     1      -4.309  -2.982  24.272  0.00  0.00    -0.263 NA
ATOM     22  C   UNL     1      -2.032  -1.367  24.128  0.00  0.00    +0.041 A 
ATOM     23  C   UNL     1      -1.913  -2.713  24.453  0.00  0.00    +0.033 A 
ATOM     24  C   UNL     1      -3.289  -0.828  23.875  0.00  0.00    +0.033 A 
ATOM     25  C   UNL     1      -3.072  -3.472  24.511  0.00  0.00    +0.111 A 
ATOM     26  C   UNL     1      -4.385  -1.670  23.960  0.00  0.00    +0.111 A 
ENDBRANCH  18  22
ENDBRANCH   9  14
BRANCH   4  13
ATOM     13  C   UNL     1      -1.877   5.442  25.329  0.00  0.00    +0.119 C 
BRANCH  13  15
ATOM     15  C   UNL     1      -3.073   4.530  25.383  0.00  0.00    -0.033 A 
ATOM     16  C   UNL     1      -3.699   4.270  26.602  0.00  0.00    +0.007 A 
ATOM     17  C   UNL     1      -3.557   3.945  24.213  0.00  0.00    +0.007 A 
ATOM     19  C   UNL     1      -4.807   3.424  26.652  0.00  0.00    +0.033 A 
ATOM     20  C   UNL     1      -4.665   3.100  24.262  0.00  0.00    +0.033 A 
ATOM     21  C   UNL     1      -5.290   2.839  25.481  0.00  0.00    +0.126 A 
BRANCH  21   7
ATOM      2  O   UNL     1      -6.880   1.646  26.649  0.00  0.00    -0.126 OA
ATOM      3  O   UNL     1      -6.922   1.573  24.456  0.00  0.00    -0.126 OA
ATOM      7  N   UNL     1      -6.418   1.978  25.531  0.00  0.00    +0.056 N 
ENDBRANCH  21   7
ENDBRANCH  13  15
ENDBRANCH   4  13
TORSDOF 5
ENDMDL
MODEL 2
REMARK VINA RESULT:      -1.8      1.486      5.029
REMARK  Name = 51137308
REMARK  5 active torsions:
REMARK  status: ('A' for Active; 'I' for Inactive)
REMARK    1  A    between atoms: N_4  and  C_13
REMARK    2  A    between atoms: N_7  and  C_21
REMARK    3  A    between atoms: C_9  and  C_14
REMARK    4  A    between atoms: C_13  and  C_15
REMARK    5  A    between atoms: C_18  and  C_22
REMARK                            x       y       z     vdW  Elec       q    Type
REMARK                         _______ _______ _______ _____ _____    ______ ____
ROOT
ATOM      4  N   UNL     1      -2.940   5.062  25.501  0.00  0.00    -0.297 NA
ATOM      9  C   UNL     1      -4.747   3.610  25.148  0.00  0.00    +0.092 C 
ATOM     10  C   UNL     1      -4.698   4.019  26.630  0.00  0.00    +0.029 C 
ATOM     11  C   UNL     1      -3.371   3.998  24.592  0.00  0.00    +0.097 C 
ATOM     12  C   UNL     1      -3.299   4.585  26.837  0.00  0.00    +0.085 C 
ENDROOT
BRANCH   9  14
ATOM      1  O   UNL     1      -4.059   1.282  24.833  0.00  0.00    -0.420 OA
ATOM      5  N   UNL     1      -6.271   1.600  24.734  0.00  0.00    -0.112 NA
ATOM      6  N   UNL     1      -6.024   0.254  24.542  0.00  0.00    -0.107 NA
ATOM     14  C   UNL     1      -5.096   2.160  24.900  0.00  0.00    +0.222 A 
ATOM     18  C   UNL     1      -4.720   0.114  24.607  0.00  0.00    +0.248 A 
BRANCH  18  22
ATOM      8  N   UNL     1      -2.306  -3.338  24.232  0.00  0.00    -0.263 NA
ATOM     22  C   UNL     1      -3.902  -1.057  24.480  0.00  0.00    +0.041 A 
ATOM     23  C   UNL     1      -4.426  -2.217  23.922  0.00  0.00    +0.033 A 
ATOM     24  C   UNL     1      -2.581  -1.036  24.914  0.00  0.00    +0.033 A 
ATOM     25  C   UNL     1      -3.594  -3.321  23.821  0.00  0.00    +0.111 A 
ATOM     26  C   UNL     1      -1.832  -2.192  24.768  0.00  0.00    +0.111 A 
ENDBRANCH  18  22
ENDBRANCH   9  14
BRANCH   4  13
ATOM     13  C   UNL     1      -1.520   5.355  25.381  0.00  0.00    +0.119 C 
BRANCH  13  15
ATOM     15  C   UNL     1      -0.738   4.159  24.908  0.00  0.00    -0.033 A 
ATOM     16  C   UNL     1      -0.174   4.154  23.632  0.00  0.00    +0.007 A 
ATOM     17  C   UNL     1      -0.576   3.056  25.746  0.00  0.00    +0.007 A 
ATOM     19  C   UNL     1       0.550   3.045  23.193  0.00  0.00    +0.033 A 
ATOM     20  C   UNL     1       0.148   1.948  25.308  0.00  0.00    +0.033 A 
ATOM     21  C   UNL     1       0.711   1.942  24.032  0.00  0.00    +0.126 A 
BRANCH  21   7
ATOM      2  O   UNL     1       0.871  -0.299  23.506  0.00  0.00    -0.126 OA
ATOM      3  O   UNL     1       2.656   0.959  23.281  0.00  0.00    -0.126 OA
ATOM      7  N   UNL     1       1.448   0.813  23.585  0.00  0.00    +0.056 N 
ENDBRANCH  21   7
ENDBRANCH  13  15
ENDBRANCH   4  13
TORSDOF 5
ENDMDL
MODEL 3
REMARK VINA RESULT:      -1.1      2.124      5.081
REMARK  Name = 51137308
REMARK  5 active torsions:
REMARK  status: ('A' for Active; 'I' for Inactive)
REMARK    1  A    between atoms: N_4  and  C_13
REMARK    2  A    between atoms: N_7  and  C_21
REMARK    3  A    between atoms: C_9  and  C_14
REMARK    4  A    between atoms: C_13  and  C_15
REMARK    5  A    between atoms: C_18  and  C_22
REMARK                            x       y       z     vdW  Elec       q    Type
REMARK                         _______ _______ _______ _____ _____    ______ ____
ROOT
ATOM      4  N   UNL     1      -5.069   2.905  25.725  0.00  0.00    -0.297 NA
ATOM      9  C   UNL     1      -3.037   4.053  25.502  0.00  0.00    +0.092 C 
ATOM     10  C   UNL     1      -4.044   4.585  24.468  0.00  0.00    +0.029 C 
ATOM     11  C   UNL     1      -3.639   2.727  25.985  0.00  0.00    +0.097 C 
ATOM     12  C   UNL     1      -5.138   3.527  24.402  0.00  0.00    +0.085 C 
ENDROOT
BRANCH   9  14
ATOM      1  O   UNL     1      -1.239   2.664  24.591  0.00  0.00    -0.420 OA
ATOM      5  N   UNL     1      -0.678   4.811  24.874  0.00  0.00    -0.112 NA
ATOM      6  N   UNL     1       0.420   4.147  24.359  0.00  0.00    -0.107 NA
ATOM     14  C   UNL     1      -1.621   3.907  24.993  0.00  0.00    +0.222 A 
ATOM     18  C   UNL     1       0.046   2.897  24.209  0.00  0.00    +0.248 A 
BRANCH  18  22
ATOM      8  N   UNL     1       2.188  -0.447  22.753  0.00  0.00    -0.263 NA
ATOM     22  C   UNL     1       0.772   1.763  23.716  0.00  0.00    +0.041 A 
ATOM     23  C   UNL     1       0.127   0.545  23.539  0.00  0.00    +0.033 A 
ATOM     24  C   UNL     1       2.125   1.878  23.413  0.00  0.00    +0.033 A 
ATOM     25  C   UNL     1       0.873  -0.521  23.059  0.00  0.00    +0.111 A 
ATOM     26  C   UNL     1       2.780   0.754  22.938  0.00  0.00    +0.111 A 
ENDBRANCH  18  22
ENDBRANCH   9  14
BRANCH   4  13
ATOM     13  C   UNL     1      -5.806   1.652  25.787  0.00  0.00    +0.119 C 
BRANCH  13  15
ATOM     15  C   UNL     1      -4.949   0.477  25.399  0.00  0.00    -0.033 A 
ATOM     16  C   UNL     1      -4.244  -0.226  26.377  0.00  0.00    +0.007 A 
ATOM     17  C   UNL     1      -4.859   0.091  24.062  0.00  0.00    +0.007 A 
ATOM     19  C   UNL     1      -3.449  -1.314  26.017  0.00  0.00    +0.033 A 
ATOM     20  C   UNL     1      -4.064  -0.997  23.702  0.00  0.00    +0.033 A 
ATOM     21  C   UNL     1      -3.359  -1.699  24.679  0.00  0.00    +0.126 A 
BRANCH  21   7
ATOM      2  O   UNL     1      -1.312  -2.748  24.509  0.00  0.00    -0.126 OA
ATOM      3  O   UNL     1      -3.095  -3.817  23.805  0.00  0.00    -0.126 OA
ATOM      7  N   UNL     1      -2.550  -2.807  24.313  0.00  0.00    +0.056 N 
ENDBRANCH  21   7
ENDBRANCH  13  15
ENDBRANCH   4  13
TORSDOF 5
ENDMDL
MODEL 4
REMARK VINA RESULT:      -0.7      1.502      5.403
REMARK  Name = 51137308
REMARK  5 active torsions:
REMARK  status: ('A' for Active; 'I' for Inactive)
REMARK    1  A    between atoms: N_4  and  C_13
REMARK    2  A    between atoms: N_7  and  C_21
REMARK    3  A    between atoms: C_9  and  C_14
REMARK    4  A    between atoms: C_13  and  C_15
REMARK    5  A    between atoms: C_18  and  C_22
REMARK                            x       y       z     vdW  Elec       q    Type
REMARK                         _______ _______ _______ _____ _____    ______ ____
ROOT
ATOM      4  N   UNL     1      -1.574  -2.753  24.310  0.00  0.00    -0.297 NA
ATOM      9  C   UNL     1       0.130  -1.224  23.805  0.00  0.00    +0.092 C 
ATOM     10  C   UNL     1       0.529  -2.050  25.040  0.00  0.00    +0.029 C 
ATOM     11  C   UNL     1      -1.377  -1.461  23.650  0.00  0.00    +0.097 C 
ATOM     12  C   UNL     1      -0.768  -2.681  25.529  0.00  0.00    +0.085 C 
ENDROOT
BRANCH   9  14
ATOM      1  O   UNL     1      -0.472   1.091  24.325  0.00  0.00    -0.420 OA
ATOM      5  N   UNL     1       1.618   0.840  23.567  0.00  0.00    -0.112 NA
ATOM      6  N   UNL     1       1.413   2.184  23.818  0.00  0.00    -0.107 NA
ATOM     14  C   UNL     1       0.492   0.242  23.877  0.00  0.00    +0.222 A 
ATOM     18  C   UNL     1       0.180   2.284  24.258  0.00  0.00    +0.248 A 
BRANCH  18  22
ATOM      8  N   UNL     1      -2.034   5.674  25.480  0.00  0.00    -0.263 NA
ATOM     22  C   UNL     1      -0.569   3.434  24.672  0.00  0.00    +0.041 A 
ATOM     23  C   UNL     1      -0.177   4.705  24.271  0.00  0.00    +0.033 A 
ATOM     24  C   UNL     1      -1.694   3.281  25.478  0.00  0.00    +0.033 A 
ATOM     25  C   UNL     1      -0.936   5.784  24.699  0.00  0.00    +0.111 A 
ATOM     26  C   UNL     1      -2.384   4.423  25.850  0.00  0.00    +0.111 A 
ENDBRANCH  18  22
ENDBRANCH   9  14
BRANCH   4  13
ATOM     13  C   UNL     1      -2.975  -3.028  24.588  0.00  0.00    +0.119 C 
BRANCH  13  15
ATOM     15  C   UNL     1      -3.764  -1.764  24.804  0.00  0.00    -0.033 A 
ATOM     16  C   UNL     1      -4.672  -1.334  23.837  0.00  0.00    +0.007 A 
ATOM     17  C   UNL     1      -3.586  -1.023  25.972  0.00  0.00    +0.007 A 
ATOM     19  C   UNL     1      -5.402  -0.162  24.037  0.00  0.00    +0.033 A 
ATOM     20  C   UNL     1      -4.315   0.149  26.172  0.00  0.00    +0.033 A 
ATOM     21  C   UNL     1      -5.223   0.579  25.205  0.00  0.00    +0.126 A 
BRANCH  21   7
ATOM      2  O   UNL     1      -5.628   2.550  26.333  0.00  0.00    -0.126 OA
ATOM      3  O   UNL     1      -6.940   2.017  24.656  0.00  0.00    -0.126 OA
ATOM      7  N   UNL     1      -5.966   1.772  25.408  0.00  0.00    +0.056 N 
ENDBRANCH  21   7
ENDBRANCH  13  15
ENDBRANCH   4  13
TORSDOF 5
ENDMDL
MODEL 5
REMARK VINA RESULT:      -0.6      0.507      1.521
REMARK  Name = 51137308
REMARK  5 active torsions:
REMARK  status: ('A' for Active; 'I' for Inactive)
REMARK    1  A    between atoms: N_4  and  C_13
REMARK    2  A    between atoms: N_7  and  C_21
REMARK    3  A    between atoms: C_9  and  C_14
REMARK    4  A    between atoms: C_13  and  C_15
REMARK    5  A    between atoms: C_18  and  C_22
REMARK                            x       y       z     vdW  Elec       q    Type
REMARK                         _______ _______ _______ _____ _____    ______ ____
ROOT
ATOM      4  N   UNL     1      -0.307   4.298  25.040  0.00  0.00    -0.297 NA
ATOM      9  C   UNL     1       0.606   2.153  24.796  0.00  0.00    +0.092 C 
ATOM     10  C   UNL     1       0.908   2.986  23.539  0.00  0.00    +0.029 C 
ATOM     11  C   UNL     1      -0.501   2.929  25.520  0.00  0.00    +0.097 C 
ATOM     12  C   UNL     1      -0.057   4.163  23.605  0.00  0.00    +0.085 C 
ENDROOT
BRANCH   9  14
ATOM      1  O   UNL     1      -1.088   0.407  24.522  0.00  0.00    -0.420 OA
ATOM      5  N   UNL     1       1.016  -0.321  24.300  0.00  0.00    -0.112 NA
ATOM      6  N   UNL     1       0.169  -1.400  24.123  0.00  0.00    -0.107 NA
ATOM     14  C   UNL     1       0.239   0.711  24.530  0.00  0.00    +0.222 A 
ATOM     18  C   UNL     1      -1.048  -0.928  24.261  0.00  0.00    +0.248 A 
BRANCH  18  22
ATOM      8  N   UNL     1      -4.789  -2.887  24.025  0.00  0.00    -0.263 NA
ATOM     22  C   UNL     1      -2.317  -1.591  24.182  0.00  0.00    +0.041 A 
ATOM     23  C   UNL     1      -3.494  -0.856  24.236  0.00  0.00    +0.033 A 
ATOM     24  C   UNL     1      -2.374  -2.975  24.050  0.00  0.00    +0.033 A 
ATOM     25  C   UNL     1      -4.695  -1.545  24.154  0.00  0.00    +0.111 A 
ATOM     26  C   UNL     1      -3.623  -3.568  23.976  0.00  0.00    +0.111 A 
ENDBRANCH  18  22
ENDBRANCH   9  14
BRANCH   4  13
ATOM     13  C   UNL     1      -1.448   5.155  25.325  0.00  0.00    +0.119 C 
BRANCH  13  15
ATOM     15  C   UNL     1      -2.733   4.374  25.392  0.00  0.00    -0.033 A 
ATOM     16  C   UNL     1      -3.186   3.677  24.272  0.00  0.00    +0.007 A 
ATOM     17  C   UNL     1      -3.471   4.346  26.575  0.00  0.00    +0.007 A 
ATOM     19  C   UNL     1      -4.378   2.954  24.334  0.00  0.00    +0.033 A 
ATOM     20  C   UNL     1      -4.662   3.623  26.638  0.00  0.00    +0.033 A 
ATOM     21  C   UNL     1      -5.115   2.927  25.518  0.00  0.00    +0.126 A 
BRANCH  21   7
ATOM      2  O   UNL     1      -6.845   1.776  24.516  0.00  0.00    -0.126 OA
ATOM      3  O   UNL     1      -6.850   1.975  26.702  0.00  0.00    -0.126 OA
ATOM      7  N   UNL     1      -6.328   2.191  25.581  0.00  0.00    +0.056 N 
ENDBRANCH  21   7
ENDBRANCH  13  15
ENDBRANCH   4  13
TORSDOF 5
ENDMDL
MODEL 6
REMARK VINA RESULT:      -0.3      2.228      5.173
REMARK  Name = 51137308
REMARK  5 active torsions:
REMARK  status: ('A' for Active; 'I' for Inactive)
REMARK    1  A    between atoms: N_4  and  C_13
REMARK    2  A    between atoms: N_7  and  C_21
REMARK    3  A    between atoms: C_9  and  C_14
REMARK    4  A    between atoms: C_13  and  C_15
REMARK    5  A    between atoms: C_18  and  C_22
REMARK                            x       y       z     vdW  Elec       q    Type
REMARK                         _______ _______ _______ _____ _____    ______ ____
ROOT
ATOM      4  N   UNL     1      -5.329   0.311  24.985  0.00  0.00    -0.297 NA
ATOM      9  C   UNL     1      -3.758  -1.399  24.659  0.00  0.00    +0.092 C 
ATOM     10  C   UNL     1      -4.055  -1.253  26.161  0.00  0.00    +0.029 C 
ATOM     11  C   UNL     1      -4.305  -0.111  24.028  0.00  0.00    +0.097 C 
ATOM     12  C   UNL     1      -4.722   0.110  26.301  0.00  0.00    +0.085 C 
ENDROOT
BRANCH   9  14
ATOM      1  O   UNL     1      -1.531  -0.558  24.091  0.00  0.00    -0.420 OA
ATOM      5  N   UNL     1      -1.661  -2.788  24.207  0.00  0.00    -0.112 NA
ATOM      6  N   UNL     1      -0.360  -2.453  23.881  0.00  0.00    -0.107 NA
ATOM     14  C   UNL     1      -2.307  -1.652  24.319  0.00  0.00    +0.222 A 
ATOM     18  C   UNL     1      -0.331  -1.142  23.824  0.00  0.00    +0.248 A 
BRANCH  18  22
ATOM      8  N   UNL     1       2.859   1.496  22.954  0.00  0.00    -0.263 NA
ATOM     22  C   UNL     1       0.752  -0.249  23.529  0.00  0.00    +0.041 A 
ATOM     23  C   UNL     1       1.853  -0.698  22.811  0.00  0.00    +0.033 A 
ATOM     24  C   UNL     1       0.703   1.073  23.960  0.00  0.00    +0.033 A 
ATOM     25  C   UNL     1       2.872   0.205  22.552  0.00  0.00    +0.111 A 
ATOM     26  C   UNL     1       1.772   1.896  23.649  0.00  0.00    +0.111 A 
ENDBRANCH  18  22
ENDBRANCH   9  14
BRANCH   4  13
ATOM     13  C   UNL     1      -5.751   1.688  24.776  0.00  0.00    +0.119 C 
BRANCH  13  15
ATOM     15  C   UNL     1      -4.591   2.645  24.825  0.00  0.00    -0.033 A 
ATOM     16  C   UNL     1      -3.618   2.615  23.825  0.00  0.00    +0.007 A 
ATOM     17  C   UNL     1      -4.488   3.563  25.869  0.00  0.00    +0.007 A 
ATOM     19  C   UNL     1      -2.542   3.502  23.871  0.00  0.00    +0.033 A 
ATOM     20  C   UNL     1      -3.413   4.450  25.916  0.00  0.00    +0.033 A 
ATOM     21  C   UNL     1      -2.440   4.420  24.917  0.00  0.00    +0.126 A 
BRANCH  21   7
ATOM      2  O   UNL     1      -1.568   6.542  25.151  0.00  0.00    -0.126 OA
ATOM      3  O   UNL     1      -0.182   4.874  24.815  0.00  0.00    -0.126 OA
ATOM      7  N   UNL     1      -1.345   5.322  24.963  0.00  0.00    +0.056 N 
ENDBRANCH  21   7
ENDBRANCH  13  15
ENDBRANCH   4  13
TORSDOF 5
ENDMDL
MODEL 7
REMARK VINA RESULT:      -0.3     15.801     18.165
REMARK  Name = 51137308
REMARK  5 active torsions:
REMARK  status: ('A' for Active; 'I' for Inactive)
REMARK    1  A    between atoms: N_4  and  C_13
REMARK    2  A    between atoms: N_7  and  C_21
REMARK    3  A    between atoms: C_9  and  C_14
REMARK    4  A    between atoms: C_13  and  C_15
REMARK    5  A    between atoms: C_18  and  C_22
REMARK                            x       y       z     vdW  Elec       q    Type
REMARK                         _______ _______ _______ _____ _____    ______ ____
ROOT
ATOM      4  N   UNL     1      -5.664 -10.262   9.621  0.00  0.00    -0.297 NA
ATOM      9  C   UNL     1      -4.313 -10.781  11.466  0.00  0.00    +0.092 C 
ATOM     10  C   UNL     1      -5.669 -10.245  11.956  0.00  0.00    +0.029 C 
ATOM     11  C   UNL     1      -4.252 -10.386   9.985  0.00  0.00    +0.097 C 
ATOM     12  C   UNL     1      -6.283  -9.556  10.744  0.00  0.00    +0.085 C 
ENDROOT
BRANCH   9  14
ATOM      1  O   UNL     1      -2.169  -9.605  11.570  0.00  0.00    -0.420 OA
ATOM      5  N   UNL     1      -2.840 -10.451  13.528  0.00  0.00    -0.112 NA
ATOM      6  N   UNL     1      -1.627  -9.820  13.729  0.00  0.00    -0.107 NA
ATOM     14  C   UNL     1      -3.117 -10.300  12.255  0.00  0.00    +0.222 A 
ATOM     18  C   UNL     1      -1.273  -9.341  12.559  0.00  0.00    +0.248 A 
BRANCH  18  22
ATOM      8  N   UNL     1       2.160  -7.149  11.416  0.00  0.00    -0.263 NA
ATOM     22  C   UNL     1      -0.109  -8.597  12.172  0.00  0.00    +0.041 A 
ATOM     23  C   UNL     1       0.268  -7.468  12.889  0.00  0.00    +0.033 A 
ATOM     24  C   UNL     1       0.646  -9.003  11.077  0.00  0.00    +0.033 A 
ATOM     25  C   UNL     1       1.401  -6.785  12.474  0.00  0.00    +0.111 A 
ATOM     26  C   UNL     1       1.761  -8.252  10.744  0.00  0.00    +0.111 A 
ENDBRANCH  18  22
ENDBRANCH   9  14
BRANCH   4  13
ATOM     13  C   UNL     1      -5.855  -9.567   8.357  0.00  0.00    +0.119 C 
BRANCH  13  15
ATOM     15  C   UNL     1      -6.826  -8.424   8.486  0.00  0.00    -0.033 A 
ATOM     16  C   UNL     1      -6.360  -7.109   8.479  0.00  0.00    +0.007 A 
ATOM     17  C   UNL     1      -8.191  -8.680   8.611  0.00  0.00    +0.007 A 
ATOM     19  C   UNL     1      -7.260  -6.050   8.599  0.00  0.00    +0.033 A 
ATOM     20  C   UNL     1      -9.091  -7.621   8.731  0.00  0.00    +0.033 A 
ATOM     21  C   UNL     1      -8.626  -6.307   8.725  0.00  0.00    +0.126 A 
BRANCH  21   7
ATOM      2  O   UNL     1     -10.719  -5.466   9.207  0.00  0.00    -0.126 OA
ATOM      3  O   UNL     1      -9.147  -4.064   8.592  0.00  0.00    -0.126 OA
ATOM      7  N   UNL     1      -9.541  -5.228   8.847  0.00  0.00    +0.056 N 
ENDBRANCH  21   7
ENDBRANCH  13  15
ENDBRANCH   4  13
TORSDOF 5
ENDMDL
MODEL 8
REMARK VINA RESULT:      -0.2      2.984      5.523
REMARK  Name = 51137308
REMARK  5 active torsions:
REMARK  status: ('A' for Active; 'I' for Inactive)
REMARK    1  A    between atoms: N_4  and  C_13
REMARK    2  A    between atoms: N_7  and  C_21
REMARK    3  A    between atoms: C_9  and  C_14
REMARK    4  A    between atoms: C_13  and  C_15
REMARK    5  A    between atoms: C_18  and  C_22
REMARK                            x       y       z     vdW  Elec       q    Type
REMARK                         _______ _______ _______ _____ _____    ______ ____
ROOT
ATOM      4  N   UNL     1      -3.404  -1.592  24.578  0.00  0.00    -0.297 NA
ATOM      9  C   UNL     1      -1.090  -1.522  24.204  0.00  0.00    +0.092 C 
ATOM     10  C   UNL     1      -1.367  -1.518  25.717  0.00  0.00    +0.029 C 
ATOM     11  C   UNL     1      -2.438  -1.170  23.561  0.00  0.00    +0.097 C 
ATOM     12  C   UNL     1      -2.837  -1.139  25.848  0.00  0.00    +0.085 C 
ENDROOT
BRANCH   9  14
ATOM      1  O   UNL     1       1.299  -1.078  23.909  0.00  0.00    -0.420 OA
ATOM      5  N   UNL     1      -0.028   0.594  23.242  0.00  0.00    -0.112 NA
ATOM      6  N   UNL     1       1.283   0.975  23.021  0.00  0.00    -0.107 NA
ATOM     14  C   UNL     1       0.030  -0.610  23.760  0.00  0.00    +0.222 A 
ATOM     18  C   UNL     1       2.022  -0.032  23.426  0.00  0.00    +0.248 A 
BRANCH  18  22
ATOM      8  N   UNL     1       6.225  -0.507  23.452  0.00  0.00    -0.263 NA
ATOM     22  C   UNL     1       3.447  -0.194  23.435  0.00  0.00    +0.041 A 
ATOM     23  C   UNL     1       4.011  -1.386  23.874  0.00  0.00    +0.033 A 
ATOM     24  C   UNL     1       4.270   0.842  23.005  0.00  0.00    +0.033 A 
ATOM     25  C   UNL     1       5.394  -1.492  23.863  0.00  0.00    +0.111 A 
ATOM     26  C   UNL     1       5.639   0.636  23.033  0.00  0.00    +0.111 A 
ENDBRANCH  18  22
ENDBRANCH   9  14
BRANCH   4  13
ATOM     13  C   UNL     1      -4.734  -1.050  24.340  0.00  0.00    +0.119 C 
BRANCH  13  15
ATOM     15  C   UNL     1      -4.814   0.413  24.684  0.00  0.00    -0.033 A 
ATOM     16  C   UNL     1      -3.977   1.327  24.043  0.00  0.00    +0.007 A 
ATOM     17  C   UNL     1      -5.724   0.855  25.643  0.00  0.00    +0.007 A 
ATOM     19  C   UNL     1      -4.051   2.683  24.362  0.00  0.00    +0.033 A 
ATOM     20  C   UNL     1      -5.798   2.210  25.962  0.00  0.00    +0.033 A 
ATOM     21  C   UNL     1      -4.962   3.124  25.322  0.00  0.00    +0.126 A 
BRANCH  21   7
ATOM      2  O   UNL     1      -6.159   5.066  25.668  0.00  0.00    -0.126 OA
ATOM      3  O   UNL     1      -3.977   5.126  25.904  0.00  0.00    -0.126 OA
ATOM      7  N   UNL     1      -5.036   4.505  25.647  0.00  0.00    +0.056 N 
ENDBRANCH  21   7
ENDBRANCH  13  15
ENDBRANCH   4  13
TORSDOF 5
ENDMDL
MODEL 9
REMARK VINA RESULT:      -0.2      1.715      7.223
REMARK  Name = 51137308
REMARK  5 active torsions:
REMARK  status: ('A' for Active; 'I' for Inactive)
REMARK    1  A    between atoms: N_4  and  C_13
REMARK    2  A    between atoms: N_7  and  C_21
REMARK    3  A    between atoms: C_9  and  C_14
REMARK    4  A    between atoms: C_13  and  C_15
REMARK    5  A    between atoms: C_18  and  C_22
REMARK                            x       y       z     vdW  Elec       q    Type
REMARK                         _______ _______ _______ _____ _____    ______ ____
ROOT
ATOM      4  N   UNL     1      -3.711  -2.212  25.068  0.00  0.00    -0.297 NA
ATOM      9  C   UNL     1      -4.881  -0.210  25.413  0.00  0.00    +0.092 C 
ATOM     10  C   UNL     1      -5.352  -0.861  24.102  0.00  0.00    +0.029 C 
ATOM     11  C   UNL     1      -3.568  -0.926  25.753  0.00  0.00    +0.097 C 
ATOM     12  C   UNL     1      -4.274  -1.881  23.758  0.00  0.00    +0.085 C 
ENDROOT
BRANCH   9  14
ATOM      1  O   UNL     1      -3.480   1.783  25.175  0.00  0.00    -0.420 OA
ATOM      5  N   UNL     1      -5.653   2.226  25.468  0.00  0.00    -0.112 NA
ATOM      6  N   UNL     1      -4.984   3.430  25.349  0.00  0.00    -0.107 NA
ATOM     14  C   UNL     1      -4.736   1.294  25.360  0.00  0.00    +0.222 A 
ATOM     18  C   UNL     1      -3.719   3.123  25.180  0.00  0.00    +0.248 A 
BRANCH  18  22
ATOM      8  N   UNL     1      -0.337   5.608  24.658  0.00  0.00    -0.263 NA
ATOM     22  C   UNL     1      -2.573   3.966  25.003  0.00  0.00    +0.041 A 
ATOM     23  C   UNL     1      -2.677   5.338  25.203  0.00  0.00    +0.033 A 
ATOM     24  C   UNL     1      -1.352   3.415  24.630  0.00  0.00    +0.033 A 
ATOM     25  C   UNL     1      -1.540   6.109  25.019  0.00  0.00    +0.111 A 
ATOM     26  C   UNL     1      -0.275   4.271  24.472  0.00  0.00    +0.111 A 
ENDBRANCH  18  22
ENDBRANCH   9  14
BRANCH   4  13
ATOM     13  C   UNL     1      -2.450  -2.930  24.963  0.00  0.00    +0.119 C 
BRANCH  13  15
ATOM     15  C   UNL     1      -1.331  -2.035  24.502  0.00  0.00    -0.033 A 
ATOM     16  C   UNL     1      -0.055  -2.174  25.049  0.00  0.00    +0.007 A 
ATOM     17  C   UNL     1      -1.569  -1.066  23.528  0.00  0.00    +0.007 A 
ATOM     19  C   UNL     1       0.981  -1.343  24.622  0.00  0.00    +0.033 A 
ATOM     20  C   UNL     1      -0.534  -0.236  23.101  0.00  0.00    +0.033 A 
ATOM     21  C   UNL     1       0.742  -0.374  23.648  0.00  0.00    +0.126 A 
BRANCH  21   7
ATOM      2  O   UNL     1       2.604   0.044  22.353  0.00  0.00    -0.126 OA
ATOM      3  O   UNL     1       1.894   1.622  23.703  0.00  0.00    -0.126 OA
ATOM      7  N   UNL     1       1.797   0.471  23.214  0.00  0.00    +0.056 N 
ENDBRANCH  21   7
ENDBRANCH  13  15
ENDBRANCH   4  13
TORSDOF 5
ENDMDL
MODEL 10
REMARK VINA RESULT:      -0.0      3.150      5.672
REMARK  Name = 51137308
REMARK  5 active torsions:
REMARK  status: ('A' for Active; 'I' for Inactive)
REMARK    1  A    between atoms: N_4  and  C_13
REMARK    2  A    between atoms: N_7  and  C_21
REMARK    3  A    between atoms: C_9  and  C_14
REMARK    4  A    between atoms: C_13  and  C_15
REMARK    5  A    between atoms: C_18  and  C_22
REMARK                            x       y       z     vdW  Elec       q    Type
REMARK                         _______ _______ _______ _____ _____    ______ ____
ROOT
ATOM      4  N   UNL     1      -3.051  -0.720  25.016  0.00  0.00    -0.297 NA
ATOM      9  C   UNL     1      -1.196  -1.458  23.787  0.00  0.00    +0.092 C 
ATOM     10  C   UNL     1      -0.974  -1.753  25.280  0.00  0.00    +0.029 C 
ATOM     11  C   UNL     1      -2.353  -0.451  23.757  0.00  0.00    +0.097 C 
ATOM     12  C   UNL     1      -1.989  -0.882  26.009  0.00  0.00    +0.085 C 
ENDROOT
BRANCH   9  14
ATOM      1  O   UNL     1       1.201  -0.962  23.736  0.00  0.00    -0.420 OA
ATOM      5  N   UNL     1       0.143  -0.544  21.811  0.00  0.00    -0.112 NA
ATOM      6  N   UNL     1       1.477  -0.222  21.644  0.00  0.00    -0.107 NA
ATOM     14  C   UNL     1       0.028  -0.971  23.046  0.00  0.00    +0.222 A 
ATOM     18  C   UNL     1       2.056  -0.482  22.793  0.00  0.00    +0.248 A 
BRANCH  18  22
ATOM      8  N   UNL     1       6.092  -0.061  23.985  0.00  0.00    -0.263 NA
ATOM     22  C   UNL     1       3.424  -0.340  23.198  0.00  0.00    +0.041 A 
ATOM     23  C   UNL     1       4.087  -1.401  23.803  0.00  0.00    +0.033 A 
ATOM     24  C   UNL     1       4.093   0.861  22.986  0.00  0.00    +0.033 A 
ATOM     25  C   UNL     1       5.409  -1.212  24.175  0.00  0.00    +0.111 A 
ATOM     26  C   UNL     1       5.414   0.948  23.394  0.00  0.00    +0.111 A 
ENDBRANCH  18  22
ENDBRANCH   9  14
BRANCH   4  13
ATOM     13  C   UNL     1      -3.985   0.338  25.371  0.00  0.00    +0.119 C 
BRANCH  13  15
ATOM     15  C   UNL     1      -3.348   1.700  25.287  0.00  0.00    -0.033 A 
ATOM     16  C   UNL     1      -4.140   2.829  25.076  0.00  0.00    +0.007 A 
ATOM     17  C   UNL     1      -1.966   1.833  25.421  0.00  0.00    +0.007 A 
ATOM     19  C   UNL     1      -3.550   4.091  24.998  0.00  0.00    +0.033 A 
ATOM     20  C   UNL     1      -1.376   3.094  25.342  0.00  0.00    +0.033 A 
ATOM     21  C   UNL     1      -2.168   4.223  25.131  0.00  0.00    +0.126 A 
BRANCH  21   7
ATOM      2  O   UNL     1      -0.349   5.594  24.766  0.00  0.00    -0.126 OA
ATOM      3  O   UNL     1      -2.273   6.522  25.267  0.00  0.00    -0.126 OA
ATOM      7  N   UNL     1      -1.568   5.507  25.051  0.00  0.00    +0.056 N 
ENDBRANCH  21   7
ENDBRANCH  13  15
ENDBRANCH   4  13
TORSDOF 5
ENDMDL
