MODEL 1
REMARK VINA RESULT:       7.1      0.000      0.000
REMARK  Name = 25389737
REMARK  9 active torsions:
REMARK  status: ('A' for Active; 'I' for Inactive)
REMARK    1  A    between atoms: O_2  and  C_21
REMARK    2  A    between atoms: O_2  and  C_33
REMARK    3  A    between atoms: N_6  and  C_12
REMARK    4  A    between atoms: N_6  and  C_22
REMARK    5  A    between atoms: N_8  and  C_27
REMARK    6  A    between atoms: C_10  and  C_18
REMARK    7  A    between atoms: C_14  and  C_21
REMARK    8  A    between atoms: C_22  and  C_27
REMARK    9  A    between atoms: C_34  and  C_35
REMARK                            x       y       z     vdW  Elec       q    Type
REMARK                         _______ _______ _______ _____ _____    ______ ____
ROOT
ATOM      5  N   UNL     1      -1.132   0.271  23.806  0.00  0.00    -0.274 NA
ATOM      7  N   UNL     1       2.343   1.581  23.243  0.00  0.00    -0.356 N 
ATOM      9  C   UNL     1      -0.164   1.409  23.739  0.00  0.00    +0.106 C 
ATOM     10  C   UNL     1      -2.532   0.739  23.965  0.00  0.00    +0.093 C 
ATOM     11  C   UNL     1      -0.517   2.353  22.577  0.00  0.00    +0.044 C 
ATOM     12  C   UNL     1      -1.944   2.895  22.689  0.00  0.00    +0.057 C 
ATOM     13  C   UNL     1      -2.917   1.726  22.832  0.00  0.00    +0.042 C 
ATOM     14  C   UNL     1      -0.715  -0.789  24.764  0.00  0.00    +0.172 C 
ATOM     15  C   UNL     1       1.232   0.874  23.610  0.00  0.00    +0.038 A 
ATOM     16  C   UNL     1       0.645  -1.430  24.385  0.00  0.00    +0.068 C 
ATOM     17  C   UNL     1       1.623  -0.411  23.918  0.00  0.00    -0.016 A 
ATOM     19  C   UNL     1       3.024  -0.503  23.696  0.00  0.00    +0.003 A 
ATOM     20  C   UNL     1       3.450   0.759  23.272  0.00  0.00    +0.047 A 
ATOM     25  C   UNL     1       3.978  -1.534  23.817  0.00  0.00    +0.010 A 
ATOM     26  C   UNL     1       4.786   1.040  22.963  0.00  0.00    +0.026 A 
ATOM     28  C   UNL     1       5.316  -1.267  23.509  0.00  0.00    +0.001 A 
ATOM     31  C   UNL     1       5.712   0.001  23.089  0.00  0.00    +0.002 A 
ATOM     37  H   UNL     1       2.358   2.558  22.985  0.00  0.00    +0.166 HD
ENDROOT
BRANCH  10  18
ATOM      1  F   UNL     1      -5.331   1.190  24.197  0.00  0.00    -0.205 F 
ATOM     18  C   UNL     1      -3.568  -0.383  23.968  0.00  0.00    +0.005 A 
ATOM     23  C   UNL     1      -4.924  -0.083  24.085  0.00  0.00    +0.128 A 
ATOM     24  C   UNL     1      -3.155  -1.710  23.851  0.00  0.00    +0.008 A 
ATOM     29  C   UNL     1      -5.868  -1.109  24.088  0.00  0.00    +0.038 A 
ATOM     30  C   UNL     1      -4.098  -2.737  23.854  0.00  0.00    +0.000 A 
ATOM     32  C   UNL     1      -5.456  -2.437  23.972  0.00  0.00    +0.003 A 
ENDBRANCH  10  18
BRANCH  14  21
ATOM      3  O   UNL     1      -0.422  -0.924  27.153  0.00  0.00    -0.249 OA
ATOM     21  C   UNL     1      -0.682  -0.249  26.166  0.00  0.00    +0.325 C 
BRANCH  21   2
ATOM      2  O   UNL     1      -0.982   1.080  26.150  0.00  0.00    -0.467 OA
ATOM     33  C   UNL     1      -0.037   1.932  26.807  0.00  0.00    +0.280 C 
ENDBRANCH  21   2
ENDBRANCH  14  21
BRANCH  12   6
ATOM      6  N   UNL     1      -2.065   3.807  23.828  0.00  0.00    -0.312 NA
ATOM     36  H   UNL     1      -1.718   4.730  23.566  0.00  0.00    +0.122 HD
BRANCH   6  22
ATOM     22  C   UNL     1      -3.452   3.929  24.244  0.00  0.00    +0.100 C 
BRANCH  22  27
ATOM     27  C   UNL     1      -3.549   3.963  25.763  0.00  0.00    +0.119 C 
BRANCH  27   8
ATOM      4  O   UNL     1      -6.450   4.026  25.765  0.00  0.00    -0.276 OA
ATOM      8  N   UNL     1      -4.444   2.949  26.250  0.00  0.00    -0.314 N 
ATOM     34  C   UNL     1      -5.827   3.066  26.209  0.00  0.00    +0.210 C 
ATOM     35  C   UNL     1      -6.524   1.852  26.761  0.00  0.00    +0.109 C 
ATOM     38  H   UNL     1      -4.032   2.107  26.644  0.00  0.00    +0.149 HD
ENDBRANCH  27   8
ENDBRANCH  22  27
ENDBRANCH   6  22
ENDBRANCH  12   6
TORSDOF 7
ENDMDL
MODEL 2
REMARK VINA RESULT:       7.7      1.277      1.935
REMARK  Name = 25389737
REMARK  9 active torsions:
REMARK  status: ('A' for Active; 'I' for Inactive)
REMARK    1  A    between atoms: O_2  and  C_21
REMARK    2  A    between atoms: O_2  and  C_33
REMARK    3  A    between atoms: N_6  and  C_12
REMARK    4  A    between atoms: N_6  and  C_22
REMARK    5  A    between atoms: N_8  and  C_27
REMARK    6  A    between atoms: C_10  and  C_18
REMARK    7  A    between atoms: C_14  and  C_21
REMARK    8  A    between atoms: C_22  and  C_27
REMARK    9  A    between atoms: C_34  and  C_35
REMARK                            x       y       z     vdW  Elec       q    Type
REMARK                         _______ _______ _______ _____ _____    ______ ____
ROOT
ATOM      5  N   UNL     1      -1.357   0.033  23.646  0.00  0.00    -0.274 NA
ATOM      7  N   UNL     1       2.046   1.524  23.093  0.00  0.00    -0.356 N 
ATOM      9  C   UNL     1      -0.458   1.224  23.542  0.00  0.00    +0.106 C 
ATOM     10  C   UNL     1      -2.786   0.421  23.750  0.00  0.00    +0.093 C 
ATOM     11  C   UNL     1      -0.838   2.084  22.324  0.00  0.00    +0.044 C 
ATOM     12  C   UNL     1      -2.297   2.541  22.376  0.00  0.00    +0.057 C 
ATOM     13  C   UNL     1      -3.201   1.323  22.558  0.00  0.00    +0.042 C 
ATOM     14  C   UNL     1      -0.901  -0.949  24.668  0.00  0.00    +0.172 C 
ATOM     15  C   UNL     1       0.970   0.770  23.472  0.00  0.00    +0.038 A 
ATOM     16  C   UNL     1       0.504  -1.524  24.353  0.00  0.00    +0.068 C 
ATOM     17  C   UNL     1       1.431  -0.471  23.856  0.00  0.00    -0.016 A 
ATOM     19  C   UNL     1       2.839  -0.488  23.669  0.00  0.00    +0.003 A 
ATOM     20  C   UNL     1       3.199   0.775  23.189  0.00  0.00    +0.047 A 
ATOM     25  C   UNL     1       3.851  -1.451  23.865  0.00  0.00    +0.010 A 
ATOM     26  C   UNL     1       4.523   1.121  22.895  0.00  0.00    +0.026 A 
ATOM     28  C   UNL     1       5.177  -1.118  23.574  0.00  0.00    +0.001 A 
ATOM     31  C   UNL     1       5.507   0.149  23.096  0.00  0.00    +0.002 A 
ATOM     37  H   UNL     1       2.008   2.486  22.784  0.00  0.00    +0.166 HD
ENDROOT
BRANCH  10  18
ATOM      1  F   UNL     1      -5.536   0.666  24.433  0.00  0.00    -0.205 F 
ATOM     18  C   UNL     1      -3.752  -0.761  23.789  0.00  0.00    +0.005 A 
ATOM     23  C   UNL     1      -5.088  -0.562  24.133  0.00  0.00    +0.128 A 
ATOM     24  C   UNL     1      -3.295  -2.042  23.478  0.00  0.00    +0.008 A 
ATOM     29  C   UNL     1      -5.968  -1.643  24.169  0.00  0.00    +0.038 A 
ATOM     30  C   UNL     1      -4.175  -3.123  23.513  0.00  0.00    +0.000 A 
ATOM     32  C   UNL     1      -5.512  -2.925  23.858  0.00  0.00    +0.003 A 
ENDBRANCH  10  18
BRANCH  14  21
ATOM      3  O   UNL     1      -0.542   0.792  26.296  0.00  0.00    -0.249 OA
ATOM     21  C   UNL     1      -0.936  -0.338  26.040  0.00  0.00    +0.325 C 
BRANCH  21   2
ATOM      2  O   UNL     1      -1.465  -1.230  26.923  0.00  0.00    -0.467 OA
ATOM     33  C   UNL     1      -2.870  -1.469  26.790  0.00  0.00    +0.280 C 
ENDBRANCH  21   2
ENDBRANCH  14  21
BRANCH  12   6
ATOM      6  N   UNL     1      -2.502   3.501  23.462  0.00  0.00    -0.312 NA
ATOM     36  H   UNL     1      -2.414   4.451  23.101  0.00  0.00    +0.122 HD
BRANCH   6  22
ATOM     22  C   UNL     1      -3.823   3.342  24.047  0.00  0.00    +0.100 C 
BRANCH  22  27
ATOM     27  C   UNL     1      -3.748   3.448  25.563  0.00  0.00    +0.119 C 
BRANCH  27   8
ATOM      4  O   UNL     1      -1.328   5.039  25.376  0.00  0.00    -0.276 OA
ATOM      8  N   UNL     1      -2.438   3.104  26.045  0.00  0.00    -0.314 N 
ATOM     34  C   UNL     1      -1.332   3.934  25.911  0.00  0.00    +0.210 C 
ATOM     35  C   UNL     1      -0.091   3.342  26.524  0.00  0.00    +0.109 C 
ATOM     38  H   UNL     1      -2.326   2.204  26.504  0.00  0.00    +0.149 HD
ENDBRANCH  27   8
ENDBRANCH  22  27
ENDBRANCH   6  22
ENDBRANCH  12   6
TORSDOF 7
ENDMDL
MODEL 3
REMARK VINA RESULT:       7.9      2.131      4.138
REMARK  Name = 25389737
REMARK  9 active torsions:
REMARK  status: ('A' for Active; 'I' for Inactive)
REMARK    1  A    between atoms: O_2  and  C_21
REMARK    2  A    between atoms: O_2  and  C_33
REMARK    3  A    between atoms: N_6  and  C_12
REMARK    4  A    between atoms: N_6  and  C_22
REMARK    5  A    between atoms: N_8  and  C_27
REMARK    6  A    between atoms: C_10  and  C_18
REMARK    7  A    between atoms: C_14  and  C_21
REMARK    8  A    between atoms: C_22  and  C_27
REMARK    9  A    between atoms: C_34  and  C_35
REMARK                            x       y       z     vdW  Elec       q    Type
REMARK                         _______ _______ _______ _____ _____    ______ ____
ROOT
ATOM      5  N   UNL     1      -0.612   0.905  24.513  0.00  0.00    -0.274 NA
ATOM      7  N   UNL     1       2.207  -1.522  23.997  0.00  0.00    -0.356 N 
ATOM      9  C   UNL     1      -0.120  -0.482  24.250  0.00  0.00    +0.106 C 
ATOM     10  C   UNL     1      -2.078   0.942  24.744  0.00  0.00    +0.093 C 
ATOM     11  C   UNL     1      -0.472  -1.413  25.423  0.00  0.00    +0.044 C 
ATOM     12  C   UNL     1      -1.976  -1.443  25.703  0.00  0.00    +0.057 C 
ATOM     13  C   UNL     1      -2.481  -0.014  25.896  0.00  0.00    +0.042 C 
ATOM     14  C   UNL     1      -0.111   1.896  23.521  0.00  0.00    +0.172 C 
ATOM     15  C   UNL     1       1.358  -0.450  23.995  0.00  0.00    +0.038 A 
ATOM     16  C   UNL     1       1.436   2.004  23.520  0.00  0.00    +0.068 C 
ATOM     17  C   UNL     1       2.081   0.668  23.642  0.00  0.00    -0.016 A 
ATOM     19  C   UNL     1       3.433   0.271  23.456  0.00  0.00    +0.003 A 
ATOM     20  C   UNL     1       3.484  -1.107  23.685  0.00  0.00    +0.047 A 
ATOM     25  C   UNL     1       4.622   0.945  23.110  0.00  0.00    +0.010 A 
ATOM     26  C   UNL     1       4.669  -1.845  23.585  0.00  0.00    +0.026 A 
ATOM     28  C   UNL     1       5.813   0.219  23.008  0.00  0.00    +0.001 A 
ATOM     31  C   UNL     1       5.835  -1.155  23.243  0.00  0.00    +0.002 A 
ATOM     37  H   UNL     1       1.945  -2.478  24.197  0.00  0.00    +0.166 HD
ENDROOT
BRANCH  10  18
ATOM      1  F   UNL     1      -0.919   2.637  26.712  0.00  0.00    -0.205 F 
ATOM     18  C   UNL     1      -2.621   2.328  25.086  0.00  0.00    +0.005 A 
ATOM     23  C   UNL     1      -1.998   3.101  26.065  0.00  0.00    +0.128 A 
ATOM     24  C   UNL     1      -3.742   2.820  24.418  0.00  0.00    +0.008 A 
ATOM     29  C   UNL     1      -2.495   4.366  26.376  0.00  0.00    +0.038 A 
ATOM     30  C   UNL     1      -4.239   4.085  24.729  0.00  0.00    +0.000 A 
ATOM     32  C   UNL     1      -3.617   4.859  25.708  0.00  0.00    +0.003 A 
ENDBRANCH  10  18
BRANCH  14  21
ATOM      3  O   UNL     1      -0.275   0.602  21.493  0.00  0.00    -0.249 OA
ATOM     21  C   UNL     1      -0.627   1.575  22.148  0.00  0.00    +0.325 C 
BRANCH  21   2
ATOM      2  O   UNL     1      -1.528   2.523  21.766  0.00  0.00    -0.467 OA
ATOM     33  C   UNL     1      -2.803   2.027  21.345  0.00  0.00    +0.280 C 
ENDBRANCH  21   2
ENDBRANCH  14  21
BRANCH  12   6
ATOM      6  N   UNL     1      -2.694  -2.100  24.609  0.00  0.00    -0.312 NA
ATOM     36  H   UNL     1      -2.383  -3.068  24.527  0.00  0.00    +0.122 HD
BRANCH   6  22
ATOM     22  C   UNL     1      -4.127  -2.087  24.855  0.00  0.00    +0.100 C 
BRANCH  22  27
ATOM     27  C   UNL     1      -4.739  -0.788  24.349  0.00  0.00    +0.119 C 
BRANCH  27   8
ATOM      4  O   UNL     1      -6.690   1.360  24.286  0.00  0.00    -0.276 OA
ATOM      8  N   UNL     1      -5.144   0.056  25.440  0.00  0.00    -0.314 N 
ATOM     34  C   UNL     1      -6.091   1.064  25.316  0.00  0.00    +0.210 C 
ATOM     35  C   UNL     1      -6.345   1.778  26.618  0.00  0.00    +0.109 C 
ATOM     38  H   UNL     1      -4.707  -0.101  26.345  0.00  0.00    +0.149 HD
ENDBRANCH  27   8
ENDBRANCH  22  27
ENDBRANCH   6  22
ENDBRANCH  12   6
TORSDOF 7
ENDMDL
MODEL 4
REMARK VINA RESULT:       8.0      2.409      6.988
REMARK  Name = 25389737
REMARK  9 active torsions:
REMARK  status: ('A' for Active; 'I' for Inactive)
REMARK    1  A    between atoms: O_2  and  C_21
REMARK    2  A    between atoms: O_2  and  C_33
REMARK    3  A    between atoms: N_6  and  C_12
REMARK    4  A    between atoms: N_6  and  C_22
REMARK    5  A    between atoms: N_8  and  C_27
REMARK    6  A    between atoms: C_10  and  C_18
REMARK    7  A    between atoms: C_14  and  C_21
REMARK    8  A    between atoms: C_22  and  C_27
REMARK    9  A    between atoms: C_34  and  C_35
REMARK                            x       y       z     vdW  Elec       q    Type
REMARK                         _______ _______ _______ _____ _____    ______ ____
ROOT
ATOM      5  N   UNL     1      -0.389   0.978  24.195  0.00  0.00    -0.274 NA
ATOM      7  N   UNL     1      -4.049   1.381  24.935  0.00  0.00    -0.356 N 
ATOM      9  C   UNL     1      -1.695   0.413  24.656  0.00  0.00    +0.106 C 
ATOM     10  C   UNL     1       0.653  -0.070  24.052  0.00  0.00    +0.093 C 
ATOM     11  C   UNL     1      -2.192  -0.666  23.679  0.00  0.00    +0.044 C 
ATOM     12  C   UNL     1      -1.175  -1.795  23.501  0.00  0.00    +0.057 C 
ATOM     13  C   UNL     1       0.175  -1.199  23.103  0.00  0.00    +0.042 C 
ATOM     14  C   UNL     1       0.031   2.175  24.974  0.00  0.00    +0.172 C 
ATOM     15  C   UNL     1      -2.695   1.520  24.810  0.00  0.00    +0.038 A 
ATOM     16  C   UNL     1      -0.983   3.343  24.861  0.00  0.00    +0.068 C 
ATOM     17  C   UNL     1      -2.389   2.859  24.925  0.00  0.00    -0.016 A 
ATOM     19  C   UNL     1      -3.608   3.570  25.091  0.00  0.00    +0.003 A 
ATOM     20  C   UNL     1      -4.634   2.620  25.093  0.00  0.00    +0.047 A 
ATOM     25  C   UNL     1      -3.945   4.931  25.246  0.00  0.00    +0.010 A 
ATOM     26  C   UNL     1      -5.982   2.966  25.242  0.00  0.00    +0.026 A 
ATOM     28  C   UNL     1      -5.289   5.289  25.394  0.00  0.00    +0.001 A 
ATOM     31  C   UNL     1      -6.290   4.320  25.392  0.00  0.00    +0.002 A 
ATOM     37  H   UNL     1      -4.554   0.506  24.914  0.00  0.00    +0.166 HD
ENDROOT
BRANCH  10  18
ATOM      1  F   UNL     1       3.001  -1.667  23.891  0.00  0.00    -0.205 F 
ATOM     18  C   UNL     1       1.986   0.446  23.517  0.00  0.00    +0.005 A 
ATOM     23  C   UNL     1       3.095  -0.398  23.469  0.00  0.00    +0.128 A 
ATOM     24  C   UNL     1       2.094   1.764  23.074  0.00  0.00    +0.008 A 
ATOM     29  C   UNL     1       4.312   0.075  22.980  0.00  0.00    +0.038 A 
ATOM     30  C   UNL     1       3.311   2.238  22.585  0.00  0.00    +0.000 A 
ATOM     32  C   UNL     1       4.421   1.394  22.537  0.00  0.00    +0.003 A 
ENDBRANCH  10  18
BRANCH  14  21
ATOM      3  O   UNL     1      -0.262   0.866  26.977  0.00  0.00    -0.249 OA
ATOM     21  C   UNL     1       0.272   1.811  26.411  0.00  0.00    +0.325 C 
BRANCH  21   2
ATOM      2  O   UNL     1       1.161   2.686  26.960  0.00  0.00    -0.467 OA
ATOM     33  C   UNL     1       1.304   2.607  28.383  0.00  0.00    +0.280 C 
ENDBRANCH  21   2
ENDBRANCH  14  21
BRANCH  12   6
ATOM      6  N   UNL     1      -1.048  -2.579  24.732  0.00  0.00    -0.312 NA
ATOM     36  H   UNL     1      -0.067  -2.631  25.005  0.00  0.00    +0.122 HD
BRANCH   6  22
ATOM     22  C   UNL     1      -1.805  -1.966  25.811  0.00  0.00    +0.100 C 
BRANCH  22  27
ATOM     27  C   UNL     1      -3.104  -2.724  26.045  0.00  0.00    +0.119 C 
BRANCH  27   8
ATOM      4  O   UNL     1      -4.832  -1.321  24.183  0.00  0.00    -0.276 OA
ATOM      8  N   UNL     1      -3.644  -3.223  24.810  0.00  0.00    -0.314 N 
ATOM     34  C   UNL     1      -4.467  -2.475  23.978  0.00  0.00    +0.210 C 
ATOM     35  C   UNL     1      -4.871  -3.230  22.739  0.00  0.00    +0.109 C 
ATOM     38  H   UNL     1      -3.407  -4.175  24.542  0.00  0.00    +0.149 HD
ENDBRANCH  27   8
ENDBRANCH  22  27
ENDBRANCH   6  22
ENDBRANCH  12   6
TORSDOF 7
ENDMDL
MODEL 5
REMARK VINA RESULT:       8.2      2.414      5.947
REMARK  Name = 25389737
REMARK  9 active torsions:
REMARK  status: ('A' for Active; 'I' for Inactive)
REMARK    1  A    between atoms: O_2  and  C_21
REMARK    2  A    between atoms: O_2  and  C_33
REMARK    3  A    between atoms: N_6  and  C_12
REMARK    4  A    between atoms: N_6  and  C_22
REMARK    5  A    between atoms: N_8  and  C_27
REMARK    6  A    between atoms: C_10  and  C_18
REMARK    7  A    between atoms: C_14  and  C_21
REMARK    8  A    between atoms: C_22  and  C_27
REMARK    9  A    between atoms: C_34  and  C_35
REMARK                            x       y       z     vdW  Elec       q    Type
REMARK                         _______ _______ _______ _____ _____    ______ ____
ROOT
ATOM      5  N   UNL     1      -0.956   1.599  26.163  0.00  0.00    -0.274 NA
ATOM      7  N   UNL     1      -3.809   0.126  24.214  0.00  0.00    -0.356 N 
ATOM      9  C   UNL     1      -2.084   1.747  25.192  0.00  0.00    +0.106 C 
ATOM     10  C   UNL     1      -0.362   2.909  26.531  0.00  0.00    +0.093 C 
ATOM     11  C   UNL     1      -3.182   2.655  25.773  0.00  0.00    +0.044 C 
ATOM     12  C   UNL     1      -2.644   4.036  26.155  0.00  0.00    +0.057 C 
ATOM     13  C   UNL     1      -1.444   3.870  27.087  0.00  0.00    +0.042 C 
ATOM     14  C   UNL     1       0.028   0.560  25.752  0.00  0.00    +0.172 C 
ATOM     15  C   UNL     1      -2.621   0.393  24.836  0.00  0.00    +0.038 A 
ATOM     16  C   UNL     1      -0.607  -0.850  25.645  0.00  0.00    +0.068 C 
ATOM     17  C   UNL     1      -1.955  -0.800  25.016  0.00  0.00    -0.016 A 
ATOM     19  C   UNL     1      -2.785  -1.841  24.518  0.00  0.00    +0.003 A 
ATOM     20  C   UNL     1      -3.942  -1.233  24.022  0.00  0.00    +0.047 A 
ATOM     25  C   UNL     1      -2.668  -3.243  24.433  0.00  0.00    +0.010 A 
ATOM     26  C   UNL     1      -4.989  -1.960  23.444  0.00  0.00    +0.026 A 
ATOM     28  C   UNL     1      -3.708  -3.982  23.860  0.00  0.00    +0.001 A 
ATOM     31  C   UNL     1      -4.850  -3.349  23.374  0.00  0.00    +0.002 A 
ATOM     37  H   UNL     1      -4.494   0.817  23.937  0.00  0.00    +0.166 HD
ENDROOT
BRANCH  10  18
ATOM      1  F   UNL     1      -0.847   2.605  29.317  0.00  0.00    -0.205 F 
ATOM     18  C   UNL     1       0.750   2.818  27.574  0.00  0.00    +0.005 A 
ATOM     23  C   UNL     1       0.433   2.669  28.924  0.00  0.00    +0.128 A 
ATOM     24  C   UNL     1       2.085   2.883  27.174  0.00  0.00    +0.008 A 
ATOM     29  C   UNL     1       1.451   2.586  29.874  0.00  0.00    +0.038 A 
ATOM     30  C   UNL     1       3.102   2.800  28.124  0.00  0.00    +0.000 A 
ATOM     32  C   UNL     1       2.786   2.652  29.475  0.00  0.00    +0.003 A 
ENDBRANCH  10  18
BRANCH  14  21
ATOM      3  O   UNL     1       1.078   2.080  24.203  0.00  0.00    -0.249 OA
ATOM     21  C   UNL     1       0.697   0.947  24.463  0.00  0.00    +0.325 C 
BRANCH  21   2
ATOM      2  O   UNL     1       0.803  -0.147  23.658  0.00  0.00    -0.467 OA
ATOM     33  C   UNL     1       1.769  -0.047  22.606  0.00  0.00    +0.280 C 
ENDBRANCH  21   2
ENDBRANCH  14  21
BRANCH  12   6
ATOM      6  N   UNL     1      -2.266   4.795  24.961  0.00  0.00    -0.312 NA
ATOM     36  H   UNL     1      -1.250   4.829  24.883  0.00  0.00    +0.122 HD
BRANCH   6  22
ATOM     22  C   UNL     1      -2.807   4.171  23.764  0.00  0.00    +0.100 C 
BRANCH  22  27
ATOM     27  C   UNL     1      -4.313   4.384  23.690  0.00  0.00    +0.119 C 
BRANCH  27   8
ATOM      4  O   UNL     1      -6.196   3.934  25.852  0.00  0.00    -0.276 OA
ATOM      8  N   UNL     1      -5.025   3.172  23.989  0.00  0.00    -0.314 N 
ATOM     34  C   UNL     1      -5.913   3.049  25.050  0.00  0.00    +0.210 C 
ATOM     35  C   UNL     1      -6.539   1.682  25.120  0.00  0.00    +0.109 C 
ATOM     38  H   UNL     1      -4.863   2.370  23.387  0.00  0.00    +0.149 HD
ENDBRANCH  27   8
ENDBRANCH  22  27
ENDBRANCH   6  22
ENDBRANCH  12   6
TORSDOF 7
ENDMDL
MODEL 6
REMARK VINA RESULT:       8.4      2.116      5.164
REMARK  Name = 25389737
REMARK  9 active torsions:
REMARK  status: ('A' for Active; 'I' for Inactive)
REMARK    1  A    between atoms: O_2  and  C_21
REMARK    2  A    between atoms: O_2  and  C_33
REMARK    3  A    between atoms: N_6  and  C_12
REMARK    4  A    between atoms: N_6  and  C_22
REMARK    5  A    between atoms: N_8  and  C_27
REMARK    6  A    between atoms: C_10  and  C_18
REMARK    7  A    between atoms: C_14  and  C_21
REMARK    8  A    between atoms: C_22  and  C_27
REMARK    9  A    between atoms: C_34  and  C_35
REMARK                            x       y       z     vdW  Elec       q    Type
REMARK                         _______ _______ _______ _____ _____    ______ ____
ROOT
ATOM      5  N   UNL     1      -2.487   1.595  24.558  0.00  0.00    -0.274 NA
ATOM      7  N   UNL     1       0.360  -0.695  23.688  0.00  0.00    -0.356 N 
ATOM      9  C   UNL     1      -1.977   0.259  24.118  0.00  0.00    +0.106 C 
ATOM     10  C   UNL     1      -3.947   1.574  24.825  0.00  0.00    +0.093 C 
ATOM     11  C   UNL     1      -2.282  -0.813  25.179  0.00  0.00    +0.044 C 
ATOM     12  C   UNL     1      -3.778  -0.907  25.487  0.00  0.00    +0.057 C 
ATOM     13  C   UNL     1      -4.303   0.478  25.863  0.00  0.00    +0.042 C 
ATOM     14  C   UNL     1      -2.028   2.707  23.682  0.00  0.00    +0.172 C 
ATOM     15  C   UNL     1      -0.507   0.352  23.835  0.00  0.00    +0.038 A 
ATOM     16  C   UNL     1      -0.484   2.846  23.658  0.00  0.00    +0.068 C 
ATOM     17  C   UNL     1       0.187   1.520  23.603  0.00  0.00    -0.016 A 
ATOM     19  C   UNL     1       1.541   1.175  23.340  0.00  0.00    +0.003 A 
ATOM     20  C   UNL     1       1.622  -0.219  23.400  0.00  0.00    +0.047 A 
ATOM     25  C   UNL     1       2.709   1.910  23.050  0.00  0.00    +0.010 A 
ATOM     26  C   UNL     1       2.817  -0.915  23.184  0.00  0.00    +0.026 A 
ATOM     28  C   UNL     1       3.910   1.226  22.834  0.00  0.00    +0.001 A 
ATOM     31  C   UNL     1       3.961  -0.165  22.900  0.00  0.00    +0.002 A 
ATOM     37  H   UNL     1       0.121  -1.673  23.778  0.00  0.00    +0.166 HD
ENDROOT
BRANCH  10  18
ATOM      1  F   UNL     1      -6.700   2.277  24.685  0.00  0.00    -0.205 F 
ATOM     18  C   UNL     1      -4.505   2.897  25.345  0.00  0.00    +0.005 A 
ATOM     23  C   UNL     1      -5.868   3.170  25.241  0.00  0.00    +0.128 A 
ATOM     24  C   UNL     1      -3.649   3.832  25.925  0.00  0.00    +0.008 A 
ATOM     29  C   UNL     1      -6.375   4.379  25.716  0.00  0.00    +0.038 A 
ATOM     30  C   UNL     1      -4.155   5.041  26.400  0.00  0.00    +0.000 A 
ATOM     32  C   UNL     1      -5.519   5.316  26.296  0.00  0.00    +0.003 A 
ENDBRANCH  10  18
BRANCH  14  21
ATOM      3  O   UNL     1      -2.030   1.883  21.416  0.00  0.00    -0.249 OA
ATOM     21  C   UNL     1      -2.573   2.543  22.292  0.00  0.00    +0.325 C 
BRANCH  21   2
ATOM      2  O   UNL     1      -3.742   3.235  22.176  0.00  0.00    -0.467 OA
ATOM     33  C   UNL     1      -3.744   4.541  22.761  0.00  0.00    +0.280 C 
ENDBRANCH  21   2
ENDBRANCH  14  21
BRANCH  12   6
ATOM      6  N   UNL     1      -4.512  -1.442  24.339  0.00  0.00    -0.312 NA
ATOM     36  H   UNL     1      -4.590  -0.725  23.618  0.00  0.00    +0.122 HD
BRANCH   6  22
ATOM     22  C   UNL     1      -3.826  -2.596  23.783  0.00  0.00    +0.100 C 
BRANCH  22  27
ATOM     27  C   UNL     1      -3.526  -3.612  24.876  0.00  0.00    +0.119 C 
BRANCH  27   8
ATOM      4  O   UNL     1      -1.030  -3.190  23.455  0.00  0.00    -0.276 OA
ATOM      8  N   UNL     1      -2.224  -3.396  25.444  0.00  0.00    -0.314 N 
ATOM     34  C   UNL     1      -1.080  -3.201  24.682  0.00  0.00    +0.210 C 
ATOM     35  C   UNL     1       0.144  -2.974  25.529  0.00  0.00    +0.109 C 
ATOM     38  H   UNL     1      -2.148  -3.388  26.458  0.00  0.00    +0.149 HD
ENDBRANCH  27   8
ENDBRANCH  22  27
ENDBRANCH   6  22
ENDBRANCH  12   6
TORSDOF 7
ENDMDL
MODEL 7
REMARK VINA RESULT:       8.5      2.267      3.894
REMARK  Name = 25389737
REMARK  9 active torsions:
REMARK  status: ('A' for Active; 'I' for Inactive)
REMARK    1  A    between atoms: O_2  and  C_21
REMARK    2  A    between atoms: O_2  and  C_33
REMARK    3  A    between atoms: N_6  and  C_12
REMARK    4  A    between atoms: N_6  and  C_22
REMARK    5  A    between atoms: N_8  and  C_27
REMARK    6  A    between atoms: C_10  and  C_18
REMARK    7  A    between atoms: C_14  and  C_21
REMARK    8  A    between atoms: C_22  and  C_27
REMARK    9  A    between atoms: C_34  and  C_35
REMARK                            x       y       z     vdW  Elec       q    Type
REMARK                         _______ _______ _______ _____ _____    ______ ____
ROOT
ATOM      5  N   UNL     1      -2.108   1.681  24.545  0.00  0.00    -0.274 NA
ATOM      7  N   UNL     1       1.580   2.098  23.971  0.00  0.00    -0.356 N 
ATOM      9  C   UNL     1      -0.785   2.259  24.939  0.00  0.00    +0.106 C 
ATOM     10  C   UNL     1      -3.221   2.235  25.357  0.00  0.00    +0.093 C 
ATOM     11  C   UNL     1      -0.801   3.791  24.800  0.00  0.00    +0.044 C 
ATOM     12  C   UNL     1      -1.913   4.433  25.631  0.00  0.00    +0.057 C 
ATOM     13  C   UNL     1      -3.249   3.783  25.274  0.00  0.00    +0.042 C 
ATOM     14  C   UNL     1      -2.085   0.196  24.446  0.00  0.00    +0.172 C 
ATOM     15  C   UNL     1       0.299   1.640  24.108  0.00  0.00    +0.038 A 
ATOM     16  C   UNL     1      -1.083  -0.312  23.379  0.00  0.00    +0.068 C 
ATOM     17  C   UNL     1       0.189   0.459  23.406  0.00  0.00    -0.016 A 
ATOM     19  C   UNL     1       1.442   0.204  22.786  0.00  0.00    +0.003 A 
ATOM     20  C   UNL     1       2.297   1.247  23.156  0.00  0.00    +0.047 A 
ATOM     25  C   UNL     1       1.941  -0.815  21.948  0.00  0.00    +0.010 A 
ATOM     26  C   UNL     1       3.627   1.321  22.728  0.00  0.00    +0.026 A 
ATOM     28  C   UNL     1       3.269  -0.752  21.512  0.00  0.00    +0.001 A 
ATOM     31  C   UNL     1       4.097   0.301  21.897  0.00  0.00    +0.002 A 
ATOM     37  H   UNL     1       1.953   2.935  24.399  0.00  0.00    +0.166 HD
ENDROOT
BRANCH  10  18
ATOM      1  F   UNL     1      -5.608   3.743  25.700  0.00  0.00    -0.205 F 
ATOM     18  C   UNL     1      -4.603   1.729  24.947  0.00  0.00    +0.005 A 
ATOM     23  C   UNL     1      -5.728   2.527  25.148  0.00  0.00    +0.128 A 
ATOM     24  C   UNL     1      -4.737   0.466  24.370  0.00  0.00    +0.008 A 
ATOM     29  C   UNL     1      -6.988   2.063  24.773  0.00  0.00    +0.038 A 
ATOM     30  C   UNL     1      -5.998   0.001  23.996  0.00  0.00    +0.000 A 
ATOM     32  C   UNL     1      -7.124   0.799  24.196  0.00  0.00    +0.003 A 
ENDBRANCH  10  18
BRANCH  14  21
ATOM      3  O   UNL     1      -0.741  -0.285  26.389  0.00  0.00    -0.249 OA
ATOM     21  C   UNL     1      -1.798  -0.417  25.787  0.00  0.00    +0.325 C 
BRANCH  21   2
ATOM      2  O   UNL     1      -2.884  -1.126  26.206  0.00  0.00    -0.467 OA
ATOM     33  C   UNL     1      -3.225  -2.262  25.404  0.00  0.00    +0.280 C 
ENDBRANCH  21   2
ENDBRANCH  14  21
BRANCH  12   6
ATOM      6  N   UNL     1      -1.638   4.292  27.063  0.00  0.00    -0.312 NA
ATOM     36  H   UNL     1      -2.492   4.463  27.594  0.00  0.00    +0.122 HD
BRANCH   6  22
ATOM     22  C   UNL     1      -1.157   2.954  27.364  0.00  0.00    +0.100 C 
BRANCH  22  27
ATOM     27  C   UNL     1       0.362   2.947  27.462  0.00  0.00    +0.119 C 
BRANCH  27   8
ATOM      4  O   UNL     1       2.981   3.167  28.694  0.00  0.00    -0.276 OA
ATOM      8  N   UNL     1       0.801   2.347  28.692  0.00  0.00    -0.314 N 
ATOM     34  C   UNL     1       2.081   2.508  29.208  0.00  0.00    +0.210 C 
ATOM     35  C   UNL     1       2.267   1.793  30.519  0.00  0.00    +0.109 C 
ATOM     38  H   UNL     1       0.133   1.775  29.202  0.00  0.00    +0.149 HD
ENDBRANCH  27   8
ENDBRANCH  22  27
ENDBRANCH   6  22
ENDBRANCH  12   6
TORSDOF 7
ENDMDL
MODEL 8
REMARK VINA RESULT:       8.7      2.142      4.827
REMARK  Name = 25389737
REMARK  9 active torsions:
REMARK  status: ('A' for Active; 'I' for Inactive)
REMARK    1  A    between atoms: O_2  and  C_21
REMARK    2  A    between atoms: O_2  and  C_33
REMARK    3  A    between atoms: N_6  and  C_12
REMARK    4  A    between atoms: N_6  and  C_22
REMARK    5  A    between atoms: N_8  and  C_27
REMARK    6  A    between atoms: C_10  and  C_18
REMARK    7  A    between atoms: C_14  and  C_21
REMARK    8  A    between atoms: C_22  and  C_27
REMARK    9  A    between atoms: C_34  and  C_35
REMARK                            x       y       z     vdW  Elec       q    Type
REMARK                         _______ _______ _______ _____ _____    ______ ____
ROOT
ATOM      5  N   UNL     1      -1.939   1.274  24.840  0.00  0.00    -0.274 NA
ATOM      7  N   UNL     1       1.039  -0.946  24.285  0.00  0.00    -0.356 N 
ATOM      9  C   UNL     1      -1.338  -0.089  24.705  0.00  0.00    +0.106 C 
ATOM     10  C   UNL     1      -3.362   1.216  25.260  0.00  0.00    +0.093 C 
ATOM     11  C   UNL     1      -1.443  -0.860  26.032  0.00  0.00    +0.044 C 
ATOM     12  C   UNL     1      -2.890  -0.980  26.515  0.00  0.00    +0.057 C 
ATOM     13  C   UNL     1      -3.518   0.412  26.576  0.00  0.00    +0.042 C 
ATOM     14  C   UNL     1      -1.670   2.145  23.663  0.00  0.00    +0.172 C 
ATOM     15  C   UNL     1       0.087   0.034  24.251  0.00  0.00    +0.038 A 
ATOM     16  C   UNL     1      -0.156   2.387  23.437  0.00  0.00    +0.068 C 
ATOM     17  C   UNL     1       0.638   1.147  23.653  0.00  0.00    -0.016 A 
ATOM     19  C   UNL     1       1.992   0.846  23.342  0.00  0.00    +0.003 A 
ATOM     20  C   UNL     1       2.218  -0.472  23.749  0.00  0.00    +0.047 A 
ATOM     25  C   UNL     1       3.052   1.562  22.748  0.00  0.00    +0.010 A 
ATOM     26  C   UNL     1       3.454  -1.110  23.592  0.00  0.00    +0.026 A 
ATOM     28  C   UNL     1       4.293   0.937  22.587  0.00  0.00    +0.001 A 
ATOM     31  C   UNL     1       4.489  -0.378  23.003  0.00  0.00    +0.002 A 
ATOM     37  H   UNL     1       0.907  -1.880  24.648  0.00  0.00    +0.166 HD
ENDROOT
BRANCH  10  18
ATOM      1  F   UNL     1      -6.137   1.723  24.892  0.00  0.00    -0.205 F 
ATOM     18  C   UNL     1      -4.004   2.584  25.479  0.00  0.00    +0.005 A 
ATOM     23  C   UNL     1      -5.373   2.755  25.278  0.00  0.00    +0.128 A 
ATOM     24  C   UNL     1      -3.218   3.664  25.881  0.00  0.00    +0.008 A 
ATOM     29  C   UNL     1      -5.956   4.006  25.479  0.00  0.00    +0.038 A 
ATOM     30  C   UNL     1      -3.801   4.915  26.082  0.00  0.00    +0.000 A 
ATOM     32  C   UNL     1      -5.171   5.087  25.881  0.00  0.00    +0.003 A 
ENDBRANCH  10  18
BRANCH  14  21
ATOM      3  O   UNL     1      -2.416   0.379  22.200  0.00  0.00    -0.249 OA
ATOM     21  C   UNL     1      -2.313   1.577  22.429  0.00  0.00    +0.325 C 
BRANCH  21   2
ATOM      2  O   UNL     1      -2.747   2.593  21.632  0.00  0.00    -0.467 OA
ATOM     33  C   UNL     1      -3.782   3.412  22.187  0.00  0.00    +0.280 C 
ENDBRANCH  21   2
ENDBRANCH  14  21
BRANCH  12   6
ATOM      6  N   UNL     1      -3.662  -1.854  25.629  0.00  0.00    -0.312 NA
ATOM     36  H   UNL     1      -4.169  -2.543  26.185  0.00  0.00    +0.122 HD
BRANCH   6  22
ATOM     22  C   UNL     1      -4.618  -1.083  24.852  0.00  0.00    +0.100 C 
BRANCH  22  27
ATOM     27  C   UNL     1      -4.597  -1.526  23.396  0.00  0.00    +0.119 C 
BRANCH  27   8
ATOM      4  O   UNL     1      -3.555  -4.015  24.463  0.00  0.00    -0.276 OA
ATOM      8  N   UNL     1      -3.352  -2.165  23.065  0.00  0.00    -0.314 N 
ATOM     34  C   UNL     1      -2.934  -3.363  23.628  0.00  0.00    +0.210 C 
ATOM     35  C   UNL     1      -1.607  -3.821  23.087  0.00  0.00    +0.109 C 
ATOM     38  H   UNL     1      -2.755  -1.707  22.381  0.00  0.00    +0.149 HD
ENDBRANCH  27   8
ENDBRANCH  22  27
ENDBRANCH   6  22
ENDBRANCH  12   6
TORSDOF 7
ENDMDL
