MODEL 1
REMARK VINA RESULT:       6.4      0.000      0.000
REMARK  Name = 11867175
REMARK  6 active torsions:
REMARK  status: ('A' for Active; 'I' for Inactive)
REMARK    1  A    between atoms: S_1  and  N_10
REMARK    2  A    between atoms: S_1  and  C_29
REMARK    3  A    between atoms: O_6  and  C_34
REMARK    4  A    between atoms: O_6  and  C_35
REMARK    5  A    between atoms: N_9  and  C_20
REMARK    6  A    between atoms: N_10  and  C_24
REMARK                            x       y       z     vdW  Elec       q    Type
REMARK                         _______ _______ _______ _____ _____    ______ ____
ROOT
ATOM      2  O   UNL     1      -0.216   4.033  25.479  0.00  0.00    -0.253 OA
ATOM      3  O   UNL     1      -2.806   0.769  22.358  0.00  0.00    -0.266 OA
ATOM      7  N   UNL     1      -2.486   4.373  25.804  0.00  0.00    -0.285 N 
ATOM      8  N   UNL     1      -3.811   2.204  23.913  0.00  0.00    -0.310 N 
ATOM      9  N   UNL     1      -1.195   3.118  27.339  0.00  0.00    -0.296 N 
ATOM     11  C   UNL     1      -3.761   4.754  23.695  0.00  0.00    +0.027 C 
ATOM     12  C   UNL     1      -4.875   3.715  25.628  0.00  0.00    +0.054 C 
ATOM     13  C   UNL     1      -5.066   4.705  24.481  0.00  0.00    +0.018 C 
ATOM     14  C   UNL     1      -2.599   5.204  24.602  0.00  0.00    +0.114 C 
ATOM     15  C   UNL     1      -3.746   4.216  26.551  0.00  0.00    +0.119 C 
ATOM     16  C   UNL     1      -3.505   3.374  23.078  0.00  0.00    +0.130 C 
ATOM     17  C   UNL     1      -4.537   2.330  25.106  0.00  0.00    +0.027 A 
ATOM     18  C   UNL     1      -1.230   3.856  26.163  0.00  0.00    +0.302 C 
ATOM     19  C   UNL     1      -4.904   1.238  25.800  0.00  0.00    +0.024 A 
ATOM     21  C   UNL     1      -3.427   0.945  23.404  0.00  0.00    +0.274 A 
ATOM     24  C   UNL     1      -3.841  -0.219  24.226  0.00  0.00    +0.112 A 
ATOM     27  C   UNL     1      -4.546  -0.080  25.349  0.00  0.00    +0.031 A 
ATOM     36  H   UNL     1      -2.040   2.886  27.840  0.00  0.00    +0.151 HD
ENDROOT
BRANCH   9  20
ATOM     20  C   UNL     1       0.022   2.518  27.831  0.00  0.00    +0.074 C 
ATOM     22  C   UNL     1       1.248   3.177  27.193  0.00  0.00    +0.022 C 
ATOM     23  C   UNL     1       0.079   2.596  29.359  0.00  0.00    +0.022 C 
ATOM     25  C   UNL     1       2.548   2.594  27.740  0.00  0.00    +0.002 C 
ATOM     26  C   UNL     1       1.381   2.016  29.903  0.00  0.00    +0.002 C 
ATOM     28  C   UNL     1       2.601   2.672  29.263  0.00  0.00    +0.000 C 
ENDBRANCH   9  20
BRANCH  24  10
ATOM     10  N   UNL     1      -3.505  -1.524  23.823  0.00  0.00    -0.211 N 
ATOM     37  H   UNL     1      -4.331  -2.130  23.706  0.00  0.00    +0.174 HD
BRANCH  10   1
ATOM      1  S   UNL     1      -2.196  -2.261  24.603  0.00  0.00    +0.073 S 
ATOM      4  O   UNL     1      -2.408  -2.242  26.038  0.00  0.00    -0.150 OA
ATOM      5  O   UNL     1      -1.864  -3.502  23.930  0.00  0.00    -0.150 OA
BRANCH   1  29
ATOM     29  C   UNL     1      -0.907  -1.105  24.245  0.00  0.00    +0.109 A 
ATOM     30  C   UNL     1      -0.745   0.000  25.062  0.00  0.00    +0.032 A 
ATOM     31  C   UNL     1      -0.084  -1.328  23.154  0.00  0.00    +0.032 A 
ATOM     32  C   UNL     1       0.271   0.913  24.778  0.00  0.00    +0.047 A 
ATOM     33  C   UNL     1       0.932  -0.415  22.871  0.00  0.00    +0.047 A 
ATOM     34  C   UNL     1       1.109   0.705  23.683  0.00  0.00    +0.120 A 
BRANCH  34   6
ATOM      6  O   UNL     1       2.102   1.595  23.407  0.00  0.00    -0.495 OA
ATOM     35  C   UNL     1       3.279   1.080  22.785  0.00  0.00    +0.277 C 
ENDBRANCH  34   6
ENDBRANCH   1  29
ENDBRANCH  10   1
ENDBRANCH  24  10
TORSDOF 5
ENDMDL
MODEL 2
REMARK VINA RESULT:       7.3      2.692      5.385
REMARK  Name = 11867175
REMARK  6 active torsions:
REMARK  status: ('A' for Active; 'I' for Inactive)
REMARK    1  A    between atoms: S_1  and  N_10
REMARK    2  A    between atoms: S_1  and  C_29
REMARK    3  A    between atoms: O_6  and  C_34
REMARK    4  A    between atoms: O_6  and  C_35
REMARK    5  A    between atoms: N_9  and  C_20
REMARK    6  A    between atoms: N_10  and  C_24
REMARK                            x       y       z     vdW  Elec       q    Type
REMARK                         _______ _______ _______ _____ _____    ______ ____
ROOT
ATOM      2  O   UNL     1      -4.726   0.340  26.599  0.00  0.00    -0.253 OA
ATOM      3  O   UNL     1      -0.079   2.648  26.163  0.00  0.00    -0.266 OA
ATOM      7  N   UNL     1      -4.941   2.126  25.136  0.00  0.00    -0.285 N 
ATOM      8  N   UNL     1      -1.988   3.257  24.949  0.00  0.00    -0.310 N 
ATOM      9  N   UNL     1      -4.779  -0.100  24.350  0.00  0.00    -0.296 N 
ATOM     11  C   UNL     1      -4.067   4.279  26.038  0.00  0.00    +0.027 C 
ATOM     12  C   UNL     1      -4.037   3.865  23.612  0.00  0.00    +0.054 C 
ATOM     13  C   UNL     1      -4.284   4.932  24.678  0.00  0.00    +0.018 C 
ATOM     14  C   UNL     1      -5.034   3.095  26.231  0.00  0.00    +0.114 C 
ATOM     15  C   UNL     1      -5.051   2.719  23.792  0.00  0.00    +0.119 C 
ATOM     16  C   UNL     1      -2.600   3.847  26.148  0.00  0.00    +0.130 C 
ATOM     17  C   UNL     1      -2.623   3.321  23.700  0.00  0.00    +0.027 A 
ATOM     18  C   UNL     1      -4.813   0.760  25.440  0.00  0.00    +0.302 C 
ATOM     19  C   UNL     1      -2.000   2.875  22.595  0.00  0.00    +0.024 A 
ATOM     21  C   UNL     1      -0.694   2.717  25.100  0.00  0.00    +0.274 A 
ATOM     24  C   UNL     1      -0.068   2.220  23.848  0.00  0.00    +0.112 A 
ATOM     27  C   UNL     1      -0.681   2.306  22.668  0.00  0.00    +0.031 A 
ATOM     36  H   UNL     1      -4.744   0.251  23.404  0.00  0.00    +0.151 HD
ENDROOT
BRANCH   9  20
ATOM     20  C   UNL     1      -4.642  -1.528  24.505  0.00  0.00    +0.074 C 
ATOM     22  C   UNL     1      -4.568  -2.218  23.140  0.00  0.00    +0.022 C 
ATOM     23  C   UNL     1      -3.418  -1.859  25.363  0.00  0.00    +0.022 C 
ATOM     25  C   UNL     1      -4.369  -3.724  23.281  0.00  0.00    +0.002 C 
ATOM     26  C   UNL     1      -3.218  -3.366  25.500  0.00  0.00    +0.002 C 
ATOM     28  C   UNL     1      -3.149  -4.051  24.138  0.00  0.00    +0.000 C 
ENDBRANCH   9  20
BRANCH  24  10
ATOM     10  N   UNL     1       1.217   1.651  23.877  0.00  0.00    -0.211 N 
ATOM     37  H   UNL     1       1.955   2.319  23.610  0.00  0.00    +0.174 HD
BRANCH  10   1
ATOM      1  S   UNL     1       1.393   0.104  23.212  0.00  0.00    +0.073 S 
ATOM      4  O   UNL     1       0.731  -0.870  24.059  0.00  0.00    -0.150 OA
ATOM      5  O   UNL     1       1.108   0.151  21.790  0.00  0.00    -0.150 OA
BRANCH   1  29
ATOM     29  C   UNL     1       3.135  -0.136  23.393  0.00  0.00    +0.109 A 
ATOM     30  C   UNL     1       3.607  -1.370  23.803  0.00  0.00    +0.032 A 
ATOM     31  C   UNL     1       3.993   0.916  23.122  0.00  0.00    +0.032 A 
ATOM     32  C   UNL     1       4.982  -1.560  23.947  0.00  0.00    +0.047 A 
ATOM     33  C   UNL     1       5.368   0.726  23.265  0.00  0.00    +0.047 A 
ATOM     34  C   UNL     1       5.862  -0.512  23.678  0.00  0.00    +0.120 A 
BRANCH  34   6
ATOM      6  O   UNL     1       7.204  -0.696  23.817  0.00  0.00    -0.495 OA
ATOM     35  C   UNL     1       7.999  -0.581  22.638  0.00  0.00    +0.277 C 
ENDBRANCH  34   6
ENDBRANCH   1  29
ENDBRANCH  10   1
ENDBRANCH  24  10
TORSDOF 5
ENDMDL
