MODEL 1
REMARK VINA RESULT:      -2.9      0.000      0.000
REMARK  Name = 45360959
REMARK  8 active torsions:
REMARK  status: ('A' for Active; 'I' for Inactive)
REMARK    1  A    between atoms: N_3  and  C_18
REMARK    2  A    between atoms: N_4  and  C_16
REMARK    3  A    between atoms: N_8  and  C_24
REMARK    4  A    between atoms: C_13  and  C_17
REMARK    5  A    between atoms: C_16  and  C_20
REMARK    6  A    between atoms: C_17  and  C_19
REMARK    7  A    between atoms: C_19  and  C_21
REMARK    8  A    between atoms: C_24  and  C_25
REMARK                            x       y       z     vdW  Elec       q    Type
REMARK                         _______ _______ _______ _____ _____    ______ ____
ROOT
ATOM      1  O   UNL     1      -0.923   0.534  26.458  0.00  0.00    -0.274 OA
ATOM      3  N   UNL     1      -2.243   3.115  23.892  0.00  0.00    -0.296 NA
ATOM      4  N   UNL     1      -0.415  -0.055  23.873  0.00  0.00    -0.283 NA
ATOM      5  N   UNL     1      -0.577   2.784  26.224  0.00  0.00    -0.312 N 
ATOM      9  C   UNL     1      -1.314   2.126  23.302  0.00  0.00    +0.084 C 
ATOM     10  C   UNL     1      -0.337   1.369  24.248  0.00  0.00    +0.161 C 
ATOM     11  C   UNL     1      -2.017   0.966  22.572  0.00  0.00    +0.036 C 
ATOM     12  C   UNL     1      -0.955  -0.112  22.518  0.00  0.00    +0.087 C 
ATOM     13  C   UNL     1      -1.575   4.286  24.526  0.00  0.00    +0.074 C 
ATOM     14  C   UNL     1      -0.654   1.493  25.736  0.00  0.00    +0.232 C 
ATOM     15  C   UNL     1      -0.342   3.943  25.386  0.00  0.00    +0.123 C 
ATOM     18  C   UNL     1      -3.228   3.568  22.895  0.00  0.00    +0.105 C 
ATOM     31  H   UNL     1      -0.754   2.933  27.213  0.00  0.00    +0.149 HD
ENDROOT
BRANCH   4  16
ATOM     16  C   UNL     1       0.859  -0.752  23.984  0.00  0.00    +0.159 C 
BRANCH  16  20
ATOM      6  N   UNL     1       2.759   0.838  23.628  0.00  0.00    -0.347 N 
ATOM      7  N   UNL     1       2.180  -0.388  21.869  0.00  0.00    -0.239 NA
ATOM     20  C   UNL     1       1.922  -0.123  23.130  0.00  0.00    +0.121 A 
ATOM     22  C   UNL     1       3.604   1.207  22.620  0.00  0.00    +0.104 A 
ATOM     23  C   UNL     1       3.227   0.437  21.544  0.00  0.00    +0.130 A 
ATOM     32  H   UNL     1       2.755   1.206  24.570  0.00  0.00    +0.167 HD
ENDBRANCH  16  20
ENDBRANCH   4  16
BRANCH  13  17
ATOM     17  C   UNL     1      -2.568   5.053  25.424  0.00  0.00    +0.029 C 
BRANCH  17  19
ATOM     19  C   UNL     1      -3.200   4.123  26.442  0.00  0.00    +0.097 C 
BRANCH  19  21
ATOM      2  O   UNL     1      -5.436   3.883  25.543  0.00  0.00    -0.276 OA
ATOM      8  N   UNL     1      -4.078   2.008  25.709  0.00  0.00    -0.311 N 
ATOM     21  C   UNL     1      -4.370   3.357  25.850  0.00  0.00    +0.213 C 
ATOM     33  H   UNL     1      -3.160   1.662  25.975  0.00  0.00    +0.149 HD
BRANCH   8  24
ATOM     24  C   UNL     1      -5.030   1.066  25.169  0.00  0.00    +0.139 C 
BRANCH  24  25
ATOM     25  C   UNL     1      -4.429  -0.297  24.984  0.00  0.00    -0.030 A 
ATOM     26  C   UNL     1      -3.632  -0.849  25.987  0.00  0.00    +0.005 A 
ATOM     27  C   UNL     1      -4.666  -1.011  23.809  0.00  0.00    +0.005 A 
ATOM     28  C   UNL     1      -3.072  -2.116  25.814  0.00  0.00    +0.000 A 
ATOM     29  C   UNL     1      -4.106  -2.276  23.637  0.00  0.00    +0.000 A 
ATOM     30  C   UNL     1      -3.309  -2.829  24.640  0.00  0.00    +0.000 A 
ENDBRANCH  24  25
ENDBRANCH   8  24
ENDBRANCH  19  21
ENDBRANCH  17  19
ENDBRANCH  13  17
TORSDOF 7
ENDMDL
MODEL 2
REMARK VINA RESULT:      -2.6      1.627      4.277
REMARK  Name = 45360959
REMARK  8 active torsions:
REMARK  status: ('A' for Active; 'I' for Inactive)
REMARK    1  A    between atoms: N_3  and  C_18
REMARK    2  A    between atoms: N_4  and  C_16
REMARK    3  A    between atoms: N_8  and  C_24
REMARK    4  A    between atoms: C_13  and  C_17
REMARK    5  A    between atoms: C_16  and  C_20
REMARK    6  A    between atoms: C_17  and  C_19
REMARK    7  A    between atoms: C_19  and  C_21
REMARK    8  A    between atoms: C_24  and  C_25
REMARK                            x       y       z     vdW  Elec       q    Type
REMARK                         _______ _______ _______ _____ _____    ______ ____
ROOT
ATOM      1  O   UNL     1      -0.792   2.063  23.629  0.00  0.00    -0.274 OA
ATOM      3  N   UNL     1      -2.893  -0.678  25.378  0.00  0.00    -0.296 NA
ATOM      4  N   UNL     1       0.382  -0.365  23.775  0.00  0.00    -0.283 NA
ATOM      5  N   UNL     1      -2.893   1.248  23.230  0.00  0.00    -0.312 N 
ATOM      9  C   UNL     1      -1.711  -1.213  24.668  0.00  0.00    +0.084 C 
ATOM     10  C   UNL     1      -1.073  -0.353  23.536  0.00  0.00    +0.161 C 
ATOM     11  C   UNL     1      -0.501  -1.485  25.583  0.00  0.00    +0.036 C 
ATOM     12  C   UNL     1       0.668  -1.519  24.621  0.00  0.00    +0.087 C 
ATOM     13  C   UNL     1      -4.096  -0.492  24.519  0.00  0.00    +0.074 C 
ATOM     14  C   UNL     1      -1.543   1.098  23.487  0.00  0.00    +0.232 C 
ATOM     15  C   UNL     1      -3.817   0.135  23.139  0.00  0.00    +0.123 C 
ATOM     18  C   UNL     1      -3.224  -1.514  26.546  0.00  0.00    +0.105 C 
ATOM     31  H   UNL     1      -3.266   2.190  23.161  0.00  0.00    +0.149 HD
ENDROOT
BRANCH   4  16
ATOM     16  C   UNL     1       1.168  -0.376  22.549  0.00  0.00    +0.159 C 
BRANCH  16  20
ATOM      6  N   UNL     1       3.461  -1.020  23.315  0.00  0.00    -0.347 N 
ATOM      7  N   UNL     1       3.233   1.067  22.590  0.00  0.00    -0.239 NA
ATOM     20  C   UNL     1       2.616  -0.074  22.805  0.00  0.00    +0.121 A 
ATOM     22  C   UNL     1       4.696  -0.446  23.432  0.00  0.00    +0.104 A 
ATOM     23  C   UNL     1       4.530   0.842  22.979  0.00  0.00    +0.130 A 
ATOM     32  H   UNL     1       3.219  -1.971  23.559  0.00  0.00    +0.167 HD
ENDBRANCH  16  20
ENDBRANCH   4  16
BRANCH  13  17
ATOM     17  C   UNL     1      -5.135   0.399  25.232  0.00  0.00    +0.029 C 
BRANCH  17  19
ATOM     19  C   UNL     1      -5.609   1.510  24.314  0.00  0.00    +0.097 C 
BRANCH  19  21
ATOM      2  O   UNL     1      -4.464   3.538  23.651  0.00  0.00    -0.276 OA
ATOM      8  N   UNL     1      -4.645   3.029  25.909  0.00  0.00    -0.311 N 
ATOM     21  C   UNL     1      -4.847   2.801  24.555  0.00  0.00    +0.213 C 
ATOM     33  H   UNL     1      -5.013   2.371  26.590  0.00  0.00    +0.149 HD
BRANCH   8  24
ATOM     24  C   UNL     1      -3.942   4.192  26.398  0.00  0.00    +0.139 C 
BRANCH  24  25
ATOM     25  C   UNL     1      -2.491   4.173  26.014  0.00  0.00    -0.030 A 
ATOM     26  C   UNL     1      -1.977   5.166  25.181  0.00  0.00    +0.005 A 
ATOM     27  C   UNL     1      -1.656   3.162  26.491  0.00  0.00    +0.005 A 
ATOM     28  C   UNL     1      -0.628   5.149  24.824  0.00  0.00    +0.000 A 
ATOM     29  C   UNL     1      -0.308   3.145  26.134  0.00  0.00    +0.000 A 
ATOM     30  C   UNL     1       0.206   4.138  25.301  0.00  0.00    +0.000 A 
ENDBRANCH  24  25
ENDBRANCH   8  24
ENDBRANCH  19  21
ENDBRANCH  17  19
ENDBRANCH  13  17
TORSDOF 7
ENDMDL
MODEL 3
REMARK VINA RESULT:      -1.5      1.532      2.009
REMARK  Name = 45360959
REMARK  8 active torsions:
REMARK  status: ('A' for Active; 'I' for Inactive)
REMARK    1  A    between atoms: N_3  and  C_18
REMARK    2  A    between atoms: N_4  and  C_16
REMARK    3  A    between atoms: N_8  and  C_24
REMARK    4  A    between atoms: C_13  and  C_17
REMARK    5  A    between atoms: C_16  and  C_20
REMARK    6  A    between atoms: C_17  and  C_19
REMARK    7  A    between atoms: C_19  and  C_21
REMARK    8  A    between atoms: C_24  and  C_25
REMARK                            x       y       z     vdW  Elec       q    Type
REMARK                         _______ _______ _______ _____ _____    ______ ____
ROOT
ATOM      1  O   UNL     1       0.966   1.947  26.158  0.00  0.00    -0.274 OA
ATOM      3  N   UNL     1      -2.237   2.123  23.991  0.00  0.00    -0.296 NA
ATOM      4  N   UNL     1       1.266   1.142  23.598  0.00  0.00    -0.283 NA
ATOM      5  N   UNL     1      -0.462   3.664  25.663  0.00  0.00    -0.312 N 
ATOM      9  C   UNL     1      -1.009   1.889  23.200  0.00  0.00    +0.084 C 
ATOM     10  C   UNL     1       0.362   2.284  23.824  0.00  0.00    +0.161 C 
ATOM     11  C   UNL     1      -0.777   0.413  22.827  0.00  0.00    +0.036 C 
ATOM     12  C   UNL     1       0.701   0.359  22.504  0.00  0.00    +0.087 C 
ATOM     13  C   UNL     1      -2.517   3.556  24.285  0.00  0.00    +0.074 C 
ATOM     14  C   UNL     1       0.327   2.583  25.320  0.00  0.00    +0.232 C 
ATOM     15  C   UNL     1      -1.289   4.383  24.714  0.00  0.00    +0.123 C 
ATOM     18  C   UNL     1      -3.404   1.497  23.344  0.00  0.00    +0.105 C 
ATOM     31  H   UNL     1      -0.511   3.931  26.642  0.00  0.00    +0.149 HD
ENDROOT
BRANCH   4  16
ATOM     16  C   UNL     1       2.643   1.539  23.333  0.00  0.00    +0.159 C 
BRANCH  16  20
ATOM      6  N   UNL     1       4.907   0.634  23.896  0.00  0.00    -0.347 N 
ATOM      7  N   UNL     1       3.350  -0.878  23.424  0.00  0.00    -0.239 NA
ATOM     20  C   UNL     1       3.605   0.406  23.542  0.00  0.00    +0.121 A 
ATOM     22  C   UNL     1       5.519  -0.582  24.010  0.00  0.00    +0.104 A 
ATOM     23  C   UNL     1       4.538  -1.500  23.714  0.00  0.00    +0.130 A 
ATOM     32  H   UNL     1       5.338   1.536  24.048  0.00  0.00    +0.167 HD
ENDBRANCH  16  20
ENDBRANCH   4  16
BRANCH  13  17
ATOM     17  C   UNL     1      -3.574   3.681  25.402  0.00  0.00    +0.029 C 
BRANCH  17  19
ATOM     19  C   UNL     1      -4.975   3.553  24.833  0.00  0.00    +0.097 C 
BRANCH  19  21
ATOM      2  O   UNL     1      -6.694   1.849  24.768  0.00  0.00    -0.276 OA
ATOM      8  N   UNL     1      -4.581   1.292  25.552  0.00  0.00    -0.311 N 
ATOM     21  C   UNL     1      -5.535   2.157  25.034  0.00  0.00    +0.213 C 
ATOM     33  H   UNL     1      -3.639   1.631  25.726  0.00  0.00    +0.149 HD
BRANCH   8  24
ATOM     24  C   UNL     1      -4.870  -0.094  25.835  0.00  0.00    +0.139 C 
BRANCH  24  25
ATOM     25  C   UNL     1      -3.759  -1.000  25.390  0.00  0.00    -0.030 A 
ATOM     26  C   UNL     1      -4.010  -2.008  24.460  0.00  0.00    +0.005 A 
ATOM     27  C   UNL     1      -2.473  -0.834  25.908  0.00  0.00    +0.005 A 
ATOM     28  C   UNL     1      -2.977  -2.851  24.047  0.00  0.00    +0.000 A 
ATOM     29  C   UNL     1      -1.442  -1.677  25.495  0.00  0.00    +0.000 A 
ATOM     30  C   UNL     1      -1.693  -2.685  24.565  0.00  0.00    +0.000 A 
ENDBRANCH  24  25
ENDBRANCH   8  24
ENDBRANCH  19  21
ENDBRANCH  17  19
ENDBRANCH  13  17
TORSDOF 7
ENDMDL
MODEL 4
REMARK VINA RESULT:      -0.9      1.721      3.912
REMARK  Name = 45360959
REMARK  8 active torsions:
REMARK  status: ('A' for Active; 'I' for Inactive)
REMARK    1  A    between atoms: N_3  and  C_18
REMARK    2  A    between atoms: N_4  and  C_16
REMARK    3  A    between atoms: N_8  and  C_24
REMARK    4  A    between atoms: C_13  and  C_17
REMARK    5  A    between atoms: C_16  and  C_20
REMARK    6  A    between atoms: C_17  and  C_19
REMARK    7  A    between atoms: C_19  and  C_21
REMARK    8  A    between atoms: C_24  and  C_25
REMARK                            x       y       z     vdW  Elec       q    Type
REMARK                         _______ _______ _______ _____ _____    ______ ____
ROOT
ATOM      1  O   UNL     1      -1.469  -2.647  23.559  0.00  0.00    -0.274 OA
ATOM      3  N   UNL     1      -3.142   0.842  23.711  0.00  0.00    -0.296 NA
ATOM      4  N   UNL     1       0.232  -0.552  23.460  0.00  0.00    -0.283 NA
ATOM      5  N   UNL     1      -2.884  -1.685  25.078  0.00  0.00    -0.312 N 
ATOM      9  C   UNL     1      -1.674   0.890  23.886  0.00  0.00    +0.084 C 
ATOM     10  C   UNL     1      -0.938  -0.404  24.344  0.00  0.00    +0.161 C 
ATOM     11  C   UNL     1      -0.902   1.260  22.605  0.00  0.00    +0.036 C 
ATOM     12  C   UNL     1       0.500   0.760  22.881  0.00  0.00    +0.087 C 
ATOM     13  C   UNL     1      -3.903   0.569  24.962  0.00  0.00    +0.074 C 
ATOM     14  C   UNL     1      -1.770  -1.682  24.261  0.00  0.00    +0.232 C 
ATOM     15  C   UNL     1      -3.309  -0.537  25.855  0.00  0.00    +0.123 C 
ATOM     18  C   UNL     1      -3.633   2.075  23.073  0.00  0.00    +0.105 C 
ATOM     31  H   UNL     1      -3.469  -2.516  25.088  0.00  0.00    +0.149 HD
ENDROOT
BRANCH   4  16
ATOM     16  C   UNL     1       1.400  -1.101  24.135  0.00  0.00    +0.159 C 
BRANCH  16  20
ATOM      6  N   UNL     1       3.885  -1.148  23.839  0.00  0.00    -0.347 N 
ATOM      7  N   UNL     1       2.819   0.514  22.820  0.00  0.00    -0.239 NA
ATOM     20  C   UNL     1       2.682  -0.550  23.581  0.00  0.00    +0.121 A 
ATOM     22  C   UNL     1       4.850  -0.419  23.202  0.00  0.00    +0.104 A 
ATOM     23  C   UNL     1       4.168   0.602  22.581  0.00  0.00    +0.130 A 
ATOM     32  H   UNL     1       4.034  -1.978  24.397  0.00  0.00    +0.167 HD
ENDBRANCH  16  20
ENDBRANCH   4  16
BRANCH  13  17
ATOM     17  C   UNL     1      -5.356   0.170  24.633  0.00  0.00    +0.029 C 
BRANCH  17  19
ATOM     19  C   UNL     1      -6.310   1.309  24.940  0.00  0.00    +0.097 C 
BRANCH  19  21
ATOM      2  O   UNL     1      -5.982   2.356  27.099  0.00  0.00    -0.276 OA
ATOM      8  N   UNL     1      -4.791   3.144  25.269  0.00  0.00    -0.311 N 
ATOM     21  C   UNL     1      -5.697   2.308  25.906  0.00  0.00    +0.213 C 
ATOM     33  H   UNL     1      -4.604   3.020  24.278  0.00  0.00    +0.149 HD
BRANCH   8  24
ATOM     24  C   UNL     1      -4.074   4.182  25.972  0.00  0.00    +0.139 C 
BRANCH  24  25
ATOM     25  C   UNL     1      -2.593   4.091  25.749  0.00  0.00    -0.030 A 
ATOM     26  C   UNL     1      -1.864   3.049  26.321  0.00  0.00    +0.005 A 
ATOM     27  C   UNL     1      -1.945   5.050  24.969  0.00  0.00    +0.005 A 
ATOM     28  C   UNL     1      -0.486   2.965  26.114  0.00  0.00    +0.000 A 
ATOM     29  C   UNL     1      -0.568   4.965  24.763  0.00  0.00    +0.000 A 
ATOM     30  C   UNL     1       0.161   3.923  25.335  0.00  0.00    +0.000 A 
ENDBRANCH  24  25
ENDBRANCH   8  24
ENDBRANCH  19  21
ENDBRANCH  17  19
ENDBRANCH  13  17
TORSDOF 7
ENDMDL
MODEL 5
REMARK VINA RESULT:      -0.5      2.448      4.488
REMARK  Name = 45360959
REMARK  8 active torsions:
REMARK  status: ('A' for Active; 'I' for Inactive)
REMARK    1  A    between atoms: N_3  and  C_18
REMARK    2  A    between atoms: N_4  and  C_16
REMARK    3  A    between atoms: N_8  and  C_24
REMARK    4  A    between atoms: C_13  and  C_17
REMARK    5  A    between atoms: C_16  and  C_20
REMARK    6  A    between atoms: C_17  and  C_19
REMARK    7  A    between atoms: C_19  and  C_21
REMARK    8  A    between atoms: C_24  and  C_25
REMARK                            x       y       z     vdW  Elec       q    Type
REMARK                         _______ _______ _______ _____ _____    ______ ____
ROOT
ATOM      1  O   UNL     1       0.624   2.403  23.863  0.00  0.00    -0.274 OA
ATOM      3  N   UNL     1      -2.755   0.777  24.824  0.00  0.00    -0.296 NA
ATOM      4  N   UNL     1       0.550  -0.290  23.673  0.00  0.00    -0.283 NA
ATOM      5  N   UNL     1      -1.507   2.718  23.093  0.00  0.00    -0.312 N 
ATOM      9  C   UNL     1      -1.825  -0.160  24.157  0.00  0.00    +0.084 C 
ATOM     10  C   UNL     1      -0.678   0.429  23.285  0.00  0.00    +0.161 C 
ATOM     11  C   UNL     1      -1.053  -1.072  25.130  0.00  0.00    +0.036 C 
ATOM     12  C   UNL     1       0.134  -1.534  24.311  0.00  0.00    +0.087 C 
ATOM     13  C   UNL     1      -3.571   1.605  23.892  0.00  0.00    +0.074 C 
ATOM     14  C   UNL     1      -0.437   1.925  23.461  0.00  0.00    +0.232 C 
ATOM     15  C   UNL     1      -2.795   2.186  22.693  0.00  0.00    +0.123 C 
ATOM     18  C   UNL     1      -3.630   0.063  25.770  0.00  0.00    +0.105 C 
ATOM     31  H   UNL     1      -1.404   3.726  23.164  0.00  0.00    +0.149 HD
ENDROOT
BRANCH   4  16
ATOM     16  C   UNL     1       1.459  -0.523  22.559  0.00  0.00    +0.159 C 
BRANCH  16  20
ATOM      6  N   UNL     1       3.672  -1.147  23.546  0.00  0.00    -0.347 N 
ATOM      7  N   UNL     1       3.531   0.904  22.706  0.00  0.00    -0.239 NA
ATOM     20  C   UNL     1       2.884  -0.220  22.922  0.00  0.00    +0.121 A 
ATOM     22  C   UNL     1       4.899  -0.578  23.739  0.00  0.00    +0.104 A 
ATOM     23  C   UNL     1       4.787   0.688  23.213  0.00  0.00    +0.130 A 
ATOM     32  H   UNL     1       3.399  -2.083  23.814  0.00  0.00    +0.167 HD
ENDBRANCH  16  20
ENDBRANCH   4  16
BRANCH  13  17
ATOM     17  C   UNL     1      -4.217   2.787  24.643  0.00  0.00    +0.029 C 
BRANCH  17  19
ATOM     19  C   UNL     1      -3.560   2.987  25.996  0.00  0.00    +0.097 C 
BRANCH  19  21
ATOM      2  O   UNL     1      -1.982   4.699  25.330  0.00  0.00    -0.276 OA
ATOM      8  N   UNL     1      -1.199   2.801  26.412  0.00  0.00    -0.311 N 
ATOM     21  C   UNL     1      -2.182   3.611  25.863  0.00  0.00    +0.213 C 
ATOM     33  H   UNL     1      -1.459   1.921  26.849  0.00  0.00    +0.149 HD
BRANCH   8  24
ATOM     24  C   UNL     1       0.196   3.172  26.409  0.00  0.00    +0.139 C 
BRANCH  24  25
ATOM     25  C   UNL     1       0.858   2.880  27.724  0.00  0.00    -0.030 A 
ATOM     26  C   UNL     1       0.083   2.556  28.837  0.00  0.00    +0.005 A 
ATOM     27  C   UNL     1       2.248   2.934  27.833  0.00  0.00    +0.005 A 
ATOM     28  C   UNL     1       0.698   2.285  30.061  0.00  0.00    +0.000 A 
ATOM     29  C   UNL     1       2.862   2.664  29.056  0.00  0.00    +0.000 A 
ATOM     30  C   UNL     1       2.087   2.339  30.169  0.00  0.00    +0.000 A 
ENDBRANCH  24  25
ENDBRANCH   8  24
ENDBRANCH  19  21
ENDBRANCH  17  19
ENDBRANCH  13  17
TORSDOF 7
ENDMDL
MODEL 6
REMARK VINA RESULT:      -0.5      1.905      4.381
REMARK  Name = 45360959
REMARK  8 active torsions:
REMARK  status: ('A' for Active; 'I' for Inactive)
REMARK    1  A    between atoms: N_3  and  C_18
REMARK    2  A    between atoms: N_4  and  C_16
REMARK    3  A    between atoms: N_8  and  C_24
REMARK    4  A    between atoms: C_13  and  C_17
REMARK    5  A    between atoms: C_16  and  C_20
REMARK    6  A    between atoms: C_17  and  C_19
REMARK    7  A    between atoms: C_19  and  C_21
REMARK    8  A    between atoms: C_24  and  C_25
REMARK                            x       y       z     vdW  Elec       q    Type
REMARK                         _______ _______ _______ _____ _____    ______ ____
ROOT
ATOM      1  O   UNL     1      -0.767  -1.089  21.962  0.00  0.00    -0.274 OA
ATOM      3  N   UNL     1      -1.173   0.371  25.525  0.00  0.00    -0.296 NA
ATOM      4  N   UNL     1       1.295   0.427  22.824  0.00  0.00    -0.283 NA
ATOM      5  N   UNL     1      -1.156  -2.073  23.992  0.00  0.00    -0.312 N 
ATOM      9  C   UNL     1       0.198   0.514  24.987  0.00  0.00    +0.084 C 
ATOM     10  C   UNL     1       0.645  -0.430  23.833  0.00  0.00    +0.161 C 
ATOM     11  C   UNL     1       0.495   1.906  24.396  0.00  0.00    +0.036 C 
ATOM     12  C   UNL     1       1.689   1.659  23.498  0.00  0.00    +0.087 C 
ATOM     13  C   UNL     1      -1.445  -0.941  26.176  0.00  0.00    +0.074 C 
ATOM     14  C   UNL     1      -0.486  -1.200  23.156  0.00  0.00    +0.232 C 
ATOM     15  C   UNL     1      -0.903  -2.168  25.416  0.00  0.00    +0.123 C 
ATOM     18  C   UNL     1      -1.492   1.474  26.448  0.00  0.00    +0.105 C 
ATOM     31  H   UNL     1      -1.905  -2.634  23.598  0.00  0.00    +0.149 HD
ENDROOT
BRANCH   4  16
ATOM     16  C   UNL     1       2.420  -0.217  22.159  0.00  0.00    +0.159 C 
BRANCH  16  20
ATOM      6  N   UNL     1       4.144  -1.169  23.702  0.00  0.00    -0.347 N 
ATOM      7  N   UNL     1       4.472   0.932  23.063  0.00  0.00    -0.239 NA
ATOM     20  C   UNL     1       3.683  -0.115  22.963  0.00  0.00    +0.121 A 
ATOM     22  C   UNL     1       5.299  -0.768  24.312  0.00  0.00    +0.104 A 
ATOM     23  C   UNL     1       5.481   0.533  23.903  0.00  0.00    +0.130 A 
ATOM     32  H   UNL     1       3.711  -2.080  23.782  0.00  0.00    +0.167 HD
ENDBRANCH  16  20
ENDBRANCH   4  16
BRANCH  13  17
ATOM     17  C   UNL     1      -2.963  -1.146  26.364  0.00  0.00    +0.029 C 
BRANCH  17  19
ATOM     19  C   UNL     1      -3.639  -1.402  25.030  0.00  0.00    +0.097 C 
BRANCH  19  21
ATOM      2  O   UNL     1      -3.607   0.119  23.147  0.00  0.00    -0.276 OA
ATOM      8  N   UNL     1      -4.668   0.770  25.106  0.00  0.00    -0.311 N 
ATOM     21  C   UNL     1      -3.953  -0.107  24.303  0.00  0.00    +0.213 C 
ATOM     33  H   UNL     1      -4.926   0.491  26.049  0.00  0.00    +0.149 HD
BRANCH   8  24
ATOM     24  C   UNL     1      -5.085   2.073  24.644  0.00  0.00    +0.139 C 
BRANCH  24  25
ATOM     25  C   UNL     1      -4.030   3.115  24.873  0.00  0.00    -0.030 A 
ATOM     26  C   UNL     1      -3.997   3.821  26.075  0.00  0.00    +0.005 A 
ATOM     27  C   UNL     1      -3.082   3.377  23.884  0.00  0.00    +0.005 A 
ATOM     28  C   UNL     1      -3.016   4.790  26.289  0.00  0.00    +0.000 A 
ATOM     29  C   UNL     1      -2.102   4.347  24.097  0.00  0.00    +0.000 A 
ATOM     30  C   UNL     1      -2.069   5.053  25.299  0.00  0.00    +0.000 A 
ENDBRANCH  24  25
ENDBRANCH   8  24
ENDBRANCH  19  21
ENDBRANCH  17  19
ENDBRANCH  13  17
TORSDOF 7
ENDMDL
MODEL 7
REMARK VINA RESULT:      -0.5      2.191      6.983
REMARK  Name = 45360959
REMARK  8 active torsions:
REMARK  status: ('A' for Active; 'I' for Inactive)
REMARK    1  A    between atoms: N_3  and  C_18
REMARK    2  A    between atoms: N_4  and  C_16
REMARK    3  A    between atoms: N_8  and  C_24
REMARK    4  A    between atoms: C_13  and  C_17
REMARK    5  A    between atoms: C_16  and  C_20
REMARK    6  A    between atoms: C_17  and  C_19
REMARK    7  A    between atoms: C_19  and  C_21
REMARK    8  A    between atoms: C_24  and  C_25
REMARK                            x       y       z     vdW  Elec       q    Type
REMARK                         _______ _______ _______ _____ _____    ______ ____
ROOT
ATOM      1  O   UNL     1      -2.820   2.397  22.828  0.00  0.00    -0.274 OA
ATOM      3  N   UNL     1      -2.525  -1.022  24.620  0.00  0.00    -0.296 NA
ATOM      4  N   UNL     1      -4.859   1.793  24.493  0.00  0.00    -0.283 NA
ATOM      5  N   UNL     1      -1.195   1.497  24.164  0.00  0.00    -0.312 N 
ATOM      9  C   UNL     1      -3.592  -0.161  25.176  0.00  0.00    +0.084 C 
ATOM     10  C   UNL     1      -3.513   1.374  24.926  0.00  0.00    +0.161 C 
ATOM     11  C   UNL     1      -5.002  -0.499  24.657  0.00  0.00    +0.036 C 
ATOM     12  C   UNL     1      -5.791   0.763  24.936  0.00  0.00    +0.087 C 
ATOM     13  C   UNL     1      -1.168  -0.762  25.179  0.00  0.00    +0.074 C 
ATOM     14  C   UNL     1      -2.508   1.802  23.859  0.00  0.00    +0.232 C 
ATOM     15  C   UNL     1      -0.803   0.728  25.329  0.00  0.00    +0.123 C 
ATOM     18  C   UNL     1      -2.872  -2.446  24.765  0.00  0.00    +0.105 C 
ATOM     31  H   UNL     1      -0.473   1.777  23.507  0.00  0.00    +0.149 HD
ENDROOT
BRANCH   4  16
ATOM     16  C   UNL     1      -5.234   3.116  24.977  0.00  0.00    +0.159 C 
BRANCH  16  20
ATOM      6  N   UNL     1      -3.331   4.668  24.497  0.00  0.00    -0.347 N 
ATOM      7  N   UNL     1      -3.539   4.016  26.609  0.00  0.00    -0.239 NA
ATOM     20  C   UNL     1      -4.039   3.921  25.397  0.00  0.00    +0.121 A 
ATOM     22  C   UNL     1      -2.316   5.278  25.178  0.00  0.00    +0.104 A 
ATOM     23  C   UNL     1      -2.464   4.859  26.480  0.00  0.00    +0.130 A 
ATOM     32  H   UNL     1      -3.524   4.756  23.508  0.00  0.00    +0.167 HD
ENDBRANCH  16  20
ENDBRANCH   4  16
BRANCH  13  17
ATOM     17  C   UNL     1      -0.086  -1.419  24.297  0.00  0.00    +0.029 C 
BRANCH  17  19
ATOM     19  C   UNL     1      -0.294  -1.062  22.837  0.00  0.00    +0.097 C 
BRANCH  19  21
ATOM      2  O   UNL     1       1.313  -0.664  21.070  0.00  0.00    -0.276 OA
ATOM      8  N   UNL     1       1.627   0.354  23.133  0.00  0.00    -0.311 N 
ATOM     21  C   UNL     1       0.956  -0.454  22.226  0.00  0.00    +0.213 C 
ATOM     33  H   UNL     1       1.248   0.484  24.067  0.00  0.00    +0.149 HD
BRANCH   8  24
ATOM     24  C   UNL     1       2.848   1.046  22.792  0.00  0.00    +0.139 C 
BRANCH  24  25
ATOM     25  C   UNL     1       4.064   0.306  23.269  0.00  0.00    -0.030 A 
ATOM     26  C   UNL     1       5.271   0.984  23.436  0.00  0.00    +0.005 A 
ATOM     27  C   UNL     1       3.986  -1.060  23.543  0.00  0.00    +0.005 A 
ATOM     28  C   UNL     1       6.402   0.296  23.879  0.00  0.00    +0.000 A 
ATOM     29  C   UNL     1       5.117  -1.747  23.985  0.00  0.00    +0.000 A 
ATOM     30  C   UNL     1       6.324  -1.069  24.153  0.00  0.00    +0.000 A 
ENDBRANCH  24  25
ENDBRANCH   8  24
ENDBRANCH  19  21
ENDBRANCH  17  19
ENDBRANCH  13  17
TORSDOF 7
ENDMDL
MODEL 8
REMARK VINA RESULT:      -0.2      2.170      3.651
REMARK  Name = 45360959
REMARK  8 active torsions:
REMARK  status: ('A' for Active; 'I' for Inactive)
REMARK    1  A    between atoms: N_3  and  C_18
REMARK    2  A    between atoms: N_4  and  C_16
REMARK    3  A    between atoms: N_8  and  C_24
REMARK    4  A    between atoms: C_13  and  C_17
REMARK    5  A    between atoms: C_16  and  C_20
REMARK    6  A    between atoms: C_17  and  C_19
REMARK    7  A    between atoms: C_19  and  C_21
REMARK    8  A    between atoms: C_24  and  C_25
REMARK                            x       y       z     vdW  Elec       q    Type
REMARK                         _______ _______ _______ _____ _____    ______ ____
ROOT
ATOM      1  O   UNL     1      -1.777   3.011  27.489  0.00  0.00    -0.274 OA
ATOM      3  N   UNL     1      -2.635   2.484  23.751  0.00  0.00    -0.296 NA
ATOM      4  N   UNL     1       0.341   2.550  25.879  0.00  0.00    -0.283 NA
ATOM      5  N   UNL     1      -2.905   4.303  25.974  0.00  0.00    -0.312 N 
ATOM      9  C   UNL     1      -1.189   2.671  23.998  0.00  0.00    +0.084 C 
ATOM     10  C   UNL     1      -0.745   3.373  25.315  0.00  0.00    +0.161 C 
ATOM     11  C   UNL     1      -0.389   1.355  24.052  0.00  0.00    +0.036 C 
ATOM     12  C   UNL     1       0.876   1.742  24.789  0.00  0.00    +0.087 C 
ATOM     13  C   UNL     1      -3.405   3.752  23.612  0.00  0.00    +0.074 C 
ATOM     14  C   UNL     1      -1.839   3.517  26.369  0.00  0.00    +0.232 C 
ATOM     15  C   UNL     1      -3.046   4.845  24.637  0.00  0.00    +0.123 C 
ATOM     18  C   UNL     1      -2.859   1.620  22.579  0.00  0.00    +0.105 C 
ATOM     31  H   UNL     1      -3.658   4.458  26.639  0.00  0.00    +0.149 HD
ENDROOT
BRANCH   4  16
ATOM     16  C   UNL     1       1.377   3.335  26.538  0.00  0.00    +0.159 C 
BRANCH  16  20
ATOM      6  N   UNL     1       0.650   2.345  28.718  0.00  0.00    -0.347 N 
ATOM      7  N   UNL     1       2.808   2.840  28.552  0.00  0.00    -0.239 NA
ATOM     20  C   UNL     1       1.649   2.849  27.932  0.00  0.00    +0.121 A 
ATOM     22  C   UNL     1       1.208   1.993  29.915  0.00  0.00    +0.104 A 
ATOM     23  C   UNL     1       2.541   2.308  29.788  0.00  0.00    +0.130 A 
ATOM     32  H   UNL     1      -0.324   2.249  28.462  0.00  0.00    +0.167 HD
ENDBRANCH  16  20
ENDBRANCH   4  16
BRANCH  13  17
ATOM     17  C   UNL     1      -4.919   3.480  23.734  0.00  0.00    +0.029 C 
BRANCH  17  19
ATOM     19  C   UNL     1      -5.337   3.412  25.191  0.00  0.00    +0.097 C 
BRANCH  19  21
ATOM      2  O   UNL     1      -6.308   1.690  26.589  0.00  0.00    -0.276 OA
ATOM      8  N   UNL     1      -4.927   1.070  24.829  0.00  0.00    -0.311 N 
ATOM     21  C   UNL     1      -5.594   1.982  25.633  0.00  0.00    +0.213 C 
ATOM     33  H   UNL     1      -4.370   1.403  24.046  0.00  0.00    +0.149 HD
BRANCH   8  24
ATOM     24  C   UNL     1      -5.010  -0.355  25.046  0.00  0.00    +0.139 C 
BRANCH  24  25
ATOM     25  C   UNL     1      -3.655  -0.999  25.073  0.00  0.00    -0.030 A 
ATOM     26  C   UNL     1      -2.653  -0.482  25.894  0.00  0.00    +0.005 A 
ATOM     27  C   UNL     1      -3.397  -2.115  24.276  0.00  0.00    +0.005 A 
ATOM     28  C   UNL     1      -1.392  -1.081  25.918  0.00  0.00    +0.000 A 
ATOM     29  C   UNL     1      -2.137  -2.712  24.300  0.00  0.00    +0.000 A 
ATOM     30  C   UNL     1      -1.135  -2.196  25.121  0.00  0.00    +0.000 A 
ENDBRANCH  24  25
ENDBRANCH   8  24
ENDBRANCH  19  21
ENDBRANCH  17  19
ENDBRANCH  13  17
TORSDOF 7
ENDMDL
MODEL 9
REMARK VINA RESULT:       0.5      1.721      2.433
REMARK  Name = 45360959
REMARK  8 active torsions:
REMARK  status: ('A' for Active; 'I' for Inactive)
REMARK    1  A    between atoms: N_3  and  C_18
REMARK    2  A    between atoms: N_4  and  C_16
REMARK    3  A    between atoms: N_8  and  C_24
REMARK    4  A    between atoms: C_13  and  C_17
REMARK    5  A    between atoms: C_16  and  C_20
REMARK    6  A    between atoms: C_17  and  C_19
REMARK    7  A    between atoms: C_19  and  C_21
REMARK    8  A    between atoms: C_24  and  C_25
REMARK                            x       y       z     vdW  Elec       q    Type
REMARK                         _______ _______ _______ _____ _____    ______ ____
ROOT
ATOM      1  O   UNL     1      -1.139  -0.345  23.373  0.00  0.00    -0.274 OA
ATOM      3  N   UNL     1      -0.437   3.207  24.744  0.00  0.00    -0.296 NA
ATOM      4  N   UNL     1       1.414   0.499  23.122  0.00  0.00    -0.283 NA
ATOM      5  N   UNL     1      -1.462   0.600  25.432  0.00  0.00    -0.312 N 
ATOM      9  C   UNL     1       0.794   2.449  24.428  0.00  0.00    +0.084 C 
ATOM     10  C   UNL     1       0.711   0.896  24.356  0.00  0.00    +0.161 C 
ATOM     11  C   UNL     1       1.410   2.800  23.060  0.00  0.00    +0.036 C 
ATOM     12  C   UNL     1       2.289   1.606  22.753  0.00  0.00    +0.087 C 
ATOM     13  C   UNL     1      -0.995   2.939  26.099  0.00  0.00    +0.074 C 
ATOM     14  C   UNL     1      -0.705   0.328  24.309  0.00  0.00    +0.232 C 
ATOM     15  C   UNL     1      -1.010   1.455  26.512  0.00  0.00    +0.123 C 
ATOM     18  C   UNL     1      -0.224   4.653  24.556  0.00  0.00    +0.105 C 
ATOM     31  H   UNL     1      -2.407   0.230  25.475  0.00  0.00    +0.149 HD
ENDROOT
BRANCH   4  16
ATOM     16  C   UNL     1       2.144  -0.756  23.252  0.00  0.00    +0.159 C 
BRANCH  16  20
ATOM      6  N   UNL     1       4.404  -1.436  24.082  0.00  0.00    -0.347 N 
ATOM      7  N   UNL     1       4.317   0.489  22.979  0.00  0.00    -0.239 NA
ATOM     20  C   UNL     1       3.619  -0.534  23.419  0.00  0.00    +0.121 A 
ATOM     22  C   UNL     1       5.684  -0.957  24.064  0.00  0.00    +0.104 A 
ATOM     23  C   UNL     1       5.605   0.232  23.378  0.00  0.00    +0.130 A 
ATOM     32  H   UNL     1       4.096  -2.301  24.508  0.00  0.00    +0.167 HD
ENDBRANCH  16  20
ENDBRANCH   4  16
BRANCH  13  17
ATOM     17  C   UNL     1      -2.442   3.464  26.200  0.00  0.00    +0.029 C 
BRANCH  17  19
ATOM     19  C   UNL     1      -2.985   3.811  24.826  0.00  0.00    +0.097 C 
BRANCH  19  21
ATOM      2  O   UNL     1      -3.359   2.218  23.041  0.00  0.00    -0.276 OA
ATOM      8  N   UNL     1      -4.605   2.042  24.992  0.00  0.00    -0.311 N 
ATOM     21  C   UNL     1      -3.647   2.614  24.167  0.00  0.00    +0.213 C 
ATOM     33  H   UNL     1      -4.766   2.428  25.918  0.00  0.00    +0.149 HD
BRANCH   8  24
ATOM     24  C   UNL     1      -5.378   0.889  24.592  0.00  0.00    +0.139 C 
BRANCH  24  25
ATOM     25  C   UNL     1      -4.606  -0.388  24.755  0.00  0.00    -0.030 A 
ATOM     26  C   UNL     1      -4.530  -1.296  23.700  0.00  0.00    +0.005 A 
ATOM     27  C   UNL     1      -3.965  -0.666  25.962  0.00  0.00    +0.005 A 
ATOM     28  C   UNL     1      -3.813  -2.484  23.851  0.00  0.00    +0.000 A 
ATOM     29  C   UNL     1      -3.249  -1.853  26.114  0.00  0.00    +0.000 A 
ATOM     30  C   UNL     1      -3.173  -2.762  25.059  0.00  0.00    +0.000 A 
ENDBRANCH  24  25
ENDBRANCH   8  24
ENDBRANCH  19  21
ENDBRANCH  17  19
ENDBRANCH  13  17
TORSDOF 7
ENDMDL
