MODEL 1
REMARK VINA RESULT:      10.4      0.000      0.000
REMARK  Name = 40777681
REMARK  7 active torsions:
REMARK  status: ('A' for Active; 'I' for Inactive)
REMARK    1  A    between atoms: N_5  and  C_9
REMARK    2  A    between atoms: N_6  and  C_25
REMARK    3  A    between atoms: C_8  and  C_17
REMARK    4  A    between atoms: C_12  and  C_18
REMARK    5  A    between atoms: C_21  and  C_23
REMARK    6  A    between atoms: C_22  and  C_24
REMARK    7  A    between atoms: C_30  and  C_31
REMARK                            x       y       z     vdW  Elec       q    Type
REMARK                         _______ _______ _______ _____ _____    ______ ____
ROOT
ATOM      6  N   UNL     1       1.583  -0.382  23.649  0.00  0.00    -0.236 N 
ATOM      7  N   UNL     1       0.926  -1.549  23.752  0.00  0.00    -0.171 NA
ATOM     18  C   UNL     1      -0.510   0.227  23.781  0.00  0.00    +0.003 A 
ATOM     21  C   UNL     1       0.769   0.713  23.661  0.00  0.00    +0.046 A 
ATOM     22  C   UNL     1      -0.352  -1.171  23.833  0.00  0.00    +0.064 A 
ATOM     23  C   UNL     1       1.272   2.098  23.561  0.00  0.00    +0.066 C 
ATOM     24  C   UNL     1      -1.405  -2.195  23.961  0.00  0.00    +0.068 C 
ENDROOT
BRANCH   6  25
ATOM     25  C   UNL     1       2.975  -0.379  23.542  0.00  0.00    +0.066 A 
ATOM     26  C   UNL     1       3.709  -1.492  23.954  0.00  0.00    +0.028 A 
ATOM     27  C   UNL     1       3.632   0.739  23.026  0.00  0.00    +0.028 A 
ATOM     28  C   UNL     1       5.099  -1.486  23.851  0.00  0.00    +0.014 A 
ATOM     29  C   UNL     1       5.023   0.743  22.924  0.00  0.00    +0.014 A 
ATOM     30  C   UNL     1       5.756  -0.369  23.336  0.00  0.00    +0.055 A 
BRANCH  30  31
ATOM      1  F   UNL     1       7.720  -1.128  22.198  0.00  0.00    -0.166 F 
ATOM      2  F   UNL     1       7.855  -0.840  24.350  0.00  0.00    -0.166 F 
ATOM      3  F   UNL     1       7.774   0.878  23.020  0.00  0.00    -0.166 F 
ATOM     31  C   UNL     1       7.244  -0.364  23.227  0.00  0.00    +0.417 C 
ENDBRANCH  30  31
ENDBRANCH   6  25
BRANCH  18  12
ATOM      9  C   UNL     1      -2.593   3.340  23.878  0.00  0.00    +0.097 C 
ATOM     12  C   UNL     1      -1.796   1.019  23.844  0.00  0.00    +0.047 C 
ATOM     13  C   UNL     1      -1.650   2.361  24.590  0.00  0.00    +0.039 C 
ATOM     19  C   UNL     1      -2.771   2.711  22.535  0.00  0.00    -0.009 C 
ATOM     20  C   UNL     1      -2.335   1.446  22.511  0.00  0.00    -0.021 C 
BRANCH   9   5
ATOM      4  O   UNL     1      -3.115   4.047  26.641  0.00  0.00    -0.275 OA
ATOM      5  N   UNL     1      -3.874   3.447  24.523  0.00  0.00    -0.309 N 
ATOM     17  C   UNL     1      -4.025   3.793  25.856  0.00  0.00    +0.217 C 
ATOM     32  H   UNL     1      -4.703   3.333  23.947  0.00  0.00    +0.149 HD
BRANCH  17   8
ATOM      8  C   UNL     1      -5.467   3.856  26.266  0.00  0.00    +0.075 C 
ATOM     10  C   UNL     1      -5.820   2.647  27.136  0.00  0.00    +0.013 C 
ATOM     11  C   UNL     1      -6.380   3.994  25.046  0.00  0.00    +0.013 C 
ATOM     14  C   UNL     1      -5.987   1.359  26.331  0.00  0.00    +0.001 C 
ATOM     15  C   UNL     1      -6.559   2.690  24.269  0.00  0.00    +0.001 C 
ATOM     16  C   UNL     1      -6.970   1.538  25.180  0.00  0.00    +0.000 C 
ENDBRANCH  17   8
ENDBRANCH   9   5
ENDBRANCH  18  12
TORSDOF 5
ENDMDL
MODEL 2
REMARK VINA RESULT:      12.6      1.306      2.092
REMARK  Name = 40777681
REMARK  7 active torsions:
REMARK  status: ('A' for Active; 'I' for Inactive)
REMARK    1  A    between atoms: N_5  and  C_9
REMARK    2  A    between atoms: N_6  and  C_25
REMARK    3  A    between atoms: C_8  and  C_17
REMARK    4  A    between atoms: C_12  and  C_18
REMARK    5  A    between atoms: C_21  and  C_23
REMARK    6  A    between atoms: C_22  and  C_24
REMARK    7  A    between atoms: C_30  and  C_31
REMARK                            x       y       z     vdW  Elec       q    Type
REMARK                         _______ _______ _______ _____ _____    ______ ____
ROOT
ATOM      6  N   UNL     1       1.397  -0.654  23.848  0.00  0.00    -0.236 N 
ATOM      7  N   UNL     1       0.791  -1.846  23.717  0.00  0.00    -0.171 NA
ATOM     18  C   UNL     1      -0.704  -0.194  24.223  0.00  0.00    +0.003 A 
ATOM     21  C   UNL     1       0.546   0.368  24.151  0.00  0.00    +0.046 A 
ATOM     22  C   UNL     1      -0.493  -1.559  23.947  0.00  0.00    +0.064 A 
ATOM     23  C   UNL     1       0.990   1.763  24.343  0.00  0.00    +0.066 C 
ATOM     24  C   UNL     1      -1.497  -2.636  23.893  0.00  0.00    +0.068 C 
ENDROOT
BRANCH   6  25
ATOM     25  C   UNL     1       2.779  -0.558  23.673  0.00  0.00    +0.066 A 
ATOM     26  C   UNL     1       3.610  -1.594  24.101  0.00  0.00    +0.028 A 
ATOM     27  C   UNL     1       3.329   0.576  23.074  0.00  0.00    +0.028 A 
ATOM     28  C   UNL     1       4.990  -1.495  23.929  0.00  0.00    +0.014 A 
ATOM     29  C   UNL     1       4.710   0.674  22.903  0.00  0.00    +0.014 A 
ATOM     30  C   UNL     1       5.540  -0.362  23.330  0.00  0.00    +0.055 A 
BRANCH  30  31
ATOM      1  F   UNL     1       7.476  -0.890  22.027  0.00  0.00    -0.166 F 
ATOM      2  F   UNL     1       7.714  -0.801  24.187  0.00  0.00    -0.166 F 
ATOM      3  F   UNL     1       7.465   1.028  23.039  0.00  0.00    -0.166 F 
ATOM     31  C   UNL     1       7.017  -0.257  23.148  0.00  0.00    +0.417 C 
ENDBRANCH  30  31
ENDBRANCH   6  25
BRANCH  18  12
ATOM      9  C   UNL     1      -3.979   1.425  23.392  0.00  0.00    +0.097 C 
ATOM     12  C   UNL     1      -2.012   0.498  24.531  0.00  0.00    +0.047 C 
ATOM     13  C   UNL     1      -2.447   1.494  23.437  0.00  0.00    +0.039 C 
ATOM     19  C   UNL     1      -4.269   0.095  24.007  0.00  0.00    -0.009 C 
ATOM     20  C   UNL     1      -3.199  -0.416  24.626  0.00  0.00    -0.021 C 
BRANCH   9   5
ATOM      4  O   UNL     1      -6.361   1.182  25.026  0.00  0.00    -0.275 OA
ATOM      5  N   UNL     1      -4.606   2.454  24.178  0.00  0.00    -0.309 N 
ATOM     17  C   UNL     1      -5.749   2.242  24.930  0.00  0.00    +0.217 C 
ATOM     32  H   UNL     1      -4.140   3.355  24.233  0.00  0.00    +0.149 HD
BRANCH  17   8
ATOM      8  C   UNL     1      -6.178   3.476  25.670  0.00  0.00    +0.075 C 
ATOM     10  C   UNL     1      -5.855   4.723  24.845  0.00  0.00    +0.013 C 
ATOM     11  C   UNL     1      -5.564   3.518  27.071  0.00  0.00    +0.013 C 
ATOM     14  C   UNL     1      -4.372   5.089  24.867  0.00  0.00    +0.001 C 
ATOM     15  C   UNL     1      -4.087   3.912  27.076  0.00  0.00    +0.001 C 
ATOM     16  C   UNL     1      -3.839   5.195  26.291  0.00  0.00    +0.000 C 
ENDBRANCH  17   8
ENDBRANCH   9   5
ENDBRANCH  18  12
TORSDOF 5
ENDMDL
