MODEL 1
REMARK VINA RESULT:       3.4      0.000      0.000
REMARK  Name = 11879581
REMARK  10 active torsions:
REMARK  status: ('A' for Active; 'I' for Inactive)
REMARK    1  A    between atoms: S_1  and  N_7
REMARK    2  A    between atoms: S_1  and  C_21
REMARK    3  A    between atoms: O_4  and  C_20
REMARK    4  A    between atoms: O_4  and  C_24
REMARK    5  A    between atoms: N_7  and  C_16
REMARK    6  A    between atoms: N_8  and  C_17
REMARK    7  A    between atoms: N_12  and  C_31
REMARK    8  A    between atoms: N_12  and  C_34
REMARK    9  A    between atoms: N_12  and  C_35
REMARK   10  A    between atoms: C_22  and  C_29
REMARK                            x       y       z     vdW  Elec       q    Type
REMARK                         _______ _______ _______ _____ _____    ______ ____
ROOT
ATOM      2  O   UNL     1      -2.373  -2.718  23.817  0.00  0.00    -0.370 OA
ATOM      3  O   UNL     1      -1.390  -0.989  26.271  0.00  0.00    -0.370 OA
ATOM     14  C   UNL     1      -2.298  -0.767  25.180  0.00  0.00    +0.170 C 
ATOM     15  C   UNL     1      -1.719  -1.444  23.953  0.00  0.00    +0.175 C 
ATOM     16  C   UNL     1      -3.599  -1.493  25.430  0.00  0.00    +0.133 C 
ATOM     17  C   UNL     1      -0.251  -1.650  24.280  0.00  0.00    +0.171 C 
ATOM     18  C   UNL     1      -3.325  -2.876  24.877  0.00  0.00    +0.183 C 
ATOM     19  C   UNL     1      -0.247  -1.719  25.803  0.00  0.00    +0.190 C 
ENDROOT
BRANCH  17   8
ATOM      8  N   UNL     1       0.604  -0.610  23.703  0.00  0.00    -0.187 N 
ATOM      9  N   UNL     1       1.379  -0.867  22.645  0.00  0.00    -0.041 NA
ATOM     10  N   UNL     1       1.625   1.250  23.296  0.00  0.00    -0.071 NA
ATOM     11  N   UNL     1       2.002   0.278  22.398  0.00  0.00    -0.020 NA
ATOM     20  C   UNL     1       0.757   0.677  24.096  0.00  0.00    +0.342 A 
BRANCH  20   4
ATOM      4  O   UNL     1       0.132   1.237  25.114  0.00  0.00    -0.423 OA
BRANCH   4  24
ATOM     24  C   UNL     1      -0.338   2.544  25.075  0.00  0.00    +0.134 A 
ATOM     28  C   UNL     1      -1.377   2.906  25.909  0.00  0.00    +0.069 A 
ATOM     30  C   UNL     1       0.249   3.441  24.205  0.00  0.00    +0.046 A 
ATOM     31  C   UNL     1      -1.849   4.219  25.870  0.00  0.00    +0.033 A 
ATOM     32  C   UNL     1      -0.223   4.754  24.166  0.00  0.00    +0.005 A 
ATOM     33  C   UNL     1      -1.272   5.142  24.999  0.00  0.00    +0.023 A 
BRANCH  31  12
ATOM     12  N   UNL     1      -2.911   4.611  26.712  0.00  0.00    -0.336 N 
ATOM     34  C   UNL     1      -3.332   3.760  27.807  0.00  0.00    +0.129 C 
ATOM     35  C   UNL     1      -3.587   5.875  26.501  0.00  0.00    +0.129 C 
ENDBRANCH  31  12
ENDBRANCH   4  24
ENDBRANCH  20   4
ENDBRANCH  17   8
BRANCH  16   7
ATOM      7  N   UNL     1      -4.690  -0.853  24.656  0.00  0.00    -0.182 NA
ATOM     36  H   UNL     1      -4.910  -1.242  23.732  0.00  0.00    +0.148 HD
BRANCH   7   1
ATOM      1  S   UNL     1      -5.258   0.681  25.108  0.00  0.00    +0.060 S 
ATOM      5  O   UNL     1      -4.838   0.970  26.466  0.00  0.00    -0.153 OA
ATOM      6  O   UNL     1      -6.656   0.788  24.739  0.00  0.00    -0.153 OA
BRANCH   1  21
ATOM     21  C   UNL     1      -4.354   1.741  24.020  0.00  0.00    +0.123 A 
ATOM     22  C   UNL     1      -4.549   3.114  24.024  0.00  0.00    +0.078 A 
ATOM     23  C   UNL     1      -3.439   1.150  23.160  0.00  0.00    +0.030 A 
ATOM     25  C   UNL     1      -3.814   3.914  23.150  0.00  0.00    +0.021 A 
ATOM     26  C   UNL     1      -2.704   1.950  22.285  0.00  0.00    +0.002 A 
ATOM     27  C   UNL     1      -2.891   3.333  22.280  0.00  0.00    +0.001 A 
BRANCH  22  29
ATOM     13  N   UNL     1      -6.247   4.255  25.615  0.00  0.00    -0.191 NA
ATOM     29  C   UNL     1      -5.488   3.744  24.903  0.00  0.00    +0.101 C 
ENDBRANCH  22  29
ENDBRANCH   1  21
ENDBRANCH   7   1
ENDBRANCH  16   7
TORSDOF 8
ENDMDL
MODEL 2
REMARK VINA RESULT:       3.7      2.159      5.813
REMARK  Name = 11879581
REMARK  10 active torsions:
REMARK  status: ('A' for Active; 'I' for Inactive)
REMARK    1  A    between atoms: S_1  and  N_7
REMARK    2  A    between atoms: S_1  and  C_21
REMARK    3  A    between atoms: O_4  and  C_20
REMARK    4  A    between atoms: O_4  and  C_24
REMARK    5  A    between atoms: N_7  and  C_16
REMARK    6  A    between atoms: N_8  and  C_17
REMARK    7  A    between atoms: N_12  and  C_31
REMARK    8  A    between atoms: N_12  and  C_34
REMARK    9  A    between atoms: N_12  and  C_35
REMARK   10  A    between atoms: C_22  and  C_29
REMARK                            x       y       z     vdW  Elec       q    Type
REMARK                         _______ _______ _______ _____ _____    ______ ____
ROOT
ATOM      2  O   UNL     1      -4.845   2.710  26.331  0.00  0.00    -0.370 OA
ATOM      3  O   UNL     1      -4.279   2.898  23.229  0.00  0.00    -0.370 OA
ATOM     14  C   UNL     1      -3.971   1.940  24.254  0.00  0.00    +0.170 C 
ATOM     15  C   UNL     1      -3.654   2.707  25.522  0.00  0.00    +0.175 C 
ATOM     16  C   UNL     1      -5.201   1.135  24.599  0.00  0.00    +0.133 C 
ATOM     17  C   UNL     1      -3.345   4.118  25.056  0.00  0.00    +0.171 C 
ATOM     18  C   UNL     1      -5.881   1.990  25.649  0.00  0.00    +0.183 C 
ATOM     19  C   UNL     1      -4.127   4.225  23.751  0.00  0.00    +0.190 C 
ENDROOT
BRANCH  17   8
ATOM      8  N   UNL     1      -1.906   4.367  24.939  0.00  0.00    -0.187 N 
ATOM      9  N   UNL     1      -1.424   5.614  24.934  0.00  0.00    -0.041 NA
ATOM     10  N   UNL     1       0.233   4.136  24.743  0.00  0.00    -0.071 NA
ATOM     11  N   UNL     1      -0.111   5.467  24.815  0.00  0.00    -0.020 NA
ATOM     20  C   UNL     1      -0.897   3.473  24.822  0.00  0.00    +0.342 A 
BRANCH  20   4
ATOM      4  O   UNL     1      -1.046   2.162  24.793  0.00  0.00    -0.423 OA
BRANCH   4  24
ATOM     24  C   UNL     1      -0.370   1.353  23.889  0.00  0.00    +0.134 A 
ATOM     28  C   UNL     1       1.001   1.227  23.999  0.00  0.00    +0.069 A 
ATOM     30  C   UNL     1      -1.089   0.697  22.909  0.00  0.00    +0.046 A 
ATOM     31  C   UNL     1       1.680   0.414  23.091  0.00  0.00    +0.033 A 
ATOM     32  C   UNL     1      -0.410  -0.117  22.002  0.00  0.00    +0.005 A 
ATOM     33  C   UNL     1       0.974  -0.258  22.093  0.00  0.00    +0.023 A 
BRANCH  31  12
ATOM     12  N   UNL     1       3.080   0.272  23.183  0.00  0.00    -0.336 N 
ATOM     34  C   UNL     1       3.663  -0.970  23.650  0.00  0.00    +0.129 C 
ATOM     35  C   UNL     1       3.956   1.361  22.799  0.00  0.00    +0.129 C 
ENDBRANCH  31  12
ENDBRANCH   4  24
ENDBRANCH  20   4
ENDBRANCH  17   8
BRANCH  16   7
ATOM      7  N   UNL     1      -4.804  -0.163  25.195  0.00  0.00    -0.182 NA
ATOM     36  H   UNL     1      -4.765  -0.226  26.219  0.00  0.00    +0.148 HD
BRANCH   7   1
ATOM      1  S   UNL     1      -4.067  -1.346  24.226  0.00  0.00    +0.060 S 
ATOM      5  O   UNL     1      -3.880  -0.824  22.886  0.00  0.00    -0.153 OA
ATOM      6  O   UNL     1      -4.753  -2.608  24.427  0.00  0.00    -0.153 OA
BRANCH   1  21
ATOM     21  C   UNL     1      -2.476  -1.498  24.981  0.00  0.00    +0.123 A 
ATOM     22  C   UNL     1      -1.578  -2.477  24.580  0.00  0.00    +0.078 A 
ATOM     23  C   UNL     1      -2.155  -0.600  25.989  0.00  0.00    +0.030 A 
ATOM     25  C   UNL     1      -0.332  -2.560  25.201  0.00  0.00    +0.021 A 
ATOM     26  C   UNL     1      -0.908  -0.684  26.610  0.00  0.00    +0.002 A 
ATOM     27  C   UNL     1       0.003  -1.664  26.217  0.00  0.00    +0.001 A 
BRANCH  22  29
ATOM     13  N   UNL     1      -2.142  -4.171  22.702  0.00  0.00    -0.191 NA
ATOM     29  C   UNL     1      -1.889  -3.412  23.542  0.00  0.00    +0.101 C 
ENDBRANCH  22  29
ENDBRANCH   1  21
ENDBRANCH   7   1
ENDBRANCH  16   7
TORSDOF 8
ENDMDL
MODEL 3
REMARK VINA RESULT:       4.1      2.356      6.637
REMARK  Name = 11879581
REMARK  10 active torsions:
REMARK  status: ('A' for Active; 'I' for Inactive)
REMARK    1  A    between atoms: S_1  and  N_7
REMARK    2  A    between atoms: S_1  and  C_21
REMARK    3  A    between atoms: O_4  and  C_20
REMARK    4  A    between atoms: O_4  and  C_24
REMARK    5  A    between atoms: N_7  and  C_16
REMARK    6  A    between atoms: N_8  and  C_17
REMARK    7  A    between atoms: N_12  and  C_31
REMARK    8  A    between atoms: N_12  and  C_34
REMARK    9  A    between atoms: N_12  and  C_35
REMARK   10  A    between atoms: C_22  and  C_29
REMARK                            x       y       z     vdW  Elec       q    Type
REMARK                         _______ _______ _______ _____ _____    ______ ____
ROOT
ATOM      2  O   UNL     1      -3.424   4.484  23.561  0.00  0.00    -0.370 OA
ATOM      3  O   UNL     1      -3.188   4.736  26.701  0.00  0.00    -0.370 OA
ATOM     14  C   UNL     1      -2.595   3.882  25.710  0.00  0.00    +0.170 C 
ATOM     15  C   UNL     1      -3.651   3.587  24.663  0.00  0.00    +0.175 C 
ATOM     16  C   UNL     1      -1.518   4.628  24.958  0.00  0.00    +0.133 C 
ATOM     17  C   UNL     1      -4.969   3.920  25.337  0.00  0.00    +0.171 C 
ATOM     18  C   UNL     1      -2.294   5.315  23.853  0.00  0.00    +0.183 C 
ATOM     19  C   UNL     1      -4.567   4.960  26.377  0.00  0.00    +0.190 C 
ENDROOT
BRANCH  17   8
ATOM      8  N   UNL     1      -5.641   2.733  25.873  0.00  0.00    -0.187 N 
ATOM      9  N   UNL     1      -6.464   2.826  26.922  0.00  0.00    -0.041 NA
ATOM     10  N   UNL     1      -6.327   0.715  26.222  0.00  0.00    -0.071 NA
ATOM     11  N   UNL     1      -6.884   1.585  27.131  0.00  0.00    -0.020 NA
ATOM     20  C   UNL     1      -5.560   1.450  25.451  0.00  0.00    +0.342 A 
BRANCH  20   4
ATOM      4  O   UNL     1      -4.828   1.030  24.437  0.00  0.00    -0.423 OA
BRANCH   4  24
ATOM     24  C   UNL     1      -4.158  -0.186  24.450  0.00  0.00    +0.134 A 
ATOM     28  C   UNL     1      -2.937  -0.270  25.090  0.00  0.00    +0.069 A 
ATOM     30  C   UNL     1      -4.733  -1.275  23.825  0.00  0.00    +0.046 A 
ATOM     31  C   UNL     1      -2.263  -1.492  25.104  0.00  0.00    +0.033 A 
ATOM     32  C   UNL     1      -4.060  -2.497  23.839  0.00  0.00    +0.005 A 
ATOM     33  C   UNL     1      -2.825  -2.605  24.479  0.00  0.00    +0.023 A 
BRANCH  31  12
ATOM     12  N   UNL     1      -1.015  -1.601  25.750  0.00  0.00    -0.336 N 
ATOM     34  C   UNL     1       0.089  -2.283  25.104  0.00  0.00    +0.129 C 
ATOM     35  C   UNL     1      -0.814  -1.022  27.063  0.00  0.00    +0.129 C 
ENDBRANCH  31  12
ENDBRANCH   4  24
ENDBRANCH  20   4
ENDBRANCH  17   8
BRANCH  16   7
ATOM      7  N   UNL     1      -0.556   3.666  24.368  0.00  0.00    -0.182 NA
ATOM     36  H   UNL     1      -0.371   3.735  23.361  0.00  0.00    +0.148 HD
BRANCH   7   1
ATOM      1  S   UNL     1      -0.105   2.281  25.240  0.00  0.00    +0.060 S 
ATOM      5  O   UNL     1      -1.294   1.623  25.748  0.00  0.00    -0.153 OA
ATOM      6  O   UNL     1       0.977   2.629  26.141  0.00  0.00    -0.153 OA
BRANCH   1  21
ATOM     21  C   UNL     1       0.585   1.260  23.973  0.00  0.00    +0.123 A 
ATOM     22  C   UNL     1      -0.142   0.928  22.839  0.00  0.00    +0.078 A 
ATOM     23  C   UNL     1       1.883   0.803  24.151  0.00  0.00    +0.030 A 
ATOM     25  C   UNL     1       0.441   0.121  21.863  0.00  0.00    +0.021 A 
ATOM     26  C   UNL     1       2.466  -0.005  23.175  0.00  0.00    +0.002 A 
ATOM     27  C   UNL     1       1.745  -0.346  22.030  0.00  0.00    +0.001 A 
BRANCH  22  29
ATOM     13  N   UNL     1      -2.567   1.763  22.469  0.00  0.00    -0.191 NA
ATOM     29  C   UNL     1      -1.482   1.389  22.635  0.00  0.00    +0.101 C 
ENDBRANCH  22  29
ENDBRANCH   1  21
ENDBRANCH   7   1
ENDBRANCH  16   7
TORSDOF 8
ENDMDL
MODEL 4
REMARK VINA RESULT:       4.3      2.954      6.510
REMARK  Name = 11879581
REMARK  10 active torsions:
REMARK  status: ('A' for Active; 'I' for Inactive)
REMARK    1  A    between atoms: S_1  and  N_7
REMARK    2  A    between atoms: S_1  and  C_21
REMARK    3  A    between atoms: O_4  and  C_20
REMARK    4  A    between atoms: O_4  and  C_24
REMARK    5  A    between atoms: N_7  and  C_16
REMARK    6  A    between atoms: N_8  and  C_17
REMARK    7  A    between atoms: N_12  and  C_31
REMARK    8  A    between atoms: N_12  and  C_34
REMARK    9  A    between atoms: N_12  and  C_35
REMARK   10  A    between atoms: C_22  and  C_29
REMARK                            x       y       z     vdW  Elec       q    Type
REMARK                         _______ _______ _______ _____ _____    ______ ____
ROOT
ATOM      2  O   UNL     1      -1.372   2.141  23.857  0.00  0.00    -0.370 OA
ATOM      3  O   UNL     1      -0.383   0.061  26.018  0.00  0.00    -0.370 OA
ATOM     14  C   UNL     1      -0.129   0.259  24.618  0.00  0.00    +0.170 C 
ATOM     15  C   UNL     1      -1.425   0.707  23.973  0.00  0.00    +0.175 C 
ATOM     16  C   UNL     1       0.812   1.423  24.420  0.00  0.00    +0.133 C 
ATOM     17  C   UNL     1      -2.508   0.310  24.959  0.00  0.00    +0.171 C 
ATOM     18  C   UNL     1      -0.125   2.612  24.384  0.00  0.00    +0.183 C 
ATOM     19  C   UNL     1      -1.769   0.305  26.293  0.00  0.00    +0.190 C 
ENDROOT
BRANCH  17   8
ATOM      8  N   UNL     1      -3.153  -0.956  24.603  0.00  0.00    -0.187 N 
ATOM      9  N   UNL     1      -2.493  -2.114  24.701  0.00  0.00    -0.041 NA
ATOM     10  N   UNL     1      -4.566  -2.458  23.958  0.00  0.00    -0.071 NA
ATOM     11  N   UNL     1      -3.365  -3.033  24.306  0.00  0.00    -0.020 NA
ATOM     20  C   UNL     1      -4.412  -1.169  24.152  0.00  0.00    +0.342 A 
BRANCH  20   4
ATOM      4  O   UNL     1      -5.312  -0.227  23.945  0.00  0.00    -0.423 OA
BRANCH   4  24
ATOM     24  C   UNL     1      -5.345   0.950  24.681  0.00  0.00    +0.134 A 
ATOM     28  C   UNL     1      -4.493   1.981  24.333  0.00  0.00    +0.069 A 
ATOM     30  C   UNL     1      -6.227   1.057  25.738  0.00  0.00    +0.046 A 
ATOM     31  C   UNL     1      -4.525   3.164  25.072  0.00  0.00    +0.033 A 
ATOM     32  C   UNL     1      -6.260   2.240  26.476  0.00  0.00    +0.005 A 
ATOM     33  C   UNL     1      -5.409   3.293  26.143  0.00  0.00    +0.023 A 
BRANCH  31  12
ATOM     12  N   UNL     1      -3.664   4.228  24.735  0.00  0.00    -0.336 N 
ATOM     34  C   UNL     1      -2.672   4.697  25.682  0.00  0.00    +0.129 C 
ATOM     35  C   UNL     1      -3.750   4.860  23.433  0.00  0.00    +0.129 C 
ENDBRANCH  31  12
ENDBRANCH   4  24
ENDBRANCH  20   4
ENDBRANCH  17   8
BRANCH  16   7
ATOM      7  N   UNL     1       1.505   1.295  23.115  0.00  0.00    -0.182 NA
ATOM     36  H   UNL     1       1.508   2.113  22.494  0.00  0.00    +0.148 HD
BRANCH   7   1
ATOM      1  S   UNL     1       1.915  -0.243  22.525  0.00  0.00    +0.060 S 
ATOM      5  O   UNL     1       1.989  -0.200  21.077  0.00  0.00    -0.153 OA
ATOM      6  O   UNL     1       1.084  -1.233  23.183  0.00  0.00    -0.153 OA
BRANCH   1  21
ATOM     21  C   UNL     1       3.556  -0.449  23.149  0.00  0.00    +0.123 A 
ATOM     22  C   UNL     1       4.487   0.578  23.083  0.00  0.00    +0.078 A 
ATOM     23  C   UNL     1       3.881  -1.676  23.710  0.00  0.00    +0.030 A 
ATOM     25  C   UNL     1       5.770   0.374  23.588  0.00  0.00    +0.021 A 
ATOM     26  C   UNL     1       5.166  -1.880  24.215  0.00  0.00    +0.002 A 
ATOM     27  C   UNL     1       6.110  -0.855  24.154  0.00  0.00    +0.001 A 
BRANCH  22  29
ATOM     13  N   UNL     1       3.917   2.882  22.043  0.00  0.00    -0.191 NA
ATOM     29  C   UNL     1       4.172   1.851  22.509  0.00  0.00    +0.101 C 
ENDBRANCH  22  29
ENDBRANCH   1  21
ENDBRANCH   7   1
ENDBRANCH  16   7
TORSDOF 8
ENDMDL
MODEL 5
REMARK VINA RESULT:       4.6      2.131      5.737
REMARK  Name = 11879581
REMARK  10 active torsions:
REMARK  status: ('A' for Active; 'I' for Inactive)
REMARK    1  A    between atoms: S_1  and  N_7
REMARK    2  A    between atoms: S_1  and  C_21
REMARK    3  A    between atoms: O_4  and  C_20
REMARK    4  A    between atoms: O_4  and  C_24
REMARK    5  A    between atoms: N_7  and  C_16
REMARK    6  A    between atoms: N_8  and  C_17
REMARK    7  A    between atoms: N_12  and  C_31
REMARK    8  A    between atoms: N_12  and  C_34
REMARK    9  A    between atoms: N_12  and  C_35
REMARK   10  A    between atoms: C_22  and  C_29
REMARK                            x       y       z     vdW  Elec       q    Type
REMARK                         _______ _______ _______ _____ _____    ______ ____
ROOT
ATOM      2  O   UNL     1      -5.096   2.920  25.752  0.00  0.00    -0.370 OA
ATOM      3  O   UNL     1      -3.633   1.876  23.154  0.00  0.00    -0.370 OA
ATOM     14  C   UNL     1      -3.641   1.480  24.535  0.00  0.00    +0.170 C 
ATOM     15  C   UNL     1      -3.719   2.740  25.375  0.00  0.00    +0.175 C 
ATOM     16  C   UNL     1      -4.916   0.736  24.856  0.00  0.00    +0.133 C 
ATOM     17  C   UNL     1      -3.290   3.857  24.441  0.00  0.00    +0.171 C 
ATOM     18  C   UNL     1      -5.880   1.852  25.204  0.00  0.00    +0.183 C 
ATOM     19  C   UNL     1      -3.649   3.307  23.065  0.00  0.00    +0.190 C 
ENDROOT
BRANCH  17   8
ATOM      8  N   UNL     1      -1.882   4.223  24.615  0.00  0.00    -0.187 N 
ATOM      9  N   UNL     1      -1.501   5.504  24.607  0.00  0.00    -0.041 NA
ATOM     10  N   UNL     1       0.259   4.169  24.903  0.00  0.00    -0.071 NA
ATOM     11  N   UNL     1      -0.187   5.466  24.786  0.00  0.00    -0.020 NA
ATOM     20  C   UNL     1      -0.811   3.415  24.794  0.00  0.00    +0.342 A 
BRANCH  20   4
ATOM      4  O   UNL     1      -0.856   2.098  24.846  0.00  0.00    -0.423 OA
BRANCH   4  24
ATOM     24  C   UNL     1      -0.174   1.290  23.946  0.00  0.00    +0.134 A 
ATOM     28  C   UNL     1       1.206   1.245  23.998  0.00  0.00    +0.069 A 
ATOM     30  C   UNL     1      -0.895   0.556  23.025  0.00  0.00    +0.046 A 
ATOM     31  C   UNL     1       1.891   0.434  23.093  0.00  0.00    +0.033 A 
ATOM     32  C   UNL     1      -0.210  -0.257  22.120  0.00  0.00    +0.005 A 
ATOM     33  C   UNL     1       1.183  -0.317  22.155  0.00  0.00    +0.023 A 
BRANCH  31  12
ATOM     12  N   UNL     1       3.299   0.373  23.128  0.00  0.00    -0.336 N 
ATOM     34  C   UNL     1       3.971  -0.813  23.619  0.00  0.00    +0.129 C 
ATOM     35  C   UNL     1       4.094   1.492  22.661  0.00  0.00    +0.129 C 
ENDBRANCH  31  12
ENDBRANCH   4  24
ENDBRANCH  20   4
ENDBRANCH  17   8
BRANCH  16   7
ATOM      7  N   UNL     1      -4.708  -0.132  26.040  0.00  0.00    -0.182 NA
ATOM     36  H   UNL     1      -5.383  -0.056  26.810  0.00  0.00    +0.148 HD
BRANCH   7   1
ATOM      1  S   UNL     1      -3.215  -0.906  26.268  0.00  0.00    +0.060 S 
ATOM      5  O   UNL     1      -3.245  -1.656  27.509  0.00  0.00    -0.153 OA
ATOM      6  O   UNL     1      -2.152   0.049  26.019  0.00  0.00    -0.153 OA
BRANCH   1  21
ATOM     21  C   UNL     1      -3.194  -2.062  24.931  0.00  0.00    +0.123 A 
ATOM     22  C   UNL     1      -2.009  -2.636  24.493  0.00  0.00    +0.078 A 
ATOM     23  C   UNL     1      -4.407  -2.377  24.335  0.00  0.00    +0.030 A 
ATOM     25  C   UNL     1      -2.038  -3.545  23.435  0.00  0.00    +0.021 A 
ATOM     26  C   UNL     1      -4.435  -3.285  23.276  0.00  0.00    +0.002 A 
ATOM     27  C   UNL     1      -3.250  -3.869  22.827  0.00  0.00    +0.001 A 
BRANCH  22  29
ATOM     13  N   UNL     1       0.274  -2.074  25.581  0.00  0.00    -0.191 NA
ATOM     29  C   UNL     1      -0.748  -2.325  25.094  0.00  0.00    +0.101 C 
ENDBRANCH  22  29
ENDBRANCH   1  21
ENDBRANCH   7   1
ENDBRANCH  16   7
TORSDOF 8
ENDMDL
MODEL 6
REMARK VINA RESULT:       4.9      2.616      5.307
REMARK  Name = 11879581
REMARK  10 active torsions:
REMARK  status: ('A' for Active; 'I' for Inactive)
REMARK    1  A    between atoms: S_1  and  N_7
REMARK    2  A    between atoms: S_1  and  C_21
REMARK    3  A    between atoms: O_4  and  C_20
REMARK    4  A    between atoms: O_4  and  C_24
REMARK    5  A    between atoms: N_7  and  C_16
REMARK    6  A    between atoms: N_8  and  C_17
REMARK    7  A    between atoms: N_12  and  C_31
REMARK    8  A    between atoms: N_12  and  C_34
REMARK    9  A    between atoms: N_12  and  C_35
REMARK   10  A    between atoms: C_22  and  C_29
REMARK                            x       y       z     vdW  Elec       q    Type
REMARK                         _______ _______ _______ _____ _____    ______ ____
ROOT
ATOM      2  O   UNL     1      -2.323   3.222  26.603  0.00  0.00    -0.370 OA
ATOM      3  O   UNL     1       0.097   3.020  24.583  0.00  0.00    -0.370 OA
ATOM     14  C   UNL     1      -1.333   2.961  24.454  0.00  0.00    +0.170 C 
ATOM     15  C   UNL     1      -1.876   2.227  25.664  0.00  0.00    +0.175 C 
ATOM     16  C   UNL     1      -1.922   4.348  24.560  0.00  0.00    +0.133 C 
ATOM     17  C   UNL     1      -0.682   1.481  26.233  0.00  0.00    +0.171 C 
ATOM     18  C   UNL     1      -2.097   4.527  26.054  0.00  0.00    +0.183 C 
ATOM     19  C   UNL     1       0.500   2.325  25.771  0.00  0.00    +0.190 C 
ENDROOT
BRANCH  17   8
ATOM      8  N   UNL     1      -0.645   0.078  25.811  0.00  0.00    -0.187 N 
ATOM      9  N   UNL     1      -0.942  -0.904  26.668  0.00  0.00    -0.041 NA
ATOM     10  N   UNL     1      -0.427  -1.742  24.668  0.00  0.00    -0.071 NA
ATOM     11  N   UNL     1      -0.808  -2.019  25.962  0.00  0.00    -0.020 NA
ATOM     20  C   UNL     1      -0.333  -0.435  24.598  0.00  0.00    +0.342 A 
BRANCH  20   4
ATOM      4  O   UNL     1       0.008   0.276  23.540  0.00  0.00    -0.423 OA
BRANCH   4  24
ATOM     24  C   UNL     1       1.221   0.109  22.886  0.00  0.00    +0.134 A 
ATOM     28  C   UNL     1       2.390   0.157  23.621  0.00  0.00    +0.069 A 
ATOM     30  C   UNL     1       1.224  -0.101  21.521  0.00  0.00    +0.046 A 
ATOM     31  C   UNL     1       3.609  -0.011  22.963  0.00  0.00    +0.033 A 
ATOM     32  C   UNL     1       2.443  -0.270  20.864  0.00  0.00    +0.005 A 
ATOM     33  C   UNL     1       3.636  -0.224  21.586  0.00  0.00    +0.023 A 
BRANCH  31  12
ATOM     12  N   UNL     1       4.815   0.036  23.694  0.00  0.00    -0.336 N 
ATOM     34  C   UNL     1       5.372  -1.171  24.269  0.00  0.00    +0.129 C 
ATOM     35  C   UNL     1       5.520   1.291  23.868  0.00  0.00    +0.129 C 
ENDBRANCH  31  12
ENDBRANCH   4  24
ENDBRANCH  20   4
ENDBRANCH  17   8
BRANCH  16   7
ATOM      7  N   UNL     1      -3.246   4.385  23.894  0.00  0.00    -0.182 NA
ATOM     36  H   UNL     1      -3.982   4.956  24.328  0.00  0.00    +0.148 HD
BRANCH   7   1
ATOM      1  S   UNL     1      -3.630   3.229  22.712  0.00  0.00    +0.060 S 
ATOM      5  O   UNL     1      -2.437   2.897  21.957  0.00  0.00    -0.153 OA
ATOM      6  O   UNL     1      -4.837   3.647  22.025  0.00  0.00    -0.153 OA
BRANCH   1  21
ATOM     21  C   UNL     1      -4.059   1.826  23.699  0.00  0.00    +0.123 A 
ATOM     22  C   UNL     1      -4.882   1.950  24.809  0.00  0.00    +0.078 A 
ATOM     23  C   UNL     1      -3.542   0.594  23.324  0.00  0.00    +0.030 A 
ATOM     25  C   UNL     1      -5.196   0.817  25.560  0.00  0.00    +0.021 A 
ATOM     26  C   UNL     1      -3.856  -0.539  24.076  0.00  0.00    +0.002 A 
ATOM     27  C   UNL     1      -4.683  -0.427  25.194  0.00  0.00    +0.001 A 
BRANCH  22  29
ATOM     13  N   UNL     1      -5.866   4.233  25.541  0.00  0.00    -0.191 NA
ATOM     29  C   UNL     1      -5.426   3.211  25.213  0.00  0.00    +0.101 C 
ENDBRANCH  22  29
ENDBRANCH   1  21
ENDBRANCH   7   1
ENDBRANCH  16   7
TORSDOF 8
ENDMDL
MODEL 7
REMARK VINA RESULT:       5.1      1.538      2.101
REMARK  Name = 11879581
REMARK  10 active torsions:
REMARK  status: ('A' for Active; 'I' for Inactive)
REMARK    1  A    between atoms: S_1  and  N_7
REMARK    2  A    between atoms: S_1  and  C_21
REMARK    3  A    between atoms: O_4  and  C_20
REMARK    4  A    between atoms: O_4  and  C_24
REMARK    5  A    between atoms: N_7  and  C_16
REMARK    6  A    between atoms: N_8  and  C_17
REMARK    7  A    between atoms: N_12  and  C_31
REMARK    8  A    between atoms: N_12  and  C_34
REMARK    9  A    between atoms: N_12  and  C_35
REMARK   10  A    between atoms: C_22  and  C_29
REMARK                            x       y       z     vdW  Elec       q    Type
REMARK                         _______ _______ _______ _____ _____    ______ ____
ROOT
ATOM      2  O   UNL     1      -2.187  -2.633  23.754  0.00  0.00    -0.370 OA
ATOM      3  O   UNL     1      -1.346  -0.952  26.292  0.00  0.00    -0.370 OA
ATOM     14  C   UNL     1      -2.196  -0.711  25.159  0.00  0.00    +0.170 C 
ATOM     15  C   UNL     1      -1.548  -1.359  23.951  0.00  0.00    +0.175 C 
ATOM     16  C   UNL     1      -3.504  -1.448  25.324  0.00  0.00    +0.133 C 
ATOM     17  C   UNL     1      -0.099  -1.565  24.352  0.00  0.00    +0.171 C 
ATOM     18  C   UNL     1      -3.193  -2.818  24.758  0.00  0.00    +0.183 C 
ATOM     19  C   UNL     1      -0.176  -1.666  25.871  0.00  0.00    +0.190 C 
ENDROOT
BRANCH  17   8
ATOM      8  N   UNL     1       0.779  -0.509  23.843  0.00  0.00    -0.187 N 
ATOM      9  N   UNL     1       1.993  -0.798  23.363  0.00  0.00    -0.041 NA
ATOM     10  N   UNL     1       1.611   1.395  23.251  0.00  0.00    -0.071 NA
ATOM     11  N   UNL     1       2.499   0.374  22.999  0.00  0.00    -0.020 NA
ATOM     20  C   UNL     1       0.551   0.824  23.774  0.00  0.00    +0.342 A 
BRANCH  20   4
ATOM      4  O   UNL     1      -0.554   1.425  24.171  0.00  0.00    -0.423 OA
BRANCH   4  24
ATOM     24  C   UNL     1      -0.638   2.117  25.372  0.00  0.00    +0.134 A 
ATOM     28  C   UNL     1       0.393   2.002  26.285  0.00  0.00    +0.069 A 
ATOM     30  C   UNL     1      -1.748   2.900  25.618  0.00  0.00    +0.046 A 
ATOM     31  C   UNL     1       0.308   2.697  27.492  0.00  0.00    +0.033 A 
ATOM     32  C   UNL     1      -1.833   3.596  26.825  0.00  0.00    +0.005 A 
ATOM     33  C   UNL     1      -0.804   3.494  27.761  0.00  0.00    +0.023 A 
BRANCH  31  12
ATOM     12  N   UNL     1       1.348   2.593  28.439  0.00  0.00    -0.336 N 
ATOM     34  C   UNL     1       2.718   2.873  28.058  0.00  0.00    +0.129 C 
ATOM     35  C   UNL     1       1.059   2.217  29.808  0.00  0.00    +0.129 C 
ENDBRANCH  31  12
ENDBRANCH   4  24
ENDBRANCH  20   4
ENDBRANCH  17   8
BRANCH  16   7
ATOM      7  N   UNL     1      -4.556  -0.797  24.507  0.00  0.00    -0.182 NA
ATOM     36  H   UNL     1      -4.708  -1.153  23.556  0.00  0.00    +0.148 HD
BRANCH   7   1
ATOM      1  S   UNL     1      -5.183   0.707  24.980  0.00  0.00    +0.060 S 
ATOM      5  O   UNL     1      -4.788   0.986  26.348  0.00  0.00    -0.153 OA
ATOM      6  O   UNL     1      -6.581   0.771  24.598  0.00  0.00    -0.153 OA
BRANCH   1  21
ATOM     21  C   UNL     1      -4.306   1.819  23.922  0.00  0.00    +0.123 A 
ATOM     22  C   UNL     1      -4.417   3.194  24.070  0.00  0.00    +0.078 A 
ATOM     23  C   UNL     1      -3.500   1.267  22.937  0.00  0.00    +0.030 A 
ATOM     25  C   UNL     1      -3.707   4.035  23.214  0.00  0.00    +0.021 A 
ATOM     26  C   UNL     1      -2.790   2.109  22.081  0.00  0.00    +0.002 A 
ATOM     27  C   UNL     1      -2.893   3.493  22.219  0.00  0.00    +0.001 A 
BRANCH  22  29
ATOM     13  N   UNL     1      -5.912   4.263  25.897  0.00  0.00    -0.191 NA
ATOM     29  C   UNL     1      -5.243   3.784  25.079  0.00  0.00    +0.101 C 
ENDBRANCH  22  29
ENDBRANCH   1  21
ENDBRANCH   7   1
ENDBRANCH  16   7
TORSDOF 8
ENDMDL
MODEL 8
REMARK VINA RESULT:       5.3      2.445      6.955
REMARK  Name = 11879581
REMARK  10 active torsions:
REMARK  status: ('A' for Active; 'I' for Inactive)
REMARK    1  A    between atoms: S_1  and  N_7
REMARK    2  A    between atoms: S_1  and  C_21
REMARK    3  A    between atoms: O_4  and  C_20
REMARK    4  A    between atoms: O_4  and  C_24
REMARK    5  A    between atoms: N_7  and  C_16
REMARK    6  A    between atoms: N_8  and  C_17
REMARK    7  A    between atoms: N_12  and  C_31
REMARK    8  A    between atoms: N_12  and  C_34
REMARK    9  A    between atoms: N_12  and  C_35
REMARK   10  A    between atoms: C_22  and  C_29
REMARK                            x       y       z     vdW  Elec       q    Type
REMARK                         _______ _______ _______ _____ _____    ______ ____
ROOT
ATOM      2  O   UNL     1      -1.640   3.159  23.564  0.00  0.00    -0.370 OA
ATOM      3  O   UNL     1      -1.897   4.002  26.597  0.00  0.00    -0.370 OA
ATOM     14  C   UNL     1      -1.494   2.804  25.913  0.00  0.00    +0.170 C 
ATOM     15  C   UNL     1      -2.377   2.651  24.691  0.00  0.00    +0.175 C 
ATOM     16  C   UNL     1      -0.102   2.969  25.352  0.00  0.00    +0.133 C 
ATOM     17  C   UNL     1      -3.577   3.540  24.965  0.00  0.00    +0.171 C 
ATOM     18  C   UNL     1      -0.354   3.613  24.005  0.00  0.00    +0.183 C 
ATOM     19  C   UNL     1      -3.012   4.591  25.915  0.00  0.00    +0.190 C 
ENDROOT
BRANCH  17   8
ATOM      8  N   UNL     1      -4.725   2.790  25.481  0.00  0.00    -0.187 N 
ATOM      9  N   UNL     1      -5.451   3.262  26.499  0.00  0.00    -0.041 NA
ATOM     10  N   UNL     1      -6.253   1.299  25.812  0.00  0.00    -0.071 NA
ATOM     11  N   UNL     1      -6.388   2.344  26.697  0.00  0.00    -0.020 NA
ATOM     20  C   UNL     1      -5.214   1.598  25.066  0.00  0.00    +0.342 A 
BRANCH  20   4
ATOM      4  O   UNL     1      -4.717   0.876  24.081  0.00  0.00    -0.423 OA
BRANCH   4  24
ATOM     24  C   UNL     1      -4.097  -0.349  24.290  0.00  0.00    +0.134 A 
ATOM     28  C   UNL     1      -2.940  -0.394  25.043  0.00  0.00    +0.069 A 
ATOM     30  C   UNL     1      -4.657  -1.486  23.741  0.00  0.00    +0.046 A 
ATOM     31  C   UNL     1      -2.317  -1.625  25.253  0.00  0.00    +0.033 A 
ATOM     32  C   UNL     1      -4.035  -2.717  23.952  0.00  0.00    +0.005 A 
ATOM     33  C   UNL     1      -2.865  -2.785  24.708  0.00  0.00    +0.023 A 
BRANCH  31  12
ATOM     12  N   UNL     1      -1.134  -1.694  26.017  0.00  0.00    -0.336 N 
ATOM     34  C   UNL     1      -0.112  -2.672  25.701  0.00  0.00    +0.129 C 
ATOM     35  C   UNL     1      -0.918  -0.780  27.122  0.00  0.00    +0.129 C 
ENDBRANCH  31  12
ENDBRANCH   4  24
ENDBRANCH  20   4
ENDBRANCH  17   8
BRANCH  16   7
ATOM      7  N   UNL     1       0.525   1.639  25.160  0.00  0.00    -0.182 NA
ATOM     36  H   UNL     1       1.216   1.332  25.854  0.00  0.00    +0.148 HD
BRANCH   7   1
ATOM      1  S   UNL     1       0.399   0.856  23.659  0.00  0.00    +0.060 S 
ATOM      5  O   UNL     1      -0.240   1.742  22.705  0.00  0.00    -0.153 OA
ATOM      6  O   UNL     1      -0.121  -0.482  23.873  0.00  0.00    -0.153 OA
BRANCH   1  21
ATOM     21  C   UNL     1       2.095   0.682  23.193  0.00  0.00    +0.123 A 
ATOM     22  C   UNL     1       2.458   0.030  22.024  0.00  0.00    +0.078 A 
ATOM     23  C   UNL     1       3.052   1.224  24.039  0.00  0.00    +0.030 A 
ATOM     25  C   UNL     1       3.809  -0.084  21.694  0.00  0.00    +0.021 A 
ATOM     26  C   UNL     1       4.403   1.110  23.708  0.00  0.00    +0.002 A 
ATOM     27  C   UNL     1       4.781   0.456  22.536  0.00  0.00    +0.001 A 
BRANCH  22  29
ATOM     13  N   UNL     1       0.701  -0.995  20.420  0.00  0.00    -0.191 NA
ATOM     29  C   UNL     1       1.487  -0.536  21.138  0.00  0.00    +0.101 C 
ENDBRANCH  22  29
ENDBRANCH   1  21
ENDBRANCH   7   1
ENDBRANCH  16   7
TORSDOF 8
ENDMDL
MODEL 9
REMARK VINA RESULT:       5.4      2.253      7.087
REMARK  Name = 11879581
REMARK  10 active torsions:
REMARK  status: ('A' for Active; 'I' for Inactive)
REMARK    1  A    between atoms: S_1  and  N_7
REMARK    2  A    between atoms: S_1  and  C_21
REMARK    3  A    between atoms: O_4  and  C_20
REMARK    4  A    between atoms: O_4  and  C_24
REMARK    5  A    between atoms: N_7  and  C_16
REMARK    6  A    between atoms: N_8  and  C_17
REMARK    7  A    between atoms: N_12  and  C_31
REMARK    8  A    between atoms: N_12  and  C_34
REMARK    9  A    between atoms: N_12  and  C_35
REMARK   10  A    between atoms: C_22  and  C_29
REMARK                            x       y       z     vdW  Elec       q    Type
REMARK                         _______ _______ _______ _____ _____    ______ ____
ROOT
ATOM      2  O   UNL     1      -2.258   5.172  24.146  0.00  0.00    -0.370 OA
ATOM      3  O   UNL     1      -2.336   3.730  26.956  0.00  0.00    -0.370 OA
ATOM     14  C   UNL     1      -1.933   3.341  25.633  0.00  0.00    +0.170 C 
ATOM     15  C   UNL     1      -2.893   3.983  24.651  0.00  0.00    +0.175 C 
ATOM     16  C   UNL     1      -0.591   3.948  25.298  0.00  0.00    +0.133 C 
ATOM     17  C   UNL     1      -4.106   4.359  25.483  0.00  0.00    +0.171 C 
ATOM     18  C   UNL     1      -0.964   5.309  24.747  0.00  0.00    +0.183 C 
ATOM     19  C   UNL     1      -3.520   4.536  26.879  0.00  0.00    +0.190 C 
ENDROOT
BRANCH  17   8
ATOM      8  N   UNL     1      -5.183   3.372  25.382  0.00  0.00    -0.187 N 
ATOM      9  N   UNL     1      -6.441   3.694  25.700  0.00  0.00    -0.041 NA
ATOM     10  N   UNL     1      -6.321   1.564  25.054  0.00  0.00    -0.071 NA
ATOM     11  N   UNL     1      -7.135   2.582  25.496  0.00  0.00    -0.020 NA
ATOM     20  C   UNL     1      -5.114   2.078  24.991  0.00  0.00    +0.342 A 
BRANCH  20   4
ATOM      4  O   UNL     1      -4.012   1.458  24.616  0.00  0.00    -0.423 OA
BRANCH   4  24
ATOM     24  C   UNL     1      -3.735   0.144  24.970  0.00  0.00    +0.134 A 
ATOM     28  C   UNL     1      -3.990  -0.863  24.058  0.00  0.00    +0.069 A 
ATOM     30  C   UNL     1      -3.214  -0.118  26.221  0.00  0.00    +0.046 A 
ATOM     31  C   UNL     1      -3.713  -2.183  24.414  0.00  0.00    +0.033 A 
ATOM     32  C   UNL     1      -2.936  -1.438  26.577  0.00  0.00    +0.005 A 
ATOM     33  C   UNL     1      -3.185  -2.470  25.672  0.00  0.00    +0.023 A 
BRANCH  31  12
ATOM     12  N   UNL     1      -3.966  -3.227  23.500  0.00  0.00    -0.336 N 
ATOM     34  C   UNL     1      -5.275  -3.370  22.895  0.00  0.00    +0.129 C 
ATOM     35  C   UNL     1      -2.917  -4.162  23.143  0.00  0.00    +0.129 C 
ENDBRANCH  31  12
ENDBRANCH   4  24
ENDBRANCH  20   4
ENDBRANCH  17   8
BRANCH  16   7
ATOM      7  N   UNL     1       0.074   3.148  24.241  0.00  0.00    -0.182 NA
ATOM     36  H   UNL     1       0.541   3.656  23.482  0.00  0.00    +0.148 HD
BRANCH   7   1
ATOM      1  S   UNL     1      -0.272   1.493  24.091  0.00  0.00    +0.060 S 
ATOM      5  O   UNL     1      -1.230   1.296  23.020  0.00  0.00    -0.153 OA
ATOM      6  O   UNL     1      -0.531   0.949  25.411  0.00  0.00    -0.153 OA
BRANCH   1  21
ATOM     21  C   UNL     1       1.282   0.841  23.560  0.00  0.00    +0.123 A 
ATOM     22  C   UNL     1       1.528  -0.525  23.556  0.00  0.00    +0.078 A 
ATOM     23  C   UNL     1       2.250   1.745  23.146  0.00  0.00    +0.030 A 
ATOM     25  C   UNL     1       2.769  -0.997  23.127  0.00  0.00    +0.021 A 
ATOM     26  C   UNL     1       3.492   1.272  22.718  0.00  0.00    +0.002 A 
ATOM     27  C   UNL     1       3.751  -0.099  22.709  0.00  0.00    +0.001 A 
BRANCH  22  29
ATOM     13  N   UNL     1      -0.254  -2.243  24.321  0.00  0.00    -0.191 NA
ATOM     29  C   UNL     1       0.544  -1.474  23.979  0.00  0.00    +0.101 C 
ENDBRANCH  22  29
ENDBRANCH   1  21
ENDBRANCH   7   1
ENDBRANCH  16   7
TORSDOF 8
ENDMDL
MODEL 10
REMARK VINA RESULT:       5.4      2.708      5.406
REMARK  Name = 11879581
REMARK  10 active torsions:
REMARK  status: ('A' for Active; 'I' for Inactive)
REMARK    1  A    between atoms: S_1  and  N_7
REMARK    2  A    between atoms: S_1  and  C_21
REMARK    3  A    between atoms: O_4  and  C_20
REMARK    4  A    between atoms: O_4  and  C_24
REMARK    5  A    between atoms: N_7  and  C_16
REMARK    6  A    between atoms: N_8  and  C_17
REMARK    7  A    between atoms: N_12  and  C_31
REMARK    8  A    between atoms: N_12  and  C_34
REMARK    9  A    between atoms: N_12  and  C_35
REMARK   10  A    between atoms: C_22  and  C_29
REMARK                            x       y       z     vdW  Elec       q    Type
REMARK                         _______ _______ _______ _____ _____    ______ ____
ROOT
ATOM      2  O   UNL     1      -0.828   2.857  26.842  0.00  0.00    -0.370 OA
ATOM      3  O   UNL     1      -0.536   2.902  23.697  0.00  0.00    -0.370 OA
ATOM     14  C   UNL     1      -1.644   2.804  24.606  0.00  0.00    +0.170 C 
ATOM     15  C   UNL     1      -1.202   1.957  25.783  0.00  0.00    +0.175 C 
ATOM     16  C   UNL     1      -1.945   4.156  25.208  0.00  0.00    +0.133 C 
ATOM     17  C   UNL     1       0.023   1.210  25.285  0.00  0.00    +0.171 C 
ATOM     18  C   UNL     1      -1.014   4.209  26.401  0.00  0.00    +0.183 C 
ATOM     19  C   UNL     1       0.564   2.130  24.197  0.00  0.00    +0.190 C 
ENDROOT
BRANCH  17   8
ATOM      8  N   UNL     1      -0.291  -0.152  24.847  0.00  0.00    -0.187 N 
ATOM      9  N   UNL     1      -0.981  -0.984  25.634  0.00  0.00    -0.041 NA
ATOM     10  N   UNL     1      -0.452  -1.985  23.714  0.00  0.00    -0.071 NA
ATOM     11  N   UNL     1      -1.078  -2.107  24.934  0.00  0.00    -0.020 NA
ATOM     20  C   UNL     1       0.029  -0.764  23.683  0.00  0.00    +0.342 A 
BRANCH  20   4
ATOM      4  O   UNL     1       0.709  -0.209  22.698  0.00  0.00    -0.423 OA
BRANCH   4  24
ATOM     24  C   UNL     1       2.048   0.139  22.818  0.00  0.00    +0.134 A 
ATOM     28  C   UNL     1       2.940  -0.791  23.316  0.00  0.00    +0.069 A 
ATOM     30  C   UNL     1       2.449   1.404  22.434  0.00  0.00    +0.046 A 
ATOM     31  C   UNL     1       4.285  -0.441  23.437  0.00  0.00    +0.033 A 
ATOM     32  C   UNL     1       3.795   1.753  22.554  0.00  0.00    +0.005 A 
ATOM     33  C   UNL     1       4.712   0.830  23.055  0.00  0.00    +0.023 A 
BRANCH  31  12
ATOM     12  N   UNL     1       5.213  -1.374  23.945  0.00  0.00    -0.336 N 
ATOM     34  C   UNL     1       4.831  -2.760  24.133  0.00  0.00    +0.129 C 
ATOM     35  C   UNL     1       6.563  -0.964  24.274  0.00  0.00    +0.129 C 
ENDBRANCH  31  12
ENDBRANCH   4  24
ENDBRANCH  20   4
ENDBRANCH  17   8
BRANCH  16   7
ATOM      7  N   UNL     1      -3.353   4.200  25.671  0.00  0.00    -0.182 NA
ATOM     36  H   UNL     1      -3.521   4.207  26.684  0.00  0.00    +0.148 HD
BRANCH   7   1
ATOM      1  S   UNL     1      -4.610   3.848  24.586  0.00  0.00    +0.060 S 
ATOM      5  O   UNL     1      -4.335   4.478  23.309  0.00  0.00    -0.153 OA
ATOM      6  O   UNL     1      -5.878   4.073  25.252  0.00  0.00    -0.153 OA
BRANCH   1  21
ATOM     21  C   UNL     1      -4.437   2.101  24.380  0.00  0.00    +0.123 A 
ATOM     22  C   UNL     1      -5.071   1.209  25.233  0.00  0.00    +0.078 A 
ATOM     23  C   UNL     1      -3.645   1.652  23.333  0.00  0.00    +0.030 A 
ATOM     25  C   UNL     1      -4.909  -0.162  25.035  0.00  0.00    +0.021 A 
ATOM     26  C   UNL     1      -3.483   0.280  23.136  0.00  0.00    +0.002 A 
ATOM     27  C   UNL     1      -4.115  -0.627  23.986  0.00  0.00    +0.001 A 
BRANCH  22  29
ATOM     13  N   UNL     1      -6.558   2.009  27.199  0.00  0.00    -0.191 NA
ATOM     29  C   UNL     1      -5.893   1.651  26.319  0.00  0.00    +0.101 C 
ENDBRANCH  22  29
ENDBRANCH   1  21
ENDBRANCH   7   1
ENDBRANCH  16   7
TORSDOF 8
ENDMDL
