MODEL 1
REMARK VINA RESULT:      -3.9      0.000      0.000
REMARK  Name = 51138178
REMARK  9 active torsions:
REMARK  status: ('A' for Active; 'I' for Inactive)
REMARK    1  A    between atoms: O_1  and  C_21
REMARK    2  A    between atoms: N_4  and  C_19
REMARK    3  A    between atoms: N_5  and  C_26
REMARK    4  A    between atoms: C_7  and  C_10
REMARK    5  A    between atoms: C_10  and  C_15
REMARK    6  A    between atoms: CA_12  and  C_21
REMARK    7  A    between atoms: C_15  and  C_22
REMARK    8  A    between atoms: C_15  and  C_23
REMARK    9  A    between atoms: C_19  and  C_24
REMARK                            x       y       z     vdW  Elec       q    Type
REMARK                         _______ _______ _______ _____ _____    ______ ____
ROOT
ATOM      3  N   UNL     1      16.761  -4.833  25.055  0.00  0.00    -0.297 NA
ATOM      4  N   UNL     1      16.375  -5.720  30.011  0.00  0.00    -0.339 N 
ATOM      7  C   UNL     1      17.316  -3.644  25.716  0.00  0.00    +0.085 C 
ATOM      8  C   UNL     1      17.147  -3.585  27.238  0.00  0.00    -0.021 A 
ATOM      9  C   UNL     1      16.821  -4.695  28.071  0.00  0.00    +0.008 A 
ATOM     11  C   UNL     1      16.576  -6.091  27.827  0.00  0.00    -0.020 A 
ATOM     12  CA  UNL     1      17.392  -6.089  25.431  0.00  0.00    +0.168 C 
ATOM     13  C   UNL     1      16.601  -6.811  26.520  0.00  0.00    +0.067 C 
ATOM     14  C   UNL     1      16.709  -4.509  29.453  0.00  0.00    +0.050 A 
ATOM     16  C   UNL     1      16.298  -6.678  29.043  0.00  0.00    +0.091 A 
ATOM     17  C   UNL     1      17.405  -2.359  27.903  0.00  0.00    +0.006 A 
ATOM     18  C   UNL     1      16.922  -3.282  30.085  0.00  0.00    +0.026 A 
ATOM     20  C   UNL     1      17.287  -2.209  29.283  0.00  0.00    +0.002 A 
ATOM     28  H   UNL     1      15.749  -4.877  25.176  0.00  0.00    +0.123 HD
ENDROOT
BRANCH  12  21
ATOM      2  OXT UNL     1      17.405  -6.480  23.046  0.00  0.00    -0.249 OA
ATOM     21  C   UNL     1      17.384  -6.922  24.185  0.00  0.00    +0.322 C 
BRANCH  21   1
ATOM      1  O   UNL     1      17.348  -8.241  24.491  0.00  0.00    -0.480 OA
ATOM     29  H   UNL     1      16.430  -8.562  24.620  0.00  0.00    +0.295 HD
ENDBRANCH  21   1
ENDBRANCH  12  21
BRANCH   7  10
ATOM     10  C   UNL     1      16.649  -2.454  25.003  0.00  0.00    +0.026 C 
BRANCH  10  15
ATOM     15  C   UNL     1      16.799  -2.510  23.479  0.00  0.00    -0.015 C 
ATOM     22  C   UNL     1      15.509  -2.932  22.776  0.00  0.00    +0.007 C 
ATOM     23  C   UNL     1      17.244  -1.139  22.964  0.00  0.00    +0.007 C 
ENDBRANCH  10  15
ENDBRANCH   7  10
BRANCH   4  19
ATOM     19  C   UNL     1      16.152  -5.967  31.420  0.00  0.00    +0.196 C 
BRANCH  19  24
ATOM      5  N   UNL     1      13.825  -6.834  31.839  0.00  0.00    -0.336 N 
ATOM      6  N   UNL     1      14.151  -4.673  32.233  0.00  0.00    -0.239 NA
ATOM     24  C   UNL     1      14.713  -5.795  31.837  0.00  0.00    +0.129 A 
ATOM     25  C   UNL     1      12.622  -6.345  32.264  0.00  0.00    +0.106 A 
ATOM     26  C   UNL     1      14.092  -8.204  31.466  0.00  0.00    +0.150 C 
ATOM     27  C   UNL     1      12.849  -5.010  32.500  0.00  0.00    +0.130 A 
ENDBRANCH  19  24
ENDBRANCH   4  19
TORSDOF 6
ENDMDL
MODEL 2
REMARK VINA RESULT:      -3.5     17.430     19.465
REMARK  Name = 51138178
REMARK  9 active torsions:
REMARK  status: ('A' for Active; 'I' for Inactive)
REMARK    1  A    between atoms: O_1  and  C_21
REMARK    2  A    between atoms: N_4  and  C_19
REMARK    3  A    between atoms: N_5  and  C_26
REMARK    4  A    between atoms: C_7  and  C_10
REMARK    5  A    between atoms: C_10  and  C_15
REMARK    6  A    between atoms: CA_12  and  C_21
REMARK    7  A    between atoms: C_15  and  C_22
REMARK    8  A    between atoms: C_15  and  C_23
REMARK    9  A    between atoms: C_19  and  C_24
REMARK                            x       y       z     vdW  Elec       q    Type
REMARK                         _______ _______ _______ _____ _____    ______ ____
ROOT
ATOM      3  N   UNL     1      -3.129   2.497  25.001  0.00  0.00    -0.297 NA
ATOM      4  N   UNL     1       0.899  -0.071  23.364  0.00  0.00    -0.339 N 
ATOM      7  C   UNL     1      -3.331   1.113  25.449  0.00  0.00    +0.085 C 
ATOM      8  C   UNL     1      -2.326   0.084  24.918  0.00  0.00    -0.021 A 
ATOM      9  C   UNL     1      -1.065   0.396  24.332  0.00  0.00    +0.008 A 
ATOM     11  C   UNL     1      -0.360   1.622  24.070  0.00  0.00    -0.020 A 
ATOM     12  CA  UNL     1      -1.883   3.105  25.443  0.00  0.00    +0.168 C 
ATOM     13  C   UNL     1      -0.802   3.015  24.368  0.00  0.00    +0.067 C 
ATOM     14  C   UNL     1      -0.232  -0.641  23.898  0.00  0.00    +0.050 A 
ATOM     16  C   UNL     1       0.835   1.287  23.468  0.00  0.00    +0.091 A 
ATOM     17  C   UNL     1      -2.616  -1.295  25.081  0.00  0.00    +0.006 A 
ATOM     18  C   UNL     1      -0.556  -1.993  24.025  0.00  0.00    +0.026 A 
ATOM     20  C   UNL     1      -1.763  -2.303  24.639  0.00  0.00    +0.002 A 
ATOM     28  H   UNL     1      -3.237   2.571  23.989  0.00  0.00    +0.123 HD
ENDROOT
BRANCH  12  21
ATOM      2  OXT UNL     1      -1.570   5.494  25.265  0.00  0.00    -0.249 OA
ATOM     21  C   UNL     1      -2.213   4.545  25.688  0.00  0.00    +0.322 C 
BRANCH  21   1
ATOM      1  O   UNL     1      -3.329   4.659  26.448  0.00  0.00    -0.480 OA
ATOM     29  H   UNL     1      -3.123   4.627  27.407  0.00  0.00    +0.295 HD
ENDBRANCH  21   1
ENDBRANCH  12  21
BRANCH   7  10
ATOM     10  C   UNL     1      -4.780   0.781  25.051  0.00  0.00    +0.026 C 
BRANCH  10  15
ATOM     15  C   UNL     1      -5.743   1.952  25.267  0.00  0.00    -0.015 C 
ATOM     22  C   UNL     1      -6.973   1.878  24.361  0.00  0.00    +0.007 C 
ATOM     23  C   UNL     1      -6.181   1.983  26.733  0.00  0.00    +0.007 C 
ENDBRANCH  10  15
ENDBRANCH   7  10
BRANCH   4  19
ATOM     19  C   UNL     1       2.016  -0.792  22.790  0.00  0.00    +0.196 C 
BRANCH  19  24
ATOM      5  N   UNL     1       4.407  -0.823  23.579  0.00  0.00    -0.336 N 
ATOM      6  N   UNL     1       3.651   1.122  22.821  0.00  0.00    -0.239 NA
ATOM     24  C   UNL     1       3.349  -0.137  23.052  0.00  0.00    +0.129 A 
ATOM     25  C   UNL     1       5.451   0.052  23.689  0.00  0.00    +0.106 A 
ATOM     26  C   UNL     1       4.436  -2.218  23.954  0.00  0.00    +0.150 C 
ATOM     27  C   UNL     1       4.959   1.246  23.215  0.00  0.00    +0.130 A 
ENDBRANCH  19  24
ENDBRANCH   4  19
TORSDOF 6
ENDMDL
MODEL 3
REMARK VINA RESULT:      -1.9      2.718      4.425
REMARK  Name = 51138178
REMARK  9 active torsions:
REMARK  status: ('A' for Active; 'I' for Inactive)
REMARK    1  A    between atoms: O_1  and  C_21
REMARK    2  A    between atoms: N_4  and  C_19
REMARK    3  A    between atoms: N_5  and  C_26
REMARK    4  A    between atoms: C_7  and  C_10
REMARK    5  A    between atoms: C_10  and  C_15
REMARK    6  A    between atoms: CA_12  and  C_21
REMARK    7  A    between atoms: C_15  and  C_22
REMARK    8  A    between atoms: C_15  and  C_23
REMARK    9  A    between atoms: C_19  and  C_24
REMARK                            x       y       z     vdW  Elec       q    Type
REMARK                         _______ _______ _______ _____ _____    ______ ____
ROOT
ATOM      3  N   UNL     1      16.442  -8.327  27.010  0.00  0.00    -0.297 NA
ATOM      4  N   UNL     1      14.115  -8.882  31.457  0.00  0.00    -0.339 N 
ATOM      7  C   UNL     1      17.211  -7.517  27.965  0.00  0.00    +0.085 C 
ATOM      8  C   UNL     1      16.599  -7.370  29.363  0.00  0.00    -0.021 A 
ATOM      9  C   UNL     1      15.569  -8.197  29.898  0.00  0.00    +0.008 A 
ATOM     11  C   UNL     1      14.834  -9.328  29.400  0.00  0.00    -0.020 A 
ATOM     12  CA  UNL     1      16.300  -9.728  27.376  0.00  0.00    +0.168 C 
ATOM     13  C   UNL     1      14.967  -9.995  28.072  0.00  0.00    +0.067 C 
ATOM     14  C   UNL     1      15.106  -7.965  31.198  0.00  0.00    +0.050 A 
ATOM     16  C   UNL     1      13.948  -9.709  30.386  0.00  0.00    +0.091 A 
ATOM     17  C   UNL     1      17.134  -6.391  30.239  0.00  0.00    +0.006 A 
ATOM     18  C   UNL     1      15.614  -6.965  32.029  0.00  0.00    +0.026 A 
ATOM     20  C   UNL     1      16.650  -6.188  31.529  0.00  0.00    +0.002 A 
ATOM     28  H   UNL     1      15.535  -7.901  26.821  0.00  0.00    +0.123 HD
ENDROOT
BRANCH  12  21
ATOM      2  OXT UNL     1      17.352 -10.781  25.472  0.00  0.00    -0.249 OA
ATOM     21  C   UNL     1      16.336 -10.478  26.080  0.00  0.00    +0.322 C 
BRANCH  21   1
ATOM      1  O   UNL     1      15.081 -10.778  25.665  0.00  0.00    -0.480 OA
ATOM     29  H   UNL     1      14.407 -10.540  26.337  0.00  0.00    +0.295 HD
ENDBRANCH  21   1
ENDBRANCH  12  21
BRANCH   7  10
ATOM     10  C   UNL     1      17.405  -6.162  27.261  0.00  0.00    +0.026 C 
BRANCH  10  15
ATOM     15  C   UNL     1      16.702  -6.089  25.902  0.00  0.00    -0.015 C 
ATOM     22  C   UNL     1      16.672  -4.670  25.330  0.00  0.00    +0.007 C 
ATOM     23  C   UNL     1      17.405  -7.027  24.918  0.00  0.00    +0.007 C 
ENDBRANCH  10  15
ENDBRANCH   7  10
BRANCH   4  19
ATOM     19  C   UNL     1      13.361  -8.983  32.689  0.00  0.00    +0.196 C 
BRANCH  19  24
ATOM      5  N   UNL     1      10.977  -8.273  32.297  0.00  0.00    -0.336 N 
ATOM      6  N   UNL     1      11.339 -10.460  32.427  0.00  0.00    -0.239 NA
ATOM     24  C   UNL     1      11.896  -9.269  32.472  0.00  0.00    +0.129 A 
ATOM     25  C   UNL     1       9.757  -8.865  32.128  0.00  0.00    +0.106 A 
ATOM     26  C   UNL     1      11.230  -6.851  32.287  0.00  0.00    +0.150 C 
ATOM     27  C   UNL     1      10.007 -10.215  32.212  0.00  0.00    +0.130 A 
ENDBRANCH  19  24
ENDBRANCH   4  19
TORSDOF 6
ENDMDL
MODEL 4
REMARK VINA RESULT:      -0.8     17.225     19.081
REMARK  Name = 51138178
REMARK  9 active torsions:
REMARK  status: ('A' for Active; 'I' for Inactive)
REMARK    1  A    between atoms: O_1  and  C_21
REMARK    2  A    between atoms: N_4  and  C_19
REMARK    3  A    between atoms: N_5  and  C_26
REMARK    4  A    between atoms: C_7  and  C_10
REMARK    5  A    between atoms: C_10  and  C_15
REMARK    6  A    between atoms: CA_12  and  C_21
REMARK    7  A    between atoms: C_15  and  C_22
REMARK    8  A    between atoms: C_15  and  C_23
REMARK    9  A    between atoms: C_19  and  C_24
REMARK                            x       y       z     vdW  Elec       q    Type
REMARK                         _______ _______ _______ _____ _____    ______ ____
ROOT
ATOM      3  N   UNL     1      -3.374  -0.145  25.228  0.00  0.00    -0.297 NA
ATOM      4  N   UNL     1       1.269   0.840  23.502  0.00  0.00    -0.339 N 
ATOM      7  C   UNL     1      -3.365   1.288  24.903  0.00  0.00    +0.085 C 
ATOM      8  C   UNL     1      -2.003   1.881  24.526  0.00  0.00    -0.021 A 
ATOM      9  C   UNL     1      -0.857   1.126  24.145  0.00  0.00    +0.008 A 
ATOM     11  C   UNL     1      -0.593  -0.278  23.982  0.00  0.00    -0.020 A 
ATOM     12  CA  UNL     1      -3.009  -1.021  24.125  0.00  0.00    +0.168 C 
ATOM     13  C   UNL     1      -1.535  -1.418  24.187  0.00  0.00    +0.067 C 
ATOM     14  C   UNL     1       0.328   1.792  23.812  0.00  0.00    +0.050 A 
ATOM     16  C   UNL     1       0.725  -0.407  23.595  0.00  0.00    +0.091 A 
ATOM     17  C   UNL     1      -1.869   3.292  24.472  0.00  0.00    +0.006 A 
ATOM     18  C   UNL     1       0.453   3.183  23.809  0.00  0.00    +0.026 A 
ATOM     20  C   UNL     1      -0.675   3.924  24.133  0.00  0.00    +0.002 A 
ATOM     28  H   UNL     1      -2.805  -0.333  26.053  0.00  0.00    +0.123 HD
ENDROOT
BRANCH  12  21
ATOM      2  OXT UNL     1      -4.743  -2.599  23.539  0.00  0.00    -0.249 OA
ATOM     21  C   UNL     1      -3.854  -2.246  24.299  0.00  0.00    +0.322 C 
BRANCH  21   1
ATOM      1  O   UNL     1      -3.500  -2.915  25.423  0.00  0.00    -0.480 OA
ATOM     29  H   UNL     1      -2.678  -2.556  25.819  0.00  0.00    +0.295 HD
ENDBRANCH  21   1
ENDBRANCH  12  21
BRANCH   7  10
ATOM     10  C   UNL     1      -3.986   1.971  26.135  0.00  0.00    +0.026 C 
BRANCH  10  15
ATOM     15  C   UNL     1      -5.368   2.570  25.854  0.00  0.00    -0.015 C 
ATOM     22  C   UNL     1      -5.296   4.026  25.392  0.00  0.00    +0.007 C 
ATOM     23  C   UNL     1      -6.078   1.725  24.793  0.00  0.00    +0.007 C 
ENDBRANCH  10  15
ENDBRANCH   7  10
BRANCH   4  19
ATOM     19  C   UNL     1       2.638   1.103  23.112  0.00  0.00    +0.196 C 
BRANCH  19  24
ATOM      5  N   UNL     1       4.903   0.182  23.712  0.00  0.00    -0.336 N 
ATOM      6  N   UNL     1       3.267  -1.304  23.496  0.00  0.00    -0.239 NA
ATOM     24  C   UNL     1       3.581  -0.028  23.438  0.00  0.00    +0.129 A 
ATOM     25  C   UNL     1       5.469  -1.037  23.962  0.00  0.00    +0.106 A 
ATOM     26  C   UNL     1       5.593   1.451  23.740  0.00  0.00    +0.150 C 
ATOM     27  C   UNL     1       4.439  -1.938  23.822  0.00  0.00    +0.130 A 
ENDBRANCH  19  24
ENDBRANCH   4  19
TORSDOF 6
ENDMDL
