MODEL 1
REMARK VINA RESULT:      -5.2      0.000      0.000
REMARK  Name = 71693102
REMARK  12 active torsions:
REMARK  status: ('A' for Active; 'I' for Inactive)
REMARK    1  A    between atoms: O_2  and  C_29
REMARK    2  A    between atoms: N_4  and  C_15
REMARK    3  A    between atoms: C_8  and  C_12
REMARK    4  A    between atoms: C_9  and  C_15
REMARK    5  A    between atoms: C_11  and  C_16
REMARK    6  A    between atoms: C_12  and  C_17
REMARK    7  A    between atoms: C_12  and  C_18
REMARK    8  A    between atoms: C_13  and  C_19
REMARK    9  A    between atoms: C_16  and  C_20
REMARK   10  A    between atoms: C_21  and  C_24
REMARK   11  A    between atoms: C_24  and  C_26
REMARK   12  A    between atoms: C_26  and  C_29
REMARK                            x       y       z     vdW  Elec       q    Type
REMARK                         _______ _______ _______ _____ _____    ______ ____
ROOT
ATOM      8  C   UNL     1      -1.241   0.367  24.749  0.00  0.00    +0.000 C 
ATOM      9  C   UNL     1      -0.336  -0.832  24.372  0.00  0.00    +0.032 C 
ATOM     10  C   UNL     1      -2.262  -0.047  25.819  0.00  0.00    +0.012 C 
ATOM     11  C   UNL     1      -3.160  -1.206  25.349  0.00  0.00    +0.022 C 
ATOM     13  C   UNL     1      -2.354  -2.322  24.716  0.00  0.00    -0.073 C 
ATOM     14  C   UNL     1      -1.088  -2.140  24.297  0.00  0.00    -0.022 C 
ATOM     19  C   UNL     1      -3.019  -3.666  24.616  0.00  0.00    +0.039 C 
ENDROOT
BRANCH   8  12
ATOM     12  C   UNL     1      -0.423   1.562  25.247  0.00  0.00    -0.013 C 
ATOM     17  C   UNL     1      -0.403   2.669  24.197  0.00  0.00    +0.007 C 
ATOM     18  C   UNL     1      -0.985   2.079  26.568  0.00  0.00    +0.007 C 
ENDBRANCH   8  12
BRANCH   9  15
ATOM     15  C   UNL     1       0.388  -0.583  23.044  0.00  0.00    +0.112 C 
BRANCH  15   4
ATOM      1  O   UNL     1       2.503  -0.150  21.119  0.00  0.00    -0.276 OA
ATOM      4  N   UNL     1       1.627   0.093  23.260  0.00  0.00    -0.315 N 
ATOM     21  C   UNL     1       2.600   0.261  22.273  0.00  0.00    +0.214 C 
ATOM     30  H   UNL     1       1.786   0.523  24.168  0.00  0.00    +0.149 HD
BRANCH  21  24
ATOM     24  C   UNL     1       3.813   1.015  22.787  0.00  0.00    +0.107 C 
BRANCH  24  26
ATOM     26  C   UNL     1       5.066   0.147  22.826  0.00  0.00    +0.129 C 
BRANCH  26  29
ATOM      3  O   UNL     1       5.872  -0.580  25.005  0.00  0.00    -0.251 OA
ATOM     29  C   UNL     1       5.111  -0.727  24.058  0.00  0.00    +0.305 C 
BRANCH  29   2
ATOM      2  O   UNL     1       4.188  -1.722  23.996  0.00  0.00    -0.481 OA
ATOM     32  H   UNL     1       4.518  -2.494  23.490  0.00  0.00    +0.295 HD
ENDBRANCH  29   2
ENDBRANCH  26  29
ENDBRANCH  24  26
ENDBRANCH  21  24
ENDBRANCH  15   4
ENDBRANCH   9  15
BRANCH  11  16
ATOM     16  C   UNL     1      -4.252  -0.708  24.395  0.00  0.00    +0.082 C 
BRANCH  16  20
ATOM      5  N   UNL     1      -3.839   1.712  23.916  0.00  0.00    -0.341 N 
ATOM      6  N   UNL     1      -5.431   1.273  25.411  0.00  0.00    -0.213 NA
ATOM      7  N   UNL     1      -6.037   3.575  25.884  0.00  0.00    -0.234 NA
ATOM     20  C   UNL     1      -4.536   0.752  24.600  0.00  0.00    +0.110 A 
ATOM     22  C   UNL     1      -4.319   2.931  24.314  0.00  0.00    +0.085 A 
ATOM     23  C   UNL     1      -5.307   2.629  25.243  0.00  0.00    +0.178 A 
ATOM     25  C   UNL     1      -4.006   4.242  23.970  0.00  0.00    +0.031 A 
ATOM     27  C   UNL     1      -4.747   5.225  24.621  0.00  0.00    +0.022 A 
ATOM     28  C   UNL     1      -5.721   4.846  25.540  0.00  0.00    +0.113 A 
ATOM     31  H   UNL     1      -3.103   1.551  23.242  0.00  0.00    +0.167 HD
ENDBRANCH  16  20
ENDBRANCH  11  16
TORSDOF 9
ENDMDL
MODEL 2
REMARK VINA RESULT:      -4.2      1.856      4.484
REMARK  Name = 71693102
REMARK  12 active torsions:
REMARK  status: ('A' for Active; 'I' for Inactive)
REMARK    1  A    between atoms: O_2  and  C_29
REMARK    2  A    between atoms: N_4  and  C_15
REMARK    3  A    between atoms: C_8  and  C_12
REMARK    4  A    between atoms: C_9  and  C_15
REMARK    5  A    between atoms: C_11  and  C_16
REMARK    6  A    between atoms: C_12  and  C_17
REMARK    7  A    between atoms: C_12  and  C_18
REMARK    8  A    between atoms: C_13  and  C_19
REMARK    9  A    between atoms: C_16  and  C_20
REMARK   10  A    between atoms: C_21  and  C_24
REMARK   11  A    between atoms: C_24  and  C_26
REMARK   12  A    between atoms: C_26  and  C_29
REMARK                            x       y       z     vdW  Elec       q    Type
REMARK                         _______ _______ _______ _____ _____    ______ ____
ROOT
ATOM      8  C   UNL     1      -2.500   2.263  23.678  0.00  0.00    +0.000 C 
ATOM      9  C   UNL     1      -1.323   2.816  24.520  0.00  0.00    +0.032 C 
ATOM     10  C   UNL     1      -3.635   3.295  23.602  0.00  0.00    +0.012 C 
ATOM     11  C   UNL     1      -4.170   3.676  24.995  0.00  0.00    +0.022 C 
ATOM     13  C   UNL     1      -3.046   3.977  25.967  0.00  0.00    -0.073 C 
ATOM     14  C   UNL     1      -1.777   3.596  25.731  0.00  0.00    -0.022 C 
ATOM     19  C   UNL     1      -3.405   4.766  27.194  0.00  0.00    +0.039 C 
ENDROOT
BRANCH   8  12
ATOM     12  C   UNL     1      -2.055   1.877  22.264  0.00  0.00    -0.013 C 
ATOM     17  C   UNL     1      -2.260   0.383  22.031  0.00  0.00    +0.007 C 
ATOM     18  C   UNL     1      -2.813   2.696  21.225  0.00  0.00    +0.007 C 
ENDBRANCH   8  12
BRANCH   9  15
ATOM     15  C   UNL     1      -0.383   1.688  24.963  0.00  0.00    +0.112 C 
BRANCH  15   4
ATOM      1  O   UNL     1       0.362  -0.889  23.880  0.00  0.00    -0.276 OA
ATOM      4  N   UNL     1       0.600   1.424  23.961  0.00  0.00    -0.315 N 
ATOM     21  C   UNL     1       0.902   0.144  23.491  0.00  0.00    +0.214 C 
ATOM     30  H   UNL     1       1.068   2.216  23.529  0.00  0.00    +0.149 HD
BRANCH  21  24
ATOM     24  C   UNL     1       1.987   0.166  22.430  0.00  0.00    +0.107 C 
BRANCH  24  26
ATOM     26  C   UNL     1       3.199   0.990  22.853  0.00  0.00    +0.129 C 
BRANCH  26  29
ATOM      3  O   UNL     1       5.462   0.498  23.598  0.00  0.00    -0.251 OA
ATOM     29  C   UNL     1       4.319   0.123  23.377  0.00  0.00    +0.305 C 
BRANCH  29   2
ATOM      2  O   UNL     1       3.905  -1.155  23.582  0.00  0.00    -0.481 OA
ATOM     32  H   UNL     1       4.660  -1.767  23.708  0.00  0.00    +0.295 HD
ENDBRANCH  29   2
ENDBRANCH  26  29
ENDBRANCH  24  26
ENDBRANCH  21  24
ENDBRANCH  15   4
ENDBRANCH   9  15
BRANCH  11  16
ATOM     16  C   UNL     1      -5.096   2.588  25.549  0.00  0.00    +0.082 C 
BRANCH  16  20
ATOM      5  N   UNL     1      -5.111   0.357  24.417  0.00  0.00    -0.341 N 
ATOM      6  N   UNL     1      -3.479   0.688  25.896  0.00  0.00    -0.213 NA
ATOM      7  N   UNL     1      -2.419  -1.484  25.659  0.00  0.00    -0.234 NA
ATOM     20  C   UNL     1      -4.533   1.216  25.313  0.00  0.00    +0.110 A 
ATOM     22  C   UNL     1      -4.380  -0.800  24.424  0.00  0.00    +0.085 A 
ATOM     23  C   UNL     1      -3.371  -0.568  25.352  0.00  0.00    +0.178 A 
ATOM     25  C   UNL     1      -4.483  -2.004  23.735  0.00  0.00    +0.031 A 
ATOM     27  C   UNL     1      -3.513  -2.955  24.039  0.00  0.00    +0.022 A 
ATOM     28  C   UNL     1      -2.534  -2.650  24.980  0.00  0.00    +0.113 A 
ATOM     31  H   UNL     1      -5.930   0.542  23.853  0.00  0.00    +0.167 HD
ENDBRANCH  16  20
ENDBRANCH  11  16
TORSDOF 9
ENDMDL
MODEL 3
REMARK VINA RESULT:      -4.1      3.138      7.850
REMARK  Name = 71693102
REMARK  12 active torsions:
REMARK  status: ('A' for Active; 'I' for Inactive)
REMARK    1  A    between atoms: O_2  and  C_29
REMARK    2  A    between atoms: N_4  and  C_15
REMARK    3  A    between atoms: C_8  and  C_12
REMARK    4  A    between atoms: C_9  and  C_15
REMARK    5  A    between atoms: C_11  and  C_16
REMARK    6  A    between atoms: C_12  and  C_17
REMARK    7  A    between atoms: C_12  and  C_18
REMARK    8  A    between atoms: C_13  and  C_19
REMARK    9  A    between atoms: C_16  and  C_20
REMARK   10  A    between atoms: C_21  and  C_24
REMARK   11  A    between atoms: C_24  and  C_26
REMARK   12  A    between atoms: C_26  and  C_29
REMARK                            x       y       z     vdW  Elec       q    Type
REMARK                         _______ _______ _______ _____ _____    ______ ____
ROOT
ATOM      8  C   UNL     1      -3.014  -1.195  24.423  0.00  0.00    +0.000 C 
ATOM      9  C   UNL     1      -3.570   0.009  25.224  0.00  0.00    +0.032 C 
ATOM     10  C   UNL     1      -1.623  -1.587  24.942  0.00  0.00    +0.012 C 
ATOM     11  C   UNL     1      -0.615  -0.428  24.842  0.00  0.00    +0.022 C 
ATOM     13  C   UNL     1      -1.194   0.869  25.372  0.00  0.00    -0.073 C 
ATOM     14  C   UNL     1      -2.516   1.041  25.549  0.00  0.00    -0.022 C 
ATOM     19  C   UNL     1      -0.214   1.948  25.737  0.00  0.00    +0.039 C 
ENDROOT
BRANCH   8  12
ATOM     12  C   UNL     1      -3.953  -2.404  24.489  0.00  0.00    -0.013 C 
ATOM     17  C   UNL     1      -4.568  -2.674  23.119  0.00  0.00    +0.007 C 
ATOM     18  C   UNL     1      -3.205  -3.631  24.998  0.00  0.00    +0.007 C 
ENDBRANCH   8  12
BRANCH   9  15
ATOM     15  C   UNL     1      -4.730   0.681  24.479  0.00  0.00    +0.112 C 
BRANCH  15   4
ATOM      1  O   UNL     1      -5.933   2.560  26.320  0.00  0.00    -0.276 OA
ATOM      4  N   UNL     1      -4.581   2.102  24.484  0.00  0.00    -0.315 N 
ATOM     21  C   UNL     1      -5.199   2.942  25.411  0.00  0.00    +0.214 C 
ATOM     30  H   UNL     1      -3.947   2.519  23.807  0.00  0.00    +0.149 HD
BRANCH  21  24
ATOM     24  C   UNL     1      -4.863   4.403  25.173  0.00  0.00    +0.107 C 
BRANCH  24  26
ATOM     26  C   UNL     1      -3.538   4.584  24.440  0.00  0.00    +0.129 C 
BRANCH  26  29
ATOM      3  O   UNL     1      -1.323   5.326  25.123  0.00  0.00    -0.251 OA
ATOM     29  C   UNL     1      -2.385   4.784  25.396  0.00  0.00    +0.305 C 
BRANCH  29   2
ATOM      2  O   UNL     1      -2.665   4.279  26.626  0.00  0.00    -0.481 OA
ATOM     32  H   UNL     1      -3.626   4.301  26.819  0.00  0.00    +0.295 HD
ENDBRANCH  29   2
ENDBRANCH  26  29
ENDBRANCH  24  26
ENDBRANCH  21  24
ENDBRANCH  15   4
ENDBRANCH   9  15
BRANCH  11  16
ATOM     16  C   UNL     1      -0.111  -0.257  23.404  0.00  0.00    +0.082 C 
BRANCH  16  20
ATOM      5  N   UNL     1       2.161  -1.230  23.788  0.00  0.00    -0.341 N 
ATOM      6  N   UNL     1       2.114   0.819  22.915  0.00  0.00    -0.213 NA
ATOM      7  N   UNL     1       4.517   1.127  22.752  0.00  0.00    -0.234 NA
ATOM     20  C   UNL     1       1.388  -0.187  23.353  0.00  0.00    +0.110 A 
ATOM     22  C   UNL     1       3.471  -0.872  23.617  0.00  0.00    +0.085 A 
ATOM     23  C   UNL     1       3.413   0.406  23.073  0.00  0.00    +0.178 A 
ATOM     25  C   UNL     1       4.680  -1.510  23.872  0.00  0.00    +0.031 A 
ATOM     27  C   UNL     1       5.822  -0.783  23.547  0.00  0.00    +0.022 A 
ATOM     28  C   UNL     1       5.685   0.491  23.006  0.00  0.00    +0.113 A 
ATOM     31  H   UNL     1       1.826  -2.105  24.168  0.00  0.00    +0.167 HD
ENDBRANCH  16  20
ENDBRANCH  11  16
TORSDOF 9
ENDMDL
MODEL 4
REMARK VINA RESULT:      -3.0      2.813      7.219
REMARK  Name = 71693102
REMARK  12 active torsions:
REMARK  status: ('A' for Active; 'I' for Inactive)
REMARK    1  A    between atoms: O_2  and  C_29
REMARK    2  A    between atoms: N_4  and  C_15
REMARK    3  A    between atoms: C_8  and  C_12
REMARK    4  A    between atoms: C_9  and  C_15
REMARK    5  A    between atoms: C_11  and  C_16
REMARK    6  A    between atoms: C_12  and  C_17
REMARK    7  A    between atoms: C_12  and  C_18
REMARK    8  A    between atoms: C_13  and  C_19
REMARK    9  A    between atoms: C_16  and  C_20
REMARK   10  A    between atoms: C_21  and  C_24
REMARK   11  A    between atoms: C_24  and  C_26
REMARK   12  A    between atoms: C_26  and  C_29
REMARK                            x       y       z     vdW  Elec       q    Type
REMARK                         _______ _______ _______ _____ _____    ______ ____
ROOT
ATOM      8  C   UNL     1      -2.180   3.055  24.897  0.00  0.00    +0.000 C 
ATOM      9  C   UNL     1      -3.452   3.272  24.040  0.00  0.00    +0.032 C 
ATOM     10  C   UNL     1      -0.929   3.045  24.005  0.00  0.00    +0.012 C 
ATOM     11  C   UNL     1      -0.987   1.942  22.932  0.00  0.00    +0.022 C 
ATOM     13  C   UNL     1      -2.325   1.920  22.221  0.00  0.00    -0.073 C 
ATOM     14  C   UNL     1      -3.413   2.531  22.724  0.00  0.00    -0.022 C 
ATOM     19  C   UNL     1      -2.375   1.217  20.893  0.00  0.00    +0.039 C 
ENDROOT
BRANCH   8  12
ATOM     12  C   UNL     1      -2.035   4.127  25.982  0.00  0.00    -0.013 C 
ATOM     17  C   UNL     1      -1.701   5.477  25.354  0.00  0.00    +0.007 C 
ATOM     18  C   UNL     1      -3.310   4.218  26.814  0.00  0.00    +0.007 C 
ENDBRANCH   8  12
BRANCH   9  15
ATOM     15  C   UNL     1      -4.714   2.871  24.814  0.00  0.00    +0.112 C 
BRANCH  15   4
ATOM      1  O   UNL     1      -3.333   0.472  25.655  0.00  0.00    -0.276 OA
ATOM      4  N   UNL     1      -5.078   1.520  24.527  0.00  0.00    -0.315 N 
ATOM     21  C   UNL     1      -4.354   0.412  24.973  0.00  0.00    +0.214 C 
ATOM     30  H   UNL     1      -5.941   1.354  24.016  0.00  0.00    +0.149 HD
BRANCH  21  24
ATOM     24  C   UNL     1      -4.972  -0.897  24.516  0.00  0.00    +0.107 C 
BRANCH  24  26
ATOM     26  C   UNL     1      -4.017  -1.725  23.663  0.00  0.00    +0.129 C 
BRANCH  26  29
ATOM      3  O   UNL     1      -1.811  -2.635  24.142  0.00  0.00    -0.251 OA
ATOM     29  C   UNL     1      -2.960  -2.409  24.498  0.00  0.00    +0.305 C 
BRANCH  29   2
ATOM      2  O   UNL     1      -3.438  -2.755  25.721  0.00  0.00    -0.481 OA
ATOM     32  H   UNL     1      -4.396  -2.961  25.693  0.00  0.00    +0.295 HD
ENDBRANCH  29   2
ENDBRANCH  26  29
ENDBRANCH  24  26
ENDBRANCH  21  24
ENDBRANCH  15   4
ENDBRANCH   9  15
BRANCH  11  16
ATOM     16  C   UNL     1      -0.662   0.570  23.531  0.00  0.00    +0.082 C 
BRANCH  16  20
ATOM      5  N   UNL     1       1.708   1.252  23.110  0.00  0.00    -0.341 N 
ATOM      6  N   UNL     1       1.403  -0.857  23.761  0.00  0.00    -0.213 NA
ATOM      7  N   UNL     1       3.739  -1.516  23.738  0.00  0.00    -0.234 NA
ATOM     20  C   UNL     1       0.812   0.284  23.479  0.00  0.00    +0.110 A 
ATOM     22  C   UNL     1       2.958   0.696  23.158  0.00  0.00    +0.085 A 
ATOM     23  C   UNL     1       2.739  -0.615  23.565  0.00  0.00    +0.178 A 
ATOM     25  C   UNL     1       4.234   1.183  22.897  0.00  0.00    +0.031 A 
ATOM     27  C   UNL     1       5.271   0.270  23.069  0.00  0.00    +0.022 A 
ATOM     28  C   UNL     1       4.975  -1.026  23.479  0.00  0.00    +0.113 A 
ATOM     31  H   UNL     1       1.487   2.203  22.848  0.00  0.00    +0.167 HD
ENDBRANCH  16  20
ENDBRANCH  11  16
TORSDOF 9
ENDMDL
MODEL 5
REMARK VINA RESULT:      -2.7      3.186      5.733
REMARK  Name = 71693102
REMARK  12 active torsions:
REMARK  status: ('A' for Active; 'I' for Inactive)
REMARK    1  A    between atoms: O_2  and  C_29
REMARK    2  A    between atoms: N_4  and  C_15
REMARK    3  A    between atoms: C_8  and  C_12
REMARK    4  A    between atoms: C_9  and  C_15
REMARK    5  A    between atoms: C_11  and  C_16
REMARK    6  A    between atoms: C_12  and  C_17
REMARK    7  A    between atoms: C_12  and  C_18
REMARK    8  A    between atoms: C_13  and  C_19
REMARK    9  A    between atoms: C_16  and  C_20
REMARK   10  A    between atoms: C_21  and  C_24
REMARK   11  A    between atoms: C_24  and  C_26
REMARK   12  A    between atoms: C_26  and  C_29
REMARK                            x       y       z     vdW  Elec       q    Type
REMARK                         _______ _______ _______ _____ _____    ______ ____
ROOT
ATOM      8  C   UNL     1      -2.654   2.587  23.946  0.00  0.00    +0.000 C 
ATOM      9  C   UNL     1      -2.613   4.105  24.253  0.00  0.00    +0.032 C 
ATOM     10  C   UNL     1      -4.071   2.161  23.532  0.00  0.00    +0.012 C 
ATOM     11  C   UNL     1      -5.112   2.465  24.625  0.00  0.00    +0.022 C 
ATOM     13  C   UNL     1      -4.961   3.871  25.172  0.00  0.00    -0.073 C 
ATOM     14  C   UNL     1      -3.841   4.593  24.984  0.00  0.00    -0.022 C 
ATOM     19  C   UNL     1      -6.143   4.445  25.901  0.00  0.00    +0.039 C 
ENDROOT
BRANCH   8  12
ATOM     12  C   UNL     1      -1.656   2.202  22.850  0.00  0.00    -0.013 C 
ATOM     17  C   UNL     1      -0.747   1.074  23.330  0.00  0.00    +0.007 C 
ATOM     18  C   UNL     1      -2.392   1.797  21.577  0.00  0.00    +0.007 C 
ENDBRANCH   8  12
BRANCH   9  15
ATOM     15  C   UNL     1      -1.361   4.473  25.057  0.00  0.00    +0.112 C 
BRANCH  15   4
ATOM      1  O   UNL     1       0.921   2.747  25.489  0.00  0.00    -0.276 OA
ATOM      4  N   UNL     1      -1.162   3.557  26.135  0.00  0.00    -0.315 N 
ATOM     21  C   UNL     1      -0.027   2.756  26.271  0.00  0.00    +0.214 C 
ATOM     30  H   UNL     1      -1.862   3.526  26.872  0.00  0.00    +0.149 HD
BRANCH  21  24
ATOM     24  C   UNL     1      -0.089   1.881  27.510  0.00  0.00    +0.107 C 
BRANCH  24  26
ATOM     26  C   UNL     1       0.362   2.616  28.767  0.00  0.00    +0.129 C 
BRANCH  26  29
ATOM      3  O   UNL     1       2.744   3.007  28.455  0.00  0.00    -0.251 OA
ATOM     29  C   UNL     1       1.837   2.426  29.035  0.00  0.00    +0.305 C 
BRANCH  29   2
ATOM      2  O   UNL     1       2.050   1.513  30.018  0.00  0.00    -0.481 OA
ATOM     32  H   UNL     1       2.849   1.724  30.545  0.00  0.00    +0.295 HD
ENDBRANCH  29   2
ENDBRANCH  26  29
ENDBRANCH  24  26
ENDBRANCH  21  24
ENDBRANCH  15   4
ENDBRANCH   9  15
BRANCH  11  16
ATOM     16  C   UNL     1      -5.050   1.428  25.752  0.00  0.00    +0.082 C 
BRANCH  16  20
ATOM      5  N   UNL     1      -2.867   0.213  25.869  0.00  0.00    -0.341 N 
ATOM      6  N   UNL     1      -4.448  -0.743  24.625  0.00  0.00    -0.213 NA
ATOM      7  N   UNL     1      -3.151  -2.674  23.930  0.00  0.00    -0.234 NA
ATOM     20  C   UNL     1      -4.149   0.282  25.393  0.00  0.00    +0.110 A 
ATOM     22  C   UNL     1      -2.304  -0.932  25.373  0.00  0.00    +0.085 A 
ATOM     23  C   UNL     1      -3.309  -1.507  24.604  0.00  0.00    +0.178 A 
ATOM     25  C   UNL     1      -1.052  -1.521  25.510  0.00  0.00    +0.031 A 
ATOM     27  C   UNL     1      -0.875  -2.720  24.823  0.00  0.00    +0.022 A 
ATOM     28  C   UNL     1      -1.927  -3.235  24.072  0.00  0.00    +0.113 A 
ATOM     31  H   UNL     1      -2.416   0.886  26.474  0.00  0.00    +0.167 HD
ENDBRANCH  16  20
ENDBRANCH  11  16
TORSDOF 9
ENDMDL
MODEL 6
REMARK VINA RESULT:      -2.5      3.305      8.045
REMARK  Name = 71693102
REMARK  12 active torsions:
REMARK  status: ('A' for Active; 'I' for Inactive)
REMARK    1  A    between atoms: O_2  and  C_29
REMARK    2  A    between atoms: N_4  and  C_15
REMARK    3  A    between atoms: C_8  and  C_12
REMARK    4  A    between atoms: C_9  and  C_15
REMARK    5  A    between atoms: C_11  and  C_16
REMARK    6  A    between atoms: C_12  and  C_17
REMARK    7  A    between atoms: C_12  and  C_18
REMARK    8  A    between atoms: C_13  and  C_19
REMARK    9  A    between atoms: C_16  and  C_20
REMARK   10  A    between atoms: C_21  and  C_24
REMARK   11  A    between atoms: C_24  and  C_26
REMARK   12  A    between atoms: C_26  and  C_29
REMARK                            x       y       z     vdW  Elec       q    Type
REMARK                         _______ _______ _______ _____ _____    ______ ____
ROOT
ATOM      8  C   UNL     1      -2.960  -1.261  24.400  0.00  0.00    +0.000 C 
ATOM      9  C   UNL     1      -3.580  -0.058  25.154  0.00  0.00    +0.032 C 
ATOM     10  C   UNL     1      -1.581  -1.606  24.983  0.00  0.00    +0.012 C 
ATOM     11  C   UNL     1      -0.601  -0.421  24.899  0.00  0.00    +0.022 C 
ATOM     13  C   UNL     1      -1.235   0.869  25.379  0.00  0.00    -0.073 C 
ATOM     14  C   UNL     1      -2.568   1.009  25.500  0.00  0.00    -0.022 C 
ATOM     19  C   UNL     1      -0.300   1.982  25.762  0.00  0.00    +0.039 C 
ENDROOT
BRANCH   8  12
ATOM     12  C   UNL     1      -3.868  -2.494  24.453  0.00  0.00    -0.013 C 
ATOM     17  C   UNL     1      -4.429  -2.800  23.068  0.00  0.00    +0.007 C 
ATOM     18  C   UNL     1      -3.106  -3.694  25.005  0.00  0.00    +0.007 C 
ENDBRANCH   8  12
BRANCH   9  15
ATOM     15  C   UNL     1      -4.726   0.567  24.350  0.00  0.00    +0.112 C 
BRANCH  15   4
ATOM      1  O   UNL     1      -3.272   2.347  22.592  0.00  0.00    -0.276 OA
ATOM      4  N   UNL     1      -4.672   1.994  24.415  0.00  0.00    -0.315 N 
ATOM     21  C   UNL     1      -3.944   2.783  23.524  0.00  0.00    +0.214 C 
ATOM     30  H   UNL     1      -5.240   2.462  25.117  0.00  0.00    +0.149 HD
BRANCH  21  24
ATOM     24  C   UNL     1      -4.070   4.263  23.836  0.00  0.00    +0.107 C 
BRANCH  24  26
ATOM     26  C   UNL     1      -4.159   4.538  25.333  0.00  0.00    +0.129 C 
BRANCH  26  29
ATOM      3  O   UNL     1      -5.657   3.050  26.544  0.00  0.00    -0.251 OA
ATOM     29  C   UNL     1      -5.478   4.083  25.914  0.00  0.00    +0.305 C 
BRANCH  29   2
ATOM      2  O   UNL     1      -6.471   4.973  25.651  0.00  0.00    -0.481 OA
ATOM     32  H   UNL     1      -6.433   5.299  24.728  0.00  0.00    +0.295 HD
ENDBRANCH  29   2
ENDBRANCH  26  29
ENDBRANCH  24  26
ENDBRANCH  21  24
ENDBRANCH  15   4
ENDBRANCH   9  15
BRANCH  11  16
ATOM     16  C   UNL     1      -0.044  -0.264  23.480  0.00  0.00    +0.082 C 
BRANCH  16  20
ATOM      5  N   UNL     1       2.210   0.747  23.082  0.00  0.00    -0.341 N 
ATOM      6  N   UNL     1       2.201  -1.359  23.808  0.00  0.00    -0.213 NA
ATOM      7  N   UNL     1       4.609  -1.665  23.859  0.00  0.00    -0.234 NA
ATOM     20  C   UNL     1       1.457  -0.329  23.470  0.00  0.00    +0.110 A 
ATOM     22  C   UNL     1       3.526   0.384  23.177  0.00  0.00    +0.085 A 
ATOM     23  C   UNL     1       3.492  -0.930  23.631  0.00  0.00    +0.178 A 
ATOM     25  C   UNL     1       4.723   1.045  22.923  0.00  0.00    +0.031 A 
ATOM     27  C   UNL     1       5.879   0.302  23.152  0.00  0.00    +0.022 A 
ATOM     28  C   UNL     1       5.766  -1.008  23.607  0.00  0.00    +0.113 A 
ATOM     31  H   UNL     1       1.858   1.645  22.778  0.00  0.00    +0.167 HD
ENDBRANCH  16  20
ENDBRANCH  11  16
TORSDOF 9
ENDMDL
MODEL 7
REMARK VINA RESULT:      -2.3      2.081      5.169
REMARK  Name = 71693102
REMARK  12 active torsions:
REMARK  status: ('A' for Active; 'I' for Inactive)
REMARK    1  A    between atoms: O_2  and  C_29
REMARK    2  A    between atoms: N_4  and  C_15
REMARK    3  A    between atoms: C_8  and  C_12
REMARK    4  A    between atoms: C_9  and  C_15
REMARK    5  A    between atoms: C_11  and  C_16
REMARK    6  A    between atoms: C_12  and  C_17
REMARK    7  A    between atoms: C_12  and  C_18
REMARK    8  A    between atoms: C_13  and  C_19
REMARK    9  A    between atoms: C_16  and  C_20
REMARK   10  A    between atoms: C_21  and  C_24
REMARK   11  A    between atoms: C_24  and  C_26
REMARK   12  A    between atoms: C_26  and  C_29
REMARK                            x       y       z     vdW  Elec       q    Type
REMARK                         _______ _______ _______ _____ _____    ______ ____
ROOT
ATOM      8  C   UNL     1      -3.169   2.401  23.882  0.00  0.00    +0.000 C 
ATOM      9  C   UNL     1      -2.918   3.880  24.271  0.00  0.00    +0.032 C 
ATOM     10  C   UNL     1      -4.645   2.187  23.514  0.00  0.00    +0.012 C 
ATOM     11  C   UNL     1      -5.593   2.555  24.670  0.00  0.00    +0.022 C 
ATOM     13  C   UNL     1      -5.236   3.893  25.287  0.00  0.00    -0.073 C 
ATOM     14  C   UNL     1      -4.041   4.476  25.086  0.00  0.00    -0.022 C 
ATOM     19  C   UNL     1      -6.303   4.568  26.103  0.00  0.00    +0.039 C 
ENDROOT
BRANCH   8  12
ATOM     12  C   UNL     1      -2.275   1.960  22.719  0.00  0.00    -0.013 C 
ATOM     17  C   UNL     1      -2.325   0.444  22.556  0.00  0.00    +0.007 C 
ATOM     18  C   UNL     1      -2.695   2.657  21.430  0.00  0.00    +0.007 C 
ENDBRANCH   8  12
BRANCH   9  15
ATOM     15  C   UNL     1      -1.596   4.034  25.033  0.00  0.00    +0.112 C 
BRANCH  15   4
ATOM      1  O   UNL     1      -0.167   1.676  25.907  0.00  0.00    -0.276 OA
ATOM      4  N   UNL     1      -0.535   3.364  24.350  0.00  0.00    -0.315 N 
ATOM     21  C   UNL     1       0.105   2.226  24.842  0.00  0.00    +0.214 C 
ATOM     30  H   UNL     1      -0.268   3.704  23.429  0.00  0.00    +0.149 HD
BRANCH  21  24
ATOM     24  C   UNL     1       1.194   1.732  23.907  0.00  0.00    +0.107 C 
BRANCH  24  26
ATOM     26  C   UNL     1       0.982   0.284  23.479  0.00  0.00    +0.129 C 
BRANCH  26  29
ATOM      3  O   UNL     1       1.888  -0.271  21.289  0.00  0.00    -0.251 OA
ATOM     29  C   UNL     1       2.037  -0.177  22.500  0.00  0.00    +0.305 C 
BRANCH  29   2
ATOM      2  O   UNL     1       3.200  -0.485  23.130  0.00  0.00    -0.481 OA
ATOM     32  H   UNL     1       3.689   0.318  23.406  0.00  0.00    +0.295 HD
ENDBRANCH  29   2
ENDBRANCH  26  29
ENDBRANCH  24  26
ENDBRANCH  21  24
ENDBRANCH  15   4
ENDBRANCH   9  15
BRANCH  11  16
ATOM     16  C   UNL     1      -5.621   1.451  25.734  0.00  0.00    +0.082 C 
BRANCH  16  20
ATOM      5  N   UNL     1      -4.930  -0.705  24.671  0.00  0.00    -0.341 N 
ATOM      6  N   UNL     1      -3.362   0.343  25.855  0.00  0.00    -0.213 NA
ATOM      7  N   UNL     1      -1.589  -1.276  25.498  0.00  0.00    -0.234 NA
ATOM     20  C   UNL     1      -4.609   0.381  25.440  0.00  0.00    +0.110 A 
ATOM     22  C   UNL     1      -3.815  -1.494  24.585  0.00  0.00    +0.085 A 
ATOM     23  C   UNL     1      -2.855  -0.819  25.330  0.00  0.00    +0.178 A 
ATOM     25  C   UNL     1      -3.540  -2.700  23.950  0.00  0.00    +0.031 A 
ATOM     27  C   UNL     1      -2.244  -3.183  24.114  0.00  0.00    +0.022 A 
ATOM     28  C   UNL     1      -1.338  -2.452  24.874  0.00  0.00    +0.113 A 
ATOM     31  H   UNL     1      -5.828  -0.892  24.245  0.00  0.00    +0.167 HD
ENDBRANCH  16  20
ENDBRANCH  11  16
TORSDOF 9
ENDMDL
MODEL 8
REMARK VINA RESULT:      -1.7      1.975      4.681
REMARK  Name = 71693102
REMARK  12 active torsions:
REMARK  status: ('A' for Active; 'I' for Inactive)
REMARK    1  A    between atoms: O_2  and  C_29
REMARK    2  A    between atoms: N_4  and  C_15
REMARK    3  A    between atoms: C_8  and  C_12
REMARK    4  A    between atoms: C_9  and  C_15
REMARK    5  A    between atoms: C_11  and  C_16
REMARK    6  A    between atoms: C_12  and  C_17
REMARK    7  A    between atoms: C_12  and  C_18
REMARK    8  A    between atoms: C_13  and  C_19
REMARK    9  A    between atoms: C_16  and  C_20
REMARK   10  A    between atoms: C_21  and  C_24
REMARK   11  A    between atoms: C_24  and  C_26
REMARK   12  A    between atoms: C_26  and  C_29
REMARK                            x       y       z     vdW  Elec       q    Type
REMARK                         _______ _______ _______ _____ _____    ______ ____
ROOT
ATOM      8  C   UNL     1      -1.563   3.861  24.629  0.00  0.00    +0.000 C 
ATOM      9  C   UNL     1      -1.681   3.330  26.080  0.00  0.00    +0.032 C 
ATOM     10  C   UNL     1      -2.923   4.376  24.135  0.00  0.00    +0.012 C 
ATOM     11  C   UNL     1      -4.007   3.283  24.167  0.00  0.00    +0.022 C 
ATOM     13  C   UNL     1      -4.007   2.529  25.481  0.00  0.00    -0.073 C 
ATOM     14  C   UNL     1      -2.964   2.572  26.330  0.00  0.00    -0.022 C 
ATOM     19  C   UNL     1      -5.252   1.759  25.820  0.00  0.00    +0.039 C 
ENDROOT
BRANCH   8  12
ATOM     12  C   UNL     1      -0.514   4.971  24.514  0.00  0.00    -0.013 C 
ATOM     17  C   UNL     1       0.075   5.003  23.107  0.00  0.00    +0.007 C 
ATOM     18  C   UNL     1      -1.126   6.321  24.875  0.00  0.00    +0.007 C 
ENDBRANCH   8  12
BRANCH   9  15
ATOM     15  C   UNL     1      -0.485   2.442  26.443  0.00  0.00    +0.112 C 
BRANCH  15   4
ATOM      1  O   UNL     1       1.429   2.261  24.281  0.00  0.00    -0.276 OA
ATOM      4  N   UNL     1      -0.341   1.376  25.504  0.00  0.00    -0.315 N 
ATOM     21  C   UNL     1       0.613   1.365  24.485  0.00  0.00    +0.214 C 
ATOM     30  H   UNL     1      -0.930   0.555  25.618  0.00  0.00    +0.149 HD
BRANCH  21  24
ATOM     24  C   UNL     1       0.533   0.107  23.639  0.00  0.00    +0.107 C 
BRANCH  24  26
ATOM     26  C   UNL     1       1.442   0.168  22.416  0.00  0.00    +0.129 C 
BRANCH  26  29
ATOM      3  O   UNL     1       3.458  -0.919  23.239  0.00  0.00    -0.251 OA
ATOM     29  C   UNL     1       2.903   0.075  22.791  0.00  0.00    +0.305 C 
BRANCH  29   2
ATOM      2  O   UNL     1       3.549   1.250  22.571  0.00  0.00    -0.481 OA
ATOM     32  H   UNL     1       3.676   1.757  23.400  0.00  0.00    +0.295 HD
ENDBRANCH  29   2
ENDBRANCH  26  29
ENDBRANCH  24  26
ENDBRANCH  21  24
ENDBRANCH  15   4
ENDBRANCH   9  15
BRANCH  11  16
ATOM     16  C   UNL     1      -3.858   2.321  22.982  0.00  0.00    +0.082 C 
BRANCH  16  20
ATOM      5  N   UNL     1      -4.475  -0.064  23.412  0.00  0.00    -0.341 N 
ATOM      6  N   UNL     1      -2.380   0.504  23.911  0.00  0.00    -0.213 NA
ATOM      7  N   UNL     1      -1.661  -1.676  24.700  0.00  0.00    -0.234 NA
ATOM     20  C   UNL     1      -3.534   0.930  23.444  0.00  0.00    +0.110 A 
ATOM     22  C   UNL     1      -3.887  -1.205  23.890  0.00  0.00    +0.085 A 
ATOM     23  C   UNL     1      -2.585  -0.823  24.192  0.00  0.00    +0.178 A 
ATOM     25  C   UNL     1      -4.339  -2.505  24.087  0.00  0.00    +0.031 A 
ATOM     27  C   UNL     1      -3.401  -3.393  24.608  0.00  0.00    +0.022 A 
ATOM     28  C   UNL     1      -2.116  -2.938  24.887  0.00  0.00    +0.113 A 
ATOM     31  H   UNL     1      -5.431   0.027  23.095  0.00  0.00    +0.167 HD
ENDBRANCH  16  20
ENDBRANCH  11  16
TORSDOF 9
ENDMDL
MODEL 9
REMARK VINA RESULT:      -1.6      2.653      5.404
REMARK  Name = 71693102
REMARK  12 active torsions:
REMARK  status: ('A' for Active; 'I' for Inactive)
REMARK    1  A    between atoms: O_2  and  C_29
REMARK    2  A    between atoms: N_4  and  C_15
REMARK    3  A    between atoms: C_8  and  C_12
REMARK    4  A    between atoms: C_9  and  C_15
REMARK    5  A    between atoms: C_11  and  C_16
REMARK    6  A    between atoms: C_12  and  C_17
REMARK    7  A    between atoms: C_12  and  C_18
REMARK    8  A    between atoms: C_13  and  C_19
REMARK    9  A    between atoms: C_16  and  C_20
REMARK   10  A    between atoms: C_21  and  C_24
REMARK   11  A    between atoms: C_24  and  C_26
REMARK   12  A    between atoms: C_26  and  C_29
REMARK                            x       y       z     vdW  Elec       q    Type
REMARK                         _______ _______ _______ _____ _____    ______ ____
ROOT
ATOM      8  C   UNL     1       0.087   1.418  24.020  0.00  0.00    +0.000 C 
ATOM      9  C   UNL     1       0.061   1.722  25.539  0.00  0.00    +0.032 C 
ATOM     10  C   UNL     1       0.336   2.706  23.221  0.00  0.00    +0.012 C 
ATOM     11  C   UNL     1      -0.742   3.773  23.485  0.00  0.00    +0.022 C 
ATOM     13  C   UNL     1      -1.018   3.939  24.966  0.00  0.00    -0.073 C 
ATOM     14  C   UNL     1      -0.640   3.018  25.871  0.00  0.00    -0.022 C 
ATOM     19  C   UNL     1      -1.699   5.210  25.390  0.00  0.00    +0.039 C 
ENDROOT
BRANCH   8  12
ATOM     12  C   UNL     1       1.152   0.375  23.668  0.00  0.00    -0.013 C 
ATOM     17  C   UNL     1       0.720  -0.436  22.450  0.00  0.00    +0.007 C 
ATOM     18  C   UNL     1       2.497   1.049  23.420  0.00  0.00    +0.007 C 
ENDBRANCH   8  12
BRANCH   9  15
ATOM     15  C   UNL     1      -0.591   0.575  26.321  0.00  0.00    +0.112 C 
BRANCH  15   4
ATOM      1  O   UNL     1       0.073  -2.210  25.907  0.00  0.00    -0.276 OA
ATOM      4  N   UNL     1      -1.232  -0.343  25.435  0.00  0.00    -0.315 N 
ATOM     21  C   UNL     1      -0.849  -1.678  25.293  0.00  0.00    +0.214 C 
ATOM     30  H   UNL     1      -2.047  -0.021  24.919  0.00  0.00    +0.149 HD
BRANCH  21  24
ATOM     24  C   UNL     1      -1.707  -2.415  24.280  0.00  0.00    +0.107 C 
BRANCH  24  26
ATOM     26  C   UNL     1      -3.119  -2.678  24.793  0.00  0.00    +0.129 C 
BRANCH  26  29
ATOM      3  O   UNL     1      -5.152  -2.849  23.467  0.00  0.00    -0.251 OA
ATOM     29  C   UNL     1      -4.172  -2.206  23.818  0.00  0.00    +0.305 C 
BRANCH  29   2
ATOM      2  O   UNL     1      -3.903  -0.955  23.361  0.00  0.00    -0.481 OA
ATOM     32  H   UNL     1      -3.235  -0.965  22.644  0.00  0.00    +0.295 HD
ENDBRANCH  29   2
ENDBRANCH  26  29
ENDBRANCH  24  26
ENDBRANCH  21  24
ENDBRANCH  15   4
ENDBRANCH   9  15
BRANCH  11  16
ATOM     16  C   UNL     1      -2.031   3.458  22.719  0.00  0.00    +0.082 C 
BRANCH  16  20
ATOM      5  N   UNL     1      -4.011   3.814  24.206  0.00  0.00    -0.341 N 
ATOM      6  N   UNL     1      -3.314   1.708  24.000  0.00  0.00    -0.213 NA
ATOM      7  N   UNL     1      -4.973   0.702  25.458  0.00  0.00    -0.234 NA
ATOM     20  C   UNL     1      -3.107   2.956  23.638  0.00  0.00    +0.110 A 
ATOM     22  C   UNL     1      -4.855   3.068  24.985  0.00  0.00    +0.085 A 
ATOM     23  C   UNL     1      -4.399   1.763  24.838  0.00  0.00    +0.178 A 
ATOM     25  C   UNL     1      -5.947   3.381  25.786  0.00  0.00    +0.031 A 
ATOM     27  C   UNL     1      -6.548   2.302  26.429  0.00  0.00    +0.022 A 
ATOM     28  C   UNL     1      -6.035   1.023  26.234  0.00  0.00    +0.113 A 
ATOM     31  H   UNL     1      -4.048   4.816  24.077  0.00  0.00    +0.167 HD
ENDBRANCH  16  20
ENDBRANCH  11  16
TORSDOF 9
ENDMDL
MODEL 10
REMARK VINA RESULT:      -1.5     14.698     16.599
REMARK  Name = 71693102
REMARK  12 active torsions:
REMARK  status: ('A' for Active; 'I' for Inactive)
REMARK    1  A    between atoms: O_2  and  C_29
REMARK    2  A    between atoms: N_4  and  C_15
REMARK    3  A    between atoms: C_8  and  C_12
REMARK    4  A    between atoms: C_9  and  C_15
REMARK    5  A    between atoms: C_11  and  C_16
REMARK    6  A    between atoms: C_12  and  C_17
REMARK    7  A    between atoms: C_12  and  C_18
REMARK    8  A    between atoms: C_13  and  C_19
REMARK    9  A    between atoms: C_16  and  C_20
REMARK   10  A    between atoms: C_21  and  C_24
REMARK   11  A    between atoms: C_24  and  C_26
REMARK   12  A    between atoms: C_26  and  C_29
REMARK                            x       y       z     vdW  Elec       q    Type
REMARK                         _______ _______ _______ _____ _____    ______ ____
ROOT
ATOM      8  C   UNL     1      -2.486  -9.818  13.165  0.00  0.00    +0.000 C 
ATOM      9  C   UNL     1      -1.424  -9.384  12.124  0.00  0.00    +0.032 C 
ATOM     10  C   UNL     1      -3.500 -10.781  12.527  0.00  0.00    +0.012 C 
ATOM     11  C   UNL     1      -4.226 -10.149  11.325  0.00  0.00    +0.022 C 
ATOM     13  C   UNL     1      -3.259  -9.461  10.382  0.00  0.00    -0.073 C 
ATOM     14  C   UNL     1      -2.006  -9.139  10.752  0.00  0.00    -0.022 C 
ATOM     19  C   UNL     1      -3.750  -9.193   8.987  0.00  0.00    +0.039 C 
ENDROOT
BRANCH   8  12
ATOM     12  C   UNL     1      -1.845 -10.478  14.390  0.00  0.00    -0.013 C 
ATOM     17  C   UNL     1      -0.741  -9.589  14.956  0.00  0.00    +0.007 C 
ATOM     18  C   UNL     1      -2.901 -10.771  15.451  0.00  0.00    +0.007 C 
ENDBRANCH   8  12
BRANCH   9  15
ATOM     15  C   UNL     1      -0.673  -8.132  12.590  0.00  0.00    +0.112 C 
BRANCH  15   4
ATOM      1  O   UNL     1       1.242  -5.964  12.605  0.00  0.00    -0.276 OA
ATOM      4  N   UNL     1       0.701  -8.190  12.203  0.00  0.00    -0.315 N 
ATOM     21  C   UNL     1       1.563  -7.092  12.239  0.00  0.00    +0.214 C 
ATOM     30  H   UNL     1       1.085  -9.093  11.936  0.00  0.00    +0.149 HD
BRANCH  21  24
ATOM     24  C   UNL     1       2.961  -7.447  11.769  0.00  0.00    +0.107 C 
BRANCH  24  26
ATOM     26  C   UNL     1       4.019  -6.493  12.313  0.00  0.00    +0.129 C 
BRANCH  26  29
ATOM      3  O   UNL     1       5.802  -8.079  11.833  0.00  0.00    -0.251 OA
ATOM     29  C   UNL     1       5.346  -7.183  12.530  0.00  0.00    +0.305 C 
BRANCH  29   2
ATOM      2  O   UNL     1       5.993  -6.687  13.617  0.00  0.00    -0.481 OA
ATOM     32  H   UNL     1       5.729  -7.148  14.441  0.00  0.00    +0.295 HD
ENDBRANCH  29   2
ENDBRANCH  26  29
ENDBRANCH  24  26
ENDBRANCH  21  24
ENDBRANCH  15   4
ENDBRANCH   9  15
BRANCH  11  16
ATOM     16  C   UNL     1      -5.322  -9.183  11.787  0.00  0.00    +0.082 C 
BRANCH  16  20
ATOM      5  N   UNL     1      -6.854  -9.679   9.873  0.00  0.00    -0.341 N 
ATOM      6  N   UNL     1      -7.757  -9.819  11.905  0.00  0.00    -0.213 NA
ATOM      7  N   UNL     1      -9.993 -10.442  11.194  0.00  0.00    -0.234 NA
ATOM     20  C   UNL     1      -6.661  -9.563  11.224  0.00  0.00    +0.110 A 
ATOM     22  C   UNL     1      -8.162 -10.033   9.672  0.00  0.00    +0.085 A 
ATOM     23  C   UNL     1      -8.700 -10.113  10.951  0.00  0.00    +0.178 A 
ATOM     25  C   UNL     1      -8.921 -10.290   8.536  0.00  0.00    +0.031 A 
ATOM     27  C   UNL     1     -10.252 -10.628   8.768  0.00  0.00    +0.022 A 
ATOM     28  C   UNL     1     -10.719 -10.688  10.077  0.00  0.00    +0.113 A 
ATOM     31  H   UNL     1      -6.159  -9.529   9.154  0.00  0.00    +0.167 HD
ENDBRANCH  16  20
ENDBRANCH  11  16
TORSDOF 9
ENDMDL
