MODEL 1
REMARK VINA RESULT:      -3.2      0.000      0.000
REMARK  Name = 56775002
REMARK  6 active torsions:
REMARK  status: ('A' for Active; 'I' for Inactive)
REMARK    1  A    between atoms: O_3  and  C_24
REMARK    2  A    between atoms: N_5  and  C_11
REMARK    3  A    between atoms: N_6  and  C_17
REMARK    4  A    between atoms: C_7  and  C_11
REMARK    5  A    between atoms: C_17  and  C_18
REMARK    6  A    between atoms: C_23  and  C_24
REMARK                            x       y       z     vdW  Elec       q    Type
REMARK                         _______ _______ _______ _____ _____    ______ ____
ROOT
ATOM      1  O   UNL     1      -3.132  -0.650  24.609  0.00  0.00    -0.364 OA
ATOM      2  O   UNL     1      -5.587   1.877  24.632  0.00  0.00    -0.273 OA
ATOM      5  N   UNL     1      -3.277   2.093  24.810  0.00  0.00    -0.293 N 
ATOM      6  N   UNL     1      -0.132   0.495  23.868  0.00  0.00    -0.294 NA
ATOM      8  C   UNL     1      -1.971   1.447  24.896  0.00  0.00    +0.120 C 
ATOM     12  C   UNL     1      -2.009  -0.040  25.241  0.00  0.00    +0.154 C 
ATOM     13  C   UNL     1      -1.202   1.448  23.578  0.00  0.00    +0.110 C 
ATOM     14  C   UNL     1      -0.742  -0.620  24.605  0.00  0.00    +0.118 C 
ATOM     15  C   UNL     1      -4.471   1.380  24.795  0.00  0.00    +0.242 C 
ATOM     16  C   UNL     1      -4.339  -0.099  25.085  0.00  0.00    +0.256 C 
ENDROOT
BRANCH   5  11
ATOM     11  C   UNL     1      -3.288   3.541  24.639  0.00  0.00    +0.111 C 
BRANCH  11   7
ATOM      7  C   UNL     1      -2.271   4.194  25.511  0.00  0.00    +0.006 C 
ATOM      9  C   UNL     1      -0.945   4.583  24.927  0.00  0.00    +0.005 C 
ATOM     10  C   UNL     1      -1.941   5.642  25.297  0.00  0.00    +0.005 C 
ENDBRANCH  11   7
ENDBRANCH   5  11
BRANCH   6  17
ATOM     17  C   UNL     1       0.577   0.063  22.674  0.00  0.00    +0.119 C 
BRANCH  17  18
ATOM     18  C   UNL     1       2.056  -0.077  22.921  0.00  0.00    -0.033 A 
ATOM     19  C   UNL     1       2.566  -1.272  23.430  0.00  0.00    +0.006 A 
ATOM     20  C   UNL     1       2.914   0.985  22.641  0.00  0.00    +0.006 A 
ATOM     21  C   UNL     1       3.937  -1.402  23.660  0.00  0.00    +0.015 A 
ATOM     22  C   UNL     1       4.283   0.854  22.870  0.00  0.00    +0.015 A 
ATOM     23  C   UNL     1       4.796  -0.339  23.379  0.00  0.00    +0.059 A 
BRANCH  23  24
ATOM      4  O   UNL     1       7.114  -0.188  22.811  0.00  0.00    -0.245 OA
ATOM     24  C   UNL     1       6.223  -0.475  23.617  0.00  0.00    +0.337 C 
BRANCH  24   3
ATOM      3  O   UNL     1       6.500  -0.966  24.856  0.00  0.00    -0.477 OA
ATOM     25  H   UNL     1       6.731  -0.251  25.488  0.00  0.00    +0.295 HD
ENDBRANCH  24   3
ENDBRANCH  23  24
ENDBRANCH  17  18
ENDBRANCH   6  17
TORSDOF 6
ENDMDL
MODEL 2
REMARK VINA RESULT:      -2.9     16.407     17.702
REMARK  Name = 56775002
REMARK  6 active torsions:
REMARK  status: ('A' for Active; 'I' for Inactive)
REMARK    1  A    between atoms: O_3  and  C_24
REMARK    2  A    between atoms: N_5  and  C_11
REMARK    3  A    between atoms: N_6  and  C_17
REMARK    4  A    between atoms: C_7  and  C_11
REMARK    5  A    between atoms: C_17  and  C_18
REMARK    6  A    between atoms: C_23  and  C_24
REMARK                            x       y       z     vdW  Elec       q    Type
REMARK                         _______ _______ _______ _____ _____    ______ ____
ROOT
ATOM      1  O   UNL     1      12.161  -7.839  30.881  0.00  0.00    -0.364 OA
ATOM      2  O   UNL     1      12.200  -4.545  32.130  0.00  0.00    -0.273 OA
ATOM      5  N   UNL     1      13.969  -6.042  31.925  0.00  0.00    -0.293 N 
ATOM      6  N   UNL     1      15.148  -8.891  29.969  0.00  0.00    -0.294 NA
ATOM      8  C   UNL     1      14.431  -7.380  31.564  0.00  0.00    +0.120 C 
ATOM     12  C   UNL     1      13.331  -8.430  31.444  0.00  0.00    +0.154 C 
ATOM     13  C   UNL     1      15.086  -7.446  30.187  0.00  0.00    +0.110 C 
ATOM     14  C   UNL     1      13.872  -9.449  30.435  0.00  0.00    +0.118 C 
ATOM     15  C   UNL     1      12.625  -5.682  31.921  0.00  0.00    +0.242 C 
ATOM     16  C   UNL     1      11.655  -6.826  31.720  0.00  0.00    +0.256 C 
ENDROOT
BRANCH   5  11
ATOM     11  C   UNL     1      14.993  -5.043  32.204  0.00  0.00    +0.111 C 
BRANCH  11   7
ATOM      7  C   UNL     1      15.135  -4.086  31.070  0.00  0.00    +0.006 C 
ATOM      9  C   UNL     1      15.917  -2.822  31.271  0.00  0.00    +0.005 C 
ATOM     10  C   UNL     1      16.474  -3.920  30.413  0.00  0.00    +0.005 C 
ENDBRANCH  11   7
ENDBRANCH   5  11
BRANCH   6  17
ATOM     17  C   UNL     1      15.447  -9.239  28.589  0.00  0.00    +0.119 C 
BRANCH  17  18
ATOM     18  C   UNL     1      15.896  -8.042  27.793  0.00  0.00    -0.033 A 
ATOM     19  C   UNL     1      15.218  -7.687  26.627  0.00  0.00    +0.006 A 
ATOM     20  C   UNL     1      16.990  -7.290  28.221  0.00  0.00    +0.006 A 
ATOM     21  C   UNL     1      15.635  -6.578  25.889  0.00  0.00    +0.015 A 
ATOM     22  C   UNL     1      17.405  -6.182  27.484  0.00  0.00    +0.015 A 
ATOM     23  C   UNL     1      16.728  -5.825  26.318  0.00  0.00    +0.059 A 
BRANCH  23  24
ATOM      4  O   UNL     1      17.306  -4.637  24.323  0.00  0.00    -0.245 OA
ATOM     24  C   UNL     1      17.162  -4.669  25.550  0.00  0.00    +0.337 C 
BRANCH  24   3
ATOM      3  O   UNL     1      17.403  -3.583  26.335  0.00  0.00    -0.477 OA
ATOM     25  H   UNL     1      18.356  -3.495  26.552  0.00  0.00    +0.295 HD
ENDBRANCH  24   3
ENDBRANCH  23  24
ENDBRANCH  17  18
ENDBRANCH   6  17
TORSDOF 6
ENDMDL
MODEL 3
REMARK VINA RESULT:      -2.5      1.689      2.502
REMARK  Name = 56775002
REMARK  6 active torsions:
REMARK  status: ('A' for Active; 'I' for Inactive)
REMARK    1  A    between atoms: O_3  and  C_24
REMARK    2  A    between atoms: N_5  and  C_11
REMARK    3  A    between atoms: N_6  and  C_17
REMARK    4  A    between atoms: C_7  and  C_11
REMARK    5  A    between atoms: C_17  and  C_18
REMARK    6  A    between atoms: C_23  and  C_24
REMARK                            x       y       z     vdW  Elec       q    Type
REMARK                         _______ _______ _______ _____ _____    ______ ____
ROOT
ATOM      1  O   UNL     1      -5.488   0.966  24.666  0.00  0.00    -0.364 OA
ATOM      2  O   UNL     1      -5.828   4.392  25.417  0.00  0.00    -0.273 OA
ATOM      5  N   UNL     1      -3.995   3.002  25.770  0.00  0.00    -0.293 N 
ATOM      6  N   UNL     1      -2.340   0.006  24.500  0.00  0.00    -0.294 NA
ATOM      8  C   UNL     1      -3.419   1.663  25.698  0.00  0.00    +0.120 C 
ATOM     12  C   UNL     1      -4.430   0.534  25.520  0.00  0.00    +0.154 C 
ATOM     13  C   UNL     1      -2.501   1.459  24.495  0.00  0.00    +0.110 C 
ATOM     14  C   UNL     1      -3.660  -0.570  24.789  0.00  0.00    +0.118 C 
ATOM     15  C   UNL     1      -5.325   3.268  25.458  0.00  0.00    +0.242 C 
ATOM     16  C   UNL     1      -6.190   2.045  25.240  0.00  0.00    +0.256 C 
ENDROOT
BRANCH   5  11
ATOM     11  C   UNL     1      -3.088   4.096  26.094  0.00  0.00    +0.111 C 
BRANCH  11   7
ATOM      7  C   UNL     1      -2.190   4.409  24.947  0.00  0.00    +0.006 C 
ATOM      9  C   UNL     1      -1.297   5.612  25.022  0.00  0.00    +0.005 C 
ATOM     10  C   UNL     1      -0.708   4.235  25.106  0.00  0.00    +0.005 C 
ENDBRANCH  11   7
ENDBRANCH   5  11
BRANCH   6  17
ATOM     17  C   UNL     1      -1.759  -0.501  23.267  0.00  0.00    +0.119 C 
BRANCH  17  18
ATOM     18  C   UNL     1      -0.301  -0.144  23.146  0.00  0.00    -0.033 A 
ATOM     19  C   UNL     1       0.502  -0.804  22.216  0.00  0.00    +0.006 A 
ATOM     20  C   UNL     1       0.245   0.844  23.963  0.00  0.00    +0.006 A 
ATOM     21  C   UNL     1       1.854  -0.474  22.104  0.00  0.00    +0.015 A 
ATOM     22  C   UNL     1       1.596   1.174  23.851  0.00  0.00    +0.015 A 
ATOM     23  C   UNL     1       2.400   0.516  22.921  0.00  0.00    +0.059 A 
BRANCH  23  24
ATOM      4  O   UNL     1       4.629   0.841  23.727  0.00  0.00    -0.245 OA
ATOM     24  C   UNL     1       3.808   0.860  22.804  0.00  0.00    +0.337 C 
BRANCH  24   3
ATOM      3  O   UNL     1       4.153   1.217  21.537  0.00  0.00    -0.477 OA
ATOM     25  H   UNL     1       4.337   2.178  21.466  0.00  0.00    +0.295 HD
ENDBRANCH  24   3
ENDBRANCH  23  24
ENDBRANCH  17  18
ENDBRANCH   6  17
TORSDOF 6
ENDMDL
MODEL 4
REMARK VINA RESULT:      -2.4     16.693     18.586
REMARK  Name = 56775002
REMARK  6 active torsions:
REMARK  status: ('A' for Active; 'I' for Inactive)
REMARK    1  A    between atoms: O_3  and  C_24
REMARK    2  A    between atoms: N_5  and  C_11
REMARK    3  A    between atoms: N_6  and  C_17
REMARK    4  A    between atoms: C_7  and  C_11
REMARK    5  A    between atoms: C_17  and  C_18
REMARK    6  A    between atoms: C_23  and  C_24
REMARK                            x       y       z     vdW  Elec       q    Type
REMARK                         _______ _______ _______ _____ _____    ______ ____
ROOT
ATOM      1  O   UNL     1      12.669  -8.849  31.620  0.00  0.00    -0.364 OA
ATOM      2  O   UNL     1      11.891  -5.422  31.364  0.00  0.00    -0.273 OA
ATOM      5  N   UNL     1      13.695  -6.427  32.437  0.00  0.00    -0.293 N 
ATOM      6  N   UNL     1      15.835  -9.385  32.362  0.00  0.00    -0.294 NA
ATOM      8  C   UNL     1      14.377  -7.654  32.837  0.00  0.00    +0.120 C 
ATOM     12  C   UNL     1      13.528  -8.920  32.756  0.00  0.00    +0.154 C 
ATOM     13  C   UNL     1      15.564  -8.010  31.945  0.00  0.00    +0.110 C 
ATOM     14  C   UNL     1      14.534 -10.050  32.513  0.00  0.00    +0.118 C 
ATOM     15  C   UNL     1      12.458  -6.426  31.799  0.00  0.00    +0.242 C 
ATOM     16  C   UNL     1      11.769  -7.771  31.735  0.00  0.00    +0.256 C 
ENDROOT
BRANCH   5  11
ATOM     11  C   UNL     1      14.412  -5.175  32.644  0.00  0.00    +0.111 C 
BRANCH  11   7
ATOM      7  C   UNL     1      14.842  -4.580  31.348  0.00  0.00    +0.006 C 
ATOM      9  C   UNL     1      15.569  -3.268  31.349  0.00  0.00    +0.005 C 
ATOM     10  C   UNL     1      16.304  -4.531  31.011  0.00  0.00    +0.005 C 
ENDBRANCH  11   7
ENDBRANCH   5  11
BRANCH   6  17
ATOM     17  C   UNL     1      16.726 -10.085  31.450  0.00  0.00    +0.119 C 
BRANCH  17  18
ATOM     18  C   UNL     1      16.393  -9.797  30.011  0.00  0.00    -0.033 A 
ATOM     19  C   UNL     1      17.076  -8.792  29.325  0.00  0.00    +0.006 A 
ATOM     20  C   UNL     1      15.402 -10.534  29.363  0.00  0.00    +0.006 A 
ATOM     21  C   UNL     1      16.767  -8.524  27.991  0.00  0.00    +0.015 A 
ATOM     22  C   UNL     1      15.094 -10.267  28.029  0.00  0.00    +0.015 A 
ATOM     23  C   UNL     1      15.777  -9.262  27.342  0.00  0.00    +0.059 A 
BRANCH  23  24
ATOM      4  O   UNL     1      14.639  -9.609  25.267  0.00  0.00    -0.245 OA
ATOM     24  C   UNL     1      15.456  -8.985  25.952  0.00  0.00    +0.337 C 
BRANCH  24   3
ATOM      3  O   UNL     1      16.163  -7.933  25.455  0.00  0.00    -0.477 OA
ATOM     25  H   UNL     1      17.131  -8.081  25.520  0.00  0.00    +0.295 HD
ENDBRANCH  24   3
ENDBRANCH  23  24
ENDBRANCH  17  18
ENDBRANCH   6  17
TORSDOF 6
ENDMDL
MODEL 5
REMARK VINA RESULT:      -1.2      3.010      7.322
REMARK  Name = 56775002
REMARK  6 active torsions:
REMARK  status: ('A' for Active; 'I' for Inactive)
REMARK    1  A    between atoms: O_3  and  C_24
REMARK    2  A    between atoms: N_5  and  C_11
REMARK    3  A    between atoms: N_6  and  C_17
REMARK    4  A    between atoms: C_7  and  C_11
REMARK    5  A    between atoms: C_17  and  C_18
REMARK    6  A    between atoms: C_23  and  C_24
REMARK                            x       y       z     vdW  Elec       q    Type
REMARK                         _______ _______ _______ _____ _____    ______ ____
ROOT
ATOM      1  O   UNL     1       0.241  -0.181  22.506  0.00  0.00    -0.364 OA
ATOM      2  O   UNL     1      -1.645  -2.922  23.666  0.00  0.00    -0.273 OA
ATOM      5  N   UNL     1      -0.682  -1.195  24.895  0.00  0.00    -0.293 N 
ATOM      6  N   UNL     1       0.347   2.300  24.673  0.00  0.00    -0.294 NA
ATOM      8  C   UNL     1       0.141   0.010  24.911  0.00  0.00    +0.120 C 
ATOM     12  C   UNL     1       0.977   0.237  23.655  0.00  0.00    +0.154 C 
ATOM     13  C   UNL     1      -0.672   1.300  24.989  0.00  0.00    +0.110 C 
ATOM     14  C   UNL     1       1.152   1.757  23.571  0.00  0.00    +0.118 C 
ATOM     15  C   UNL     1      -0.888  -1.953  23.746  0.00  0.00    +0.242 C 
ATOM     16  C   UNL     1      -0.034  -1.562  22.559  0.00  0.00    +0.256 C 
ENDROOT
BRANCH   5  11
ATOM     11  C   UNL     1      -1.377  -1.538  26.130  0.00  0.00    +0.111 C 
BRANCH  11   7
ATOM      7  C   UNL     1      -2.736  -0.926  26.170  0.00  0.00    +0.006 C 
ATOM      9  C   UNL     1      -3.340  -0.399  24.902  0.00  0.00    +0.005 C 
ATOM     10  C   UNL     1      -3.885  -1.648  25.529  0.00  0.00    +0.005 C 
ENDBRANCH  11   7
ENDBRANCH   5  11
BRANCH   6  17
ATOM     17  C   UNL     1      -0.220   3.605  24.369  0.00  0.00    +0.119 C 
BRANCH  17  18
ATOM     18  C   UNL     1      -1.679   3.680  24.732  0.00  0.00    -0.033 A 
ATOM     19  C   UNL     1      -2.644   3.209  23.841  0.00  0.00    +0.006 A 
ATOM     20  C   UNL     1      -2.066   4.222  25.957  0.00  0.00    +0.006 A 
ATOM     21  C   UNL     1      -3.996   3.279  24.177  0.00  0.00    +0.015 A 
ATOM     22  C   UNL     1      -3.418   4.291  26.293  0.00  0.00    +0.015 A 
ATOM     23  C   UNL     1      -4.384   3.820  25.403  0.00  0.00    +0.059 A 
BRANCH  23  24
ATOM      4  O   UNL     1      -6.506   4.895  25.649  0.00  0.00    -0.245 OA
ATOM     24  C   UNL     1      -5.792   3.892  25.754  0.00  0.00    +0.337 C 
BRANCH  24   3
ATOM      3  O   UNL     1      -6.273   2.709  26.225  0.00  0.00    -0.477 OA
ATOM     25  H   UNL     1      -7.254   2.700  26.256  0.00  0.00    +0.295 HD
ENDBRANCH  24   3
ENDBRANCH  23  24
ENDBRANCH  17  18
ENDBRANCH   6  17
TORSDOF 6
ENDMDL
MODEL 6
REMARK VINA RESULT:      -0.9     15.260     16.604
REMARK  Name = 56775002
REMARK  6 active torsions:
REMARK  status: ('A' for Active; 'I' for Inactive)
REMARK    1  A    between atoms: O_3  and  C_24
REMARK    2  A    between atoms: N_5  and  C_11
REMARK    3  A    between atoms: N_6  and  C_17
REMARK    4  A    between atoms: C_7  and  C_11
REMARK    5  A    between atoms: C_17  and  C_18
REMARK    6  A    between atoms: C_23  and  C_24
REMARK                            x       y       z     vdW  Elec       q    Type
REMARK                         _______ _______ _______ _____ _____    ______ ____
ROOT
ATOM      1  O   UNL     1      -5.672  -9.443  14.987  0.00  0.00    -0.364 OA
ATOM      2  O   UNL     1      -8.250 -10.773  16.988  0.00  0.00    -0.273 OA
ATOM      5  N   UNL     1      -8.320 -10.161  14.744  0.00  0.00    -0.293 N 
ATOM      6  N   UNL     1      -6.239  -9.820  11.763  0.00  0.00    -0.294 NA
ATOM      8  C   UNL     1      -7.635  -9.585  13.590  0.00  0.00    +0.120 C 
ATOM     12  C   UNL     1      -6.366  -8.804  13.918  0.00  0.00    +0.154 C 
ATOM     13  C   UNL     1      -7.121 -10.629  12.603  0.00  0.00    +0.110 C 
ATOM     14  C   UNL     1      -5.499  -8.923  12.661  0.00  0.00    +0.118 C 
ATOM     15  C   UNL     1      -7.747 -10.216  16.011  0.00  0.00    +0.242 C 
ATOM     16  C   UNL     1      -6.451  -9.450  16.162  0.00  0.00    +0.256 C 
ENDROOT
BRANCH   5  11
ATOM     11  C   UNL     1      -9.617 -10.781  14.501  0.00  0.00    +0.111 C 
BRANCH  11   7
ATOM      7  C   UNL     1     -10.719  -9.785  14.619  0.00  0.00    +0.006 C 
ATOM      9  C   UNL     1     -10.541  -8.599  15.520  0.00  0.00    +0.005 C 
ATOM     10  C   UNL     1     -10.539  -8.417  14.031  0.00  0.00    +0.005 C 
ENDBRANCH  11   7
ENDBRANCH   5  11
BRANCH   6  17
ATOM     17  C   UNL     1      -5.367 -10.625  10.922  0.00  0.00    +0.119 C 
BRANCH  17  18
ATOM     18  C   UNL     1      -3.934 -10.173  11.008  0.00  0.00    -0.033 A 
ATOM     19  C   UNL     1      -3.419  -9.304  10.045  0.00  0.00    +0.006 A 
ATOM     20  C   UNL     1      -3.121 -10.624  12.047  0.00  0.00    +0.006 A 
ATOM     21  C   UNL     1      -2.090  -8.886  10.123  0.00  0.00    +0.015 A 
ATOM     22  C   UNL     1      -1.792 -10.205  12.125  0.00  0.00    +0.015 A 
ATOM     23  C   UNL     1      -1.276  -9.336  11.164  0.00  0.00    +0.059 A 
BRANCH  23  24
ATOM      4  O   UNL     1       0.994  -9.170  10.429  0.00  0.00    -0.245 OA
ATOM     24  C   UNL     1       0.108  -8.900  11.246  0.00  0.00    +0.337 C 
BRANCH  24   3
ATOM      3  O   UNL     1       0.348  -8.136  12.347  0.00  0.00    -0.477 OA
ATOM     25  H   UNL     1       1.247  -8.291  12.709  0.00  0.00    +0.295 HD
ENDBRANCH  24   3
ENDBRANCH  23  24
ENDBRANCH  17  18
ENDBRANCH   6  17
TORSDOF 6
ENDMDL
MODEL 7
REMARK VINA RESULT:      -0.8     16.448     17.681
REMARK  Name = 56775002
REMARK  6 active torsions:
REMARK  status: ('A' for Active; 'I' for Inactive)
REMARK    1  A    between atoms: O_3  and  C_24
REMARK    2  A    between atoms: N_5  and  C_11
REMARK    3  A    between atoms: N_6  and  C_17
REMARK    4  A    between atoms: C_7  and  C_11
REMARK    5  A    between atoms: C_17  and  C_18
REMARK    6  A    between atoms: C_23  and  C_24
REMARK                            x       y       z     vdW  Elec       q    Type
REMARK                         _______ _______ _______ _____ _____    ______ ____
ROOT
ATOM      1  O   UNL     1      -6.689  -9.189  13.214  0.00  0.00    -0.364 OA
ATOM      2  O   UNL     1      -9.896 -10.431  13.982  0.00  0.00    -0.273 OA
ATOM      5  N   UNL     1      -8.941 -10.066  11.892  0.00  0.00    -0.293 N 
ATOM      6  N   UNL     1      -5.735  -9.934  10.149  0.00  0.00    -0.294 NA
ATOM      8  C   UNL     1      -7.807  -9.579  11.110  0.00  0.00    +0.120 C 
ATOM     12  C   UNL     1      -6.823  -8.703  11.880  0.00  0.00    +0.154 C 
ATOM     13  C   UNL     1      -6.903 -10.694  10.591  0.00  0.00    +0.110 C 
ATOM     14  C   UNL     1      -5.480  -8.910  11.171  0.00  0.00    +0.118 C 
ATOM     15  C   UNL     1      -9.004  -9.956  13.277  0.00  0.00    +0.242 C 
ATOM     16  C   UNL     1      -7.915  -9.111  13.904  0.00  0.00    +0.256 C 
ENDROOT
BRANCH   5  11
ATOM     11  C   UNL     1      -9.988 -10.774  11.167  0.00  0.00    +0.111 C 
BRANCH  11   7
ATOM      7  C   UNL     1     -10.716  -9.860  10.242  0.00  0.00    +0.006 C 
ATOM      9  C   UNL     1     -10.241  -8.445  10.087  0.00  0.00    +0.005 C 
ATOM     10  C   UNL     1     -10.053  -9.426   8.967  0.00  0.00    +0.005 C 
ENDBRANCH  11   7
ENDBRANCH   5  11
BRANCH   6  17
ATOM     17  C   UNL     1      -4.578 -10.777   9.892  0.00  0.00    +0.119 C 
BRANCH  17  18
ATOM     18  C   UNL     1      -3.310 -10.165  10.424  0.00  0.00    -0.033 A 
ATOM     19  C   UNL     1      -2.689 -10.714  11.546  0.00  0.00    +0.006 A 
ATOM     20  C   UNL     1      -2.757  -9.049   9.797  0.00  0.00    +0.006 A 
ATOM     21  C   UNL     1      -1.513 -10.147  12.040  0.00  0.00    +0.015 A 
ATOM     22  C   UNL     1      -1.582  -8.482  10.291  0.00  0.00    +0.015 A 
ATOM     23  C   UNL     1      -0.960  -9.031  11.412  0.00  0.00    +0.059 A 
BRANCH  23  24
ATOM      4  O   UNL     1       1.299  -8.255  11.275  0.00  0.00    -0.245 OA
ATOM     24  C   UNL     1       0.265  -8.440  11.926  0.00  0.00    +0.337 C 
BRANCH  24   3
ATOM      3  O   UNL     1       0.166  -8.096  13.239  0.00  0.00    -0.477 OA
ATOM     25  H   UNL     1       0.080  -8.884  13.817  0.00  0.00    +0.295 HD
ENDBRANCH  24   3
ENDBRANCH  23  24
ENDBRANCH  17  18
ENDBRANCH   6  17
TORSDOF 6
ENDMDL
MODEL 8
REMARK VINA RESULT:      -0.7      3.187      4.775
REMARK  Name = 56775002
REMARK  6 active torsions:
REMARK  status: ('A' for Active; 'I' for Inactive)
REMARK    1  A    between atoms: O_3  and  C_24
REMARK    2  A    between atoms: N_5  and  C_11
REMARK    3  A    between atoms: N_6  and  C_17
REMARK    4  A    between atoms: C_7  and  C_11
REMARK    5  A    between atoms: C_17  and  C_18
REMARK    6  A    between atoms: C_23  and  C_24
REMARK                            x       y       z     vdW  Elec       q    Type
REMARK                         _______ _______ _______ _____ _____    ______ ____
ROOT
ATOM      1  O   UNL     1      -2.717   4.434  26.651  0.00  0.00    -0.364 OA
ATOM      2  O   UNL     1      -5.889   2.901  26.688  0.00  0.00    -0.273 OA
ATOM      5  N   UNL     1      -4.472   3.265  24.879  0.00  0.00    -0.293 N 
ATOM      6  N   UNL     1      -0.954   3.649  23.980  0.00  0.00    -0.294 NA
ATOM      8  C   UNL     1      -3.225   3.830  24.370  0.00  0.00    +0.120 C 
ATOM     12  C   UNL     1      -2.550   4.839  25.294  0.00  0.00    +0.154 C 
ATOM     13  C   UNL     1      -2.124   2.792  24.172  0.00  0.00    +0.110 C 
ATOM     14  C   UNL     1      -1.059   4.741  24.956  0.00  0.00    +0.118 C 
ATOM     15  C   UNL     1      -4.894   3.434  26.194  0.00  0.00    +0.242 C 
ATOM     16  C   UNL     1      -4.080   4.416  27.008  0.00  0.00    +0.256 C 
ENDROOT
BRANCH   5  11
ATOM     11  C   UNL     1      -5.234   2.417  23.970  0.00  0.00    +0.111 C 
BRANCH  11   7
ATOM      7  C   UNL     1      -5.312   1.019  24.478  0.00  0.00    +0.006 C 
ATOM      9  C   UNL     1      -4.379  -0.016  23.923  0.00  0.00    +0.005 C 
ATOM     10  C   UNL     1      -4.197   0.482  25.326  0.00  0.00    +0.005 C 
ENDBRANCH  11   7
ENDBRANCH   5  11
BRANCH   6  17
ATOM     17  C   UNL     1       0.300   2.920  24.079  0.00  0.00    +0.119 C 
BRANCH  17  18
ATOM     18  C   UNL     1       0.078   1.455  24.345  0.00  0.00    -0.033 A 
ATOM     19  C   UNL     1      -0.570   1.050  25.513  0.00  0.00    +0.006 A 
ATOM     20  C   UNL     1       0.519   0.504  23.426  0.00  0.00    +0.006 A 
ATOM     21  C   UNL     1      -0.776  -0.308  25.761  0.00  0.00    +0.015 A 
ATOM     22  C   UNL     1       0.313  -0.853  23.674  0.00  0.00    +0.015 A 
ATOM     23  C   UNL     1      -0.334  -1.259  24.840  0.00  0.00    +0.059 A 
BRANCH  23  24
ATOM      4  O   UNL     1       0.271  -3.441  25.612  0.00  0.00    -0.245 OA
ATOM     24  C   UNL     1      -0.550  -2.674  25.098  0.00  0.00    +0.337 C 
BRANCH  24   3
ATOM      3  O   UNL     1      -1.785  -3.092  24.707  0.00  0.00    -0.477 OA
ATOM     25  H   UNL     1      -1.735  -3.880  24.124  0.00  0.00    +0.295 HD
ENDBRANCH  24   3
ENDBRANCH  23  24
ENDBRANCH  17  18
ENDBRANCH   6  17
TORSDOF 6
ENDMDL
MODEL 9
REMARK VINA RESULT:      -0.2      1.915      2.404
REMARK  Name = 56775002
REMARK  6 active torsions:
REMARK  status: ('A' for Active; 'I' for Inactive)
REMARK    1  A    between atoms: O_3  and  C_24
REMARK    2  A    between atoms: N_5  and  C_11
REMARK    3  A    between atoms: N_6  and  C_17
REMARK    4  A    between atoms: C_7  and  C_11
REMARK    5  A    between atoms: C_17  and  C_18
REMARK    6  A    between atoms: C_23  and  C_24
REMARK                            x       y       z     vdW  Elec       q    Type
REMARK                         _______ _______ _______ _____ _____    ______ ____
ROOT
ATOM      1  O   UNL     1      -1.553  -2.227  24.166  0.00  0.00    -0.364 OA
ATOM      2  O   UNL     1      -5.057  -2.468  23.885  0.00  0.00    -0.273 OA
ATOM      5  N   UNL     1      -3.771  -0.628  24.500  0.00  0.00    -0.293 N 
ATOM      6  N   UNL     1      -0.478   0.886  24.063  0.00  0.00    -0.294 NA
ATOM      8  C   UNL     1      -2.452  -0.074  24.788  0.00  0.00    +0.120 C 
ATOM     12  C   UNL     1      -1.357  -1.110  25.030  0.00  0.00    +0.154 C 
ATOM     13  C   UNL     1      -1.870   0.741  23.637  0.00  0.00    +0.110 C 
ATOM     14  C   UNL     1      -0.060  -0.413  24.606  0.00  0.00    +0.118 C 
ATOM     15  C   UNL     1      -3.979  -1.976  24.222  0.00  0.00    +0.242 C 
ATOM     16  C   UNL     1      -2.777  -2.869  24.442  0.00  0.00    +0.256 C 
ENDROOT
BRANCH   5  11
ATOM     11  C   UNL     1      -4.880   0.314  24.416  0.00  0.00    +0.111 C 
BRANCH  11   7
ATOM      7  C   UNL     1      -4.678   1.466  25.341  0.00  0.00    +0.006 C 
ATOM      9  C   UNL     1      -4.707   2.861  24.790  0.00  0.00    +0.005 C 
ATOM     10  C   UNL     1      -5.835   2.371  25.649  0.00  0.00    +0.005 C 
ENDBRANCH  11   7
ENDBRANCH   5  11
BRANCH   6  17
ATOM     17  C   UNL     1       0.391   1.360  22.997  0.00  0.00    +0.119 C 
BRANCH  17  18
ATOM     18  C   UNL     1       1.782   0.798  23.118  0.00  0.00    -0.033 A 
ATOM     19  C   UNL     1       1.966  -0.566  23.350  0.00  0.00    +0.006 A 
ATOM     20  C   UNL     1       2.888   1.640  22.999  0.00  0.00    +0.006 A 
ATOM     21  C   UNL     1       3.255  -1.087  23.463  0.00  0.00    +0.015 A 
ATOM     22  C   UNL     1       4.176   1.119  23.110  0.00  0.00    +0.015 A 
ATOM     23  C   UNL     1       4.361  -0.244  23.342  0.00  0.00    +0.059 A 
BRANCH  23  24
ATOM      4  O   UNL     1       6.747  -0.186  23.177  0.00  0.00    -0.245 OA
ATOM     24  C   UNL     1       5.705  -0.787  23.458  0.00  0.00    +0.337 C 
BRANCH  24   3
ATOM      3  O   UNL     1       5.711  -2.066  23.924  0.00  0.00    -0.477 OA
ATOM     25  H   UNL     1       6.188  -2.672  23.317  0.00  0.00    +0.295 HD
ENDBRANCH  24   3
ENDBRANCH  23  24
ENDBRANCH  17  18
ENDBRANCH   6  17
TORSDOF 6
ENDMDL
MODEL 10
REMARK VINA RESULT:       0.0      3.877      5.527
REMARK  Name = 56775002
REMARK  6 active torsions:
REMARK  status: ('A' for Active; 'I' for Inactive)
REMARK    1  A    between atoms: O_3  and  C_24
REMARK    2  A    between atoms: N_5  and  C_11
REMARK    3  A    between atoms: N_6  and  C_17
REMARK    4  A    between atoms: C_7  and  C_11
REMARK    5  A    between atoms: C_17  and  C_18
REMARK    6  A    between atoms: C_23  and  C_24
REMARK                            x       y       z     vdW  Elec       q    Type
REMARK                         _______ _______ _______ _____ _____    ______ ____
ROOT
ATOM      1  O   UNL     1      -1.724   3.866  26.715  0.00  0.00    -0.364 OA
ATOM      2  O   UNL     1      -5.203   4.168  26.247  0.00  0.00    -0.273 OA
ATOM      5  N   UNL     1      -3.543   3.851  24.647  0.00  0.00    -0.293 N 
ATOM      6  N   UNL     1      -0.215   2.431  24.161  0.00  0.00    -0.294 NA
ATOM      8  C   UNL     1      -2.122   3.725  24.338  0.00  0.00    +0.120 C 
ATOM     12  C   UNL     1      -1.179   4.199  25.440  0.00  0.00    +0.154 C 
ATOM     13  C   UNL     1      -1.670   2.282  24.130  0.00  0.00    +0.110 C 
ATOM     14  C   UNL     1       0.095   3.371  25.246  0.00  0.00    +0.118 C 
ATOM     15  C   UNL     1      -4.015   4.143  25.923  0.00  0.00    +0.242 C 
ATOM     16  C   UNL     1      -2.950   4.528  26.928  0.00  0.00    +0.256 C 
ENDROOT
BRANCH   5  11
ATOM     11  C   UNL     1      -4.482   3.560  23.570  0.00  0.00    +0.111 C 
BRANCH  11   7
ATOM      7  C   UNL     1      -4.939   2.142  23.623  0.00  0.00    +0.006 C 
ATOM      9  C   UNL     1      -4.707   1.344  24.872  0.00  0.00    +0.005 C 
ATOM     10  C   UNL     1      -6.096   1.776  24.506  0.00  0.00    +0.005 C 
ENDBRANCH  11   7
ENDBRANCH   5  11
BRANCH   6  17
ATOM     17  C   UNL     1       0.477   1.159  24.299  0.00  0.00    +0.119 C 
BRANCH  17  18
ATOM     18  C   UNL     1      -0.482   0.017  24.501  0.00  0.00    -0.033 A 
ATOM     19  C   UNL     1      -1.341   0.015  25.601  0.00  0.00    +0.006 A 
ATOM     20  C   UNL     1      -0.513  -1.038  23.590  0.00  0.00    +0.006 A 
ATOM     21  C   UNL     1      -2.230  -1.044  25.789  0.00  0.00    +0.015 A 
ATOM     22  C   UNL     1      -1.403  -2.096  23.778  0.00  0.00    +0.015 A 
ATOM     23  C   UNL     1      -2.261  -2.099  24.877  0.00  0.00    +0.059 A 
BRANCH  23  24
ATOM      4  O   UNL     1      -3.268  -3.900  26.089  0.00  0.00    -0.245 OA
ATOM     24  C   UNL     1      -3.188  -3.202  25.072  0.00  0.00    +0.337 C 
BRANCH  24   3
ATOM      3  O   UNL     1      -3.993  -3.403  23.992  0.00  0.00    -0.477 OA
ATOM     25  H   UNL     1      -4.890  -3.699  24.257  0.00  0.00    +0.295 HD
ENDBRANCH  24   3
ENDBRANCH  23  24
ENDBRANCH  17  18
ENDBRANCH   6  17
TORSDOF 6
ENDMDL
