MODEL 1
REMARK VINA RESULT:      -4.3      0.000      0.000
REMARK  Name = 26743240
REMARK  8 active torsions:
REMARK  status: ('A' for Active; 'I' for Inactive)
REMARK    1  A    between atoms: N_5  and  C_24
REMARK    2  A    between atoms: C_6  and  C_11
REMARK    3  A    between atoms: C_7  and  C_13
REMARK    4  A    between atoms: C_10  and  C_18
REMARK    5  A    between atoms: C_11  and  C_20
REMARK    6  A    between atoms: C_13  and  C_23
REMARK    7  A    between atoms: C_18  and  C_21
REMARK    8  A    between atoms: C_24  and  C_25
REMARK                            x       y       z     vdW  Elec       q    Type
REMARK                         _______ _______ _______ _____ _____    ______ ____
ROOT
ATOM      3  N   UNL     1      -0.328   5.264  24.640  0.00  0.00    -0.316 NA
ATOM      6  C   UNL     1      -1.494   3.398  25.790  0.00  0.00    +0.012 C 
ATOM      7  C   UNL     1      -2.797   4.228  25.879  0.00  0.00    +0.004 C 
ATOM      8  C   UNL     1      -2.444   5.724  25.829  0.00  0.00    +0.019 C 
ATOM      9  C   UNL     1      -0.626   3.832  24.597  0.00  0.00    +0.085 C 
ATOM     12  C   UNL     1      -1.546   6.072  24.642  0.00  0.00    +0.081 C 
ATOM     31  H   UNL     1       0.241   5.514  23.831  0.00  0.00    +0.122 HD
ENDROOT
BRANCH   6  11
ATOM     11  C   UNL     1      -1.746   1.890  25.750  0.00  0.00    +0.064 C 
BRANCH  11  20
ATOM      1  O   UNL     1      -0.700   0.378  22.654  0.00  0.00    -0.359 OA
ATOM      4  N   UNL     1      -1.657   0.953  23.480  0.00  0.00    -0.083 NA
ATOM     20  C   UNL     1      -1.010   1.243  24.612  0.00  0.00    +0.084 A 
ATOM     21  C   UNL     1       0.489   0.337  23.308  0.00  0.00    +0.138 A 
ATOM     22  C   UNL     1       0.346   0.875  24.560  0.00  0.00    +0.071 A 
BRANCH  21  18
ATOM     18  C   UNL     1       1.620  -0.246  22.576  0.00  0.00    +0.080 C 
BRANCH  18  10
ATOM     10  C   UNL     1       2.950  -0.107  23.316  0.00  0.00    -0.004 C 
ATOM     14  C   UNL     1       3.666  -1.462  23.401  0.00  0.00    +0.004 C 
ATOM     15  C   UNL     1       3.842   0.941  22.637  0.00  0.00    +0.004 C 
ATOM     16  C   UNL     1       5.023  -1.340  24.090  0.00  0.00    +0.000 C 
ATOM     17  C   UNL     1       5.198   1.059  23.328  0.00  0.00    +0.000 C 
ATOM     19  C   UNL     1       5.903  -0.291  23.418  0.00  0.00    +0.000 C 
ENDBRANCH  18  10
ENDBRANCH  21  18
ENDBRANCH  11  20
ENDBRANCH   6  11
BRANCH   7  13
ATOM     13  C   UNL     1      -3.836   3.877  24.806  0.00  0.00    +0.099 C 
BRANCH  13  23
ATOM      2  O   UNL     1      -5.548   2.862  26.180  0.00  0.00    -0.276 OA
ATOM      5  N   UNL     1      -4.586   1.631  24.459  0.00  0.00    -0.311 N 
ATOM     23  C   UNL     1      -4.758   2.761  25.245  0.00  0.00    +0.214 C 
ATOM     32  H   UNL     1      -3.891   1.641  23.718  0.00  0.00    +0.149 HD
BRANCH   5  24
ATOM     24  C   UNL     1      -5.336   0.411  24.655  0.00  0.00    +0.139 C 
BRANCH  24  25
ATOM     25  C   UNL     1      -4.441  -0.790  24.742  0.00  0.00    -0.030 A 
ATOM     26  C   UNL     1      -3.596  -0.952  25.840  0.00  0.00    +0.005 A 
ATOM     27  C   UNL     1      -4.452  -1.745  23.725  0.00  0.00    +0.005 A 
ATOM     28  C   UNL     1      -2.763  -2.068  25.922  0.00  0.00    +0.000 A 
ATOM     29  C   UNL     1      -3.620  -2.862  23.807  0.00  0.00    +0.000 A 
ATOM     30  C   UNL     1      -2.776  -3.023  24.905  0.00  0.00    +0.000 A 
ENDBRANCH  24  25
ENDBRANCH   5  24
ENDBRANCH  13  23
ENDBRANCH   7  13
TORSDOF 8
ENDMDL
MODEL 2
REMARK VINA RESULT:      -2.2      1.465      6.841
REMARK  Name = 26743240
REMARK  8 active torsions:
REMARK  status: ('A' for Active; 'I' for Inactive)
REMARK    1  A    between atoms: N_5  and  C_24
REMARK    2  A    between atoms: C_6  and  C_11
REMARK    3  A    between atoms: C_7  and  C_13
REMARK    4  A    between atoms: C_10  and  C_18
REMARK    5  A    between atoms: C_11  and  C_20
REMARK    6  A    between atoms: C_13  and  C_23
REMARK    7  A    between atoms: C_18  and  C_21
REMARK    8  A    between atoms: C_24  and  C_25
REMARK                            x       y       z     vdW  Elec       q    Type
REMARK                         _______ _______ _______ _____ _____    ______ ____
ROOT
ATOM      3  N   UNL     1      -3.014  -3.394  24.876  0.00  0.00    -0.316 NA
ATOM      6  C   UNL     1      -3.860  -1.059  24.860  0.00  0.00    +0.012 C 
ATOM      7  C   UNL     1      -2.430  -0.511  24.645  0.00  0.00    +0.004 C 
ATOM      8  C   UNL     1      -1.413  -1.536  25.176  0.00  0.00    +0.019 C 
ATOM      9  C   UNL     1      -4.010  -2.486  24.306  0.00  0.00    +0.085 C 
ATOM     12  C   UNL     1      -1.651  -2.937  24.614  0.00  0.00    +0.081 C 
ATOM     31  H   UNL     1      -3.140  -4.325  24.480  0.00  0.00    +0.122 HD
ENDROOT
BRANCH   6  11
ATOM     11  C   UNL     1      -4.945  -0.145  24.289  0.00  0.00    +0.064 C 
BRANCH  11  20
ATOM      1  O   UNL     1      -5.741   2.809  26.187  0.00  0.00    -0.359 OA
ATOM      4  N   UNL     1      -6.053   1.558  25.671  0.00  0.00    -0.083 NA
ATOM     20  C   UNL     1      -4.967   1.182  24.991  0.00  0.00    +0.084 A 
ATOM     21  C   UNL     1      -4.483   3.149  25.806  0.00  0.00    +0.138 A 
ATOM     22  C   UNL     1      -3.946   2.147  25.041  0.00  0.00    +0.071 A 
BRANCH  21  18
ATOM     18  C   UNL     1      -3.988   4.452  26.267  0.00  0.00    +0.080 C 
BRANCH  18  10
ATOM     10  C   UNL     1      -2.472   4.597  26.141  0.00  0.00    -0.004 C 
ATOM     14  C   UNL     1      -1.792   3.222  26.174  0.00  0.00    +0.004 C 
ATOM     15  C   UNL     1      -2.105   5.360  24.861  0.00  0.00    +0.004 C 
ATOM     16  C   UNL     1      -0.280   3.337  25.996  0.00  0.00    +0.000 C 
ATOM     17  C   UNL     1      -0.592   5.471  24.686  0.00  0.00    +0.000 C 
ATOM     19  C   UNL     1       0.081   4.102  24.727  0.00  0.00    +0.000 C 
ENDBRANCH  18  10
ENDBRANCH  21  18
ENDBRANCH  11  20
ENDBRANCH   6  11
BRANCH   7  13
ATOM     13  C   UNL     1      -2.117  -0.137  23.190  0.00  0.00    +0.099 C 
BRANCH  13  23
ATOM      2  O   UNL     1      -1.414   2.166  22.956  0.00  0.00    -0.276 OA
ATOM      5  N   UNL     1       0.191   0.500  23.171  0.00  0.00    -0.311 N 
ATOM     23  C   UNL     1      -1.105   0.985  23.092  0.00  0.00    +0.214 C 
ATOM     32  H   UNL     1       0.343  -0.501  23.265  0.00  0.00    +0.149 HD
BRANCH   5  24
ATOM     24  C   UNL     1       1.358   1.349  23.103  0.00  0.00    +0.139 C 
BRANCH  24  25
ATOM     25  C   UNL     1       2.631   0.567  23.247  0.00  0.00    -0.030 A 
ATOM     26  C   UNL     1       3.862   1.197  23.065  0.00  0.00    +0.005 A 
ATOM     27  C   UNL     1       2.584  -0.791  23.562  0.00  0.00    +0.005 A 
ATOM     28  C   UNL     1       5.045   0.471  23.198  0.00  0.00    +0.000 A 
ATOM     29  C   UNL     1       3.768  -1.518  23.696  0.00  0.00    +0.000 A 
ATOM     30  C   UNL     1       4.997  -0.887  23.514  0.00  0.00    +0.000 A 
ENDBRANCH  24  25
ENDBRANCH   5  24
ENDBRANCH  13  23
ENDBRANCH   7  13
TORSDOF 8
ENDMDL
MODEL 3
REMARK VINA RESULT:      -1.1      1.878      7.680
REMARK  Name = 26743240
REMARK  8 active torsions:
REMARK  status: ('A' for Active; 'I' for Inactive)
REMARK    1  A    between atoms: N_5  and  C_24
REMARK    2  A    between atoms: C_6  and  C_11
REMARK    3  A    between atoms: C_7  and  C_13
REMARK    4  A    between atoms: C_10  and  C_18
REMARK    5  A    between atoms: C_11  and  C_20
REMARK    6  A    between atoms: C_13  and  C_23
REMARK    7  A    between atoms: C_18  and  C_21
REMARK    8  A    between atoms: C_24  and  C_25
REMARK                            x       y       z     vdW  Elec       q    Type
REMARK                         _______ _______ _______ _____ _____    ______ ____
ROOT
ATOM      3  N   UNL     1      -3.309  -1.824  25.612  0.00  0.00    -0.316 NA
ATOM      6  C   UNL     1      -1.008  -0.966  25.979  0.00  0.00    +0.012 C 
ATOM      7  C   UNL     1      -0.614  -1.316  24.524  0.00  0.00    +0.004 C 
ATOM      8  C   UNL     1      -1.531  -2.440  24.012  0.00  0.00    +0.019 C 
ATOM      9  C   UNL     1      -2.517  -0.698  26.109  0.00  0.00    +0.085 C 
ATOM     12  C   UNL     1      -3.012  -2.120  24.213  0.00  0.00    +0.081 C 
ATOM     31  H   UNL     1      -4.301  -1.606  25.708  0.00  0.00    +0.122 HD
ENDROOT
BRANCH   6  11
ATOM     11  C   UNL     1      -0.204   0.202  26.553  0.00  0.00    +0.064 C 
BRANCH  11  20
ATOM      1  O   UNL     1      -0.363   3.432  24.972  0.00  0.00    -0.359 OA
ATOM      4  N   UNL     1       0.336   2.352  25.495  0.00  0.00    -0.083 NA
ATOM     20  C   UNL     1      -0.603   1.503  25.921  0.00  0.00    +0.084 A 
ATOM     21  C   UNL     1      -1.696   3.205  25.097  0.00  0.00    +0.138 A 
ATOM     22  C   UNL     1      -1.903   1.990  25.696  0.00  0.00    +0.071 A 
BRANCH  21  18
ATOM     18  C   UNL     1      -2.591   4.254  24.592  0.00  0.00    +0.080 C 
BRANCH  18  10
ATOM     10  C   UNL     1      -4.052   3.813  24.517  0.00  0.00    -0.004 C 
ATOM     14  C   UNL     1      -4.151   2.331  24.133  0.00  0.00    +0.004 C 
ATOM     15  C   UNL     1      -4.768   4.083  25.847  0.00  0.00    +0.004 C 
ATOM     16  C   UNL     1      -5.601   1.852  24.105  0.00  0.00    +0.000 C 
ATOM     17  C   UNL     1      -6.216   3.601  25.815  0.00  0.00    +0.000 C 
ATOM     19  C   UNL     1      -6.311   2.129  25.425  0.00  0.00    +0.000 C 
ENDBRANCH  18  10
ENDBRANCH  21  18
ENDBRANCH  11  20
ENDBRANCH   6  11
BRANCH   7  13
ATOM     13  C   UNL     1      -0.633  -0.118  23.566  0.00  0.00    +0.099 C 
BRANCH  13  23
ATOM      2  O   UNL     1       0.804  -0.729  21.719  0.00  0.00    -0.276 OA
ATOM      5  N   UNL     1       1.509   0.895  23.225  0.00  0.00    -0.311 N 
ATOM     23  C   UNL     1       0.619  -0.041  22.720  0.00  0.00    +0.214 C 
ATOM     32  H   UNL     1       1.270   1.402  24.072  0.00  0.00    +0.149 HD
BRANCH   5  24
ATOM     24  C   UNL     1       2.789   1.176  22.616  0.00  0.00    +0.139 C 
BRANCH  24  25
ATOM     25  C   UNL     1       3.883   0.323  23.191  0.00  0.00    -0.030 A 
ATOM     26  C   UNL     1       3.652  -1.028  23.446  0.00  0.00    +0.005 A 
ATOM     27  C   UNL     1       5.130   0.882  23.471  0.00  0.00    +0.005 A 
ATOM     28  C   UNL     1       4.668  -1.821  23.981  0.00  0.00    +0.000 A 
ATOM     29  C   UNL     1       6.146   0.090  24.006  0.00  0.00    +0.000 A 
ATOM     30  C   UNL     1       5.915  -1.261  24.260  0.00  0.00    +0.000 A 
ENDBRANCH  24  25
ENDBRANCH   5  24
ENDBRANCH  13  23
ENDBRANCH   7  13
TORSDOF 8
ENDMDL
MODEL 4
REMARK VINA RESULT:      -1.0      1.124      6.294
REMARK  Name = 26743240
REMARK  8 active torsions:
REMARK  status: ('A' for Active; 'I' for Inactive)
REMARK    1  A    between atoms: N_5  and  C_24
REMARK    2  A    between atoms: C_6  and  C_11
REMARK    3  A    between atoms: C_7  and  C_13
REMARK    4  A    between atoms: C_10  and  C_18
REMARK    5  A    between atoms: C_11  and  C_20
REMARK    6  A    between atoms: C_13  and  C_23
REMARK    7  A    between atoms: C_18  and  C_21
REMARK    8  A    between atoms: C_24  and  C_25
REMARK                            x       y       z     vdW  Elec       q    Type
REMARK                         _______ _______ _______ _____ _____    ______ ____
ROOT
ATOM      3  N   UNL     1      -0.551   6.004  24.252  0.00  0.00    -0.316 NA
ATOM      6  C   UNL     1      -2.268   4.368  24.988  0.00  0.00    +0.012 C 
ATOM      7  C   UNL     1      -1.450   3.197  24.392  0.00  0.00    +0.004 C 
ATOM      8  C   UNL     1      -0.544   3.737  23.272  0.00  0.00    +0.019 C 
ATOM      9  C   UNL     1      -1.364   5.549  25.380  0.00  0.00    +0.085 C 
ATOM     12  C   UNL     1       0.292   4.934  23.724  0.00  0.00    +0.081 C 
ATOM     31  H   UNL     1       0.038   6.781  24.553  0.00  0.00    +0.122 HD
ENDROOT
BRANCH   6  11
ATOM     11  C   UNL     1      -3.144   3.947  26.169  0.00  0.00    +0.064 C 
BRANCH  11  20
ATOM      1  O   UNL     1      -6.027   1.859  25.627  0.00  0.00    -0.359 OA
ATOM      4  N   UNL     1      -5.401   2.978  26.163  0.00  0.00    -0.083 NA
ATOM     20  C   UNL     1      -4.129   2.887  25.767  0.00  0.00    +0.084 A 
ATOM     21  C   UNL     1      -5.118   1.131  24.927  0.00  0.00    +0.138 A 
ATOM     22  C   UNL     1      -3.894   1.742  24.986  0.00  0.00    +0.071 A 
BRANCH  21  18
ATOM     18  C   UNL     1      -5.613  -0.095  24.288  0.00  0.00    +0.080 C 
BRANCH  18  10
ATOM     10  C   UNL     1      -4.783  -1.330  24.637  0.00  0.00    -0.004 C 
ATOM     14  C   UNL     1      -4.145  -1.926  23.375  0.00  0.00    +0.004 C 
ATOM     15  C   UNL     1      -3.714  -0.988  25.683  0.00  0.00    +0.004 C 
ATOM     16  C   UNL     1      -3.267  -3.132  23.704  0.00  0.00    +0.000 C 
ATOM     17  C   UNL     1      -2.837  -2.195  26.007  0.00  0.00    +0.000 C 
ATOM     19  C   UNL     1      -2.210  -2.790  24.750  0.00  0.00    +0.000 C 
ENDBRANCH  18  10
ENDBRANCH  21  18
ENDBRANCH  11  20
ENDBRANCH   6  11
BRANCH   7  13
ATOM     13  C   UNL     1      -0.630   2.417  25.427  0.00  0.00    +0.099 C 
BRANCH  13  23
ATOM      2  O   UNL     1      -0.585  -0.001  25.445  0.00  0.00    -0.276 OA
ATOM      5  N   UNL     1       0.605   1.150  23.814  0.00  0.00    -0.311 N 
ATOM     23  C   UNL     1      -0.222   1.050  24.923  0.00  0.00    +0.214 C 
ATOM     32  H   UNL     1       0.863   2.070  23.469  0.00  0.00    +0.149 HD
BRANCH   5  24
ATOM     24  C   UNL     1       1.148   0.001  23.127  0.00  0.00    +0.139 C 
BRANCH  24  25
ATOM     25  C   UNL     1       2.643  -0.064  23.237  0.00  0.00    -0.030 A 
ATOM     26  C   UNL     1       3.418   1.030  22.854  0.00  0.00    +0.005 A 
ATOM     27  C   UNL     1       3.258  -1.219  23.720  0.00  0.00    +0.005 A 
ATOM     28  C   UNL     1       4.809   0.970  22.955  0.00  0.00    +0.000 A 
ATOM     29  C   UNL     1       4.649  -1.279  23.822  0.00  0.00    +0.000 A 
ATOM     30  C   UNL     1       5.423  -0.185  23.439  0.00  0.00    +0.000 A 
ENDBRANCH  24  25
ENDBRANCH   5  24
ENDBRANCH  13  23
ENDBRANCH   7  13
TORSDOF 8
ENDMDL
MODEL 5
REMARK VINA RESULT:      -0.8      1.569      4.801
REMARK  Name = 26743240
REMARK  8 active torsions:
REMARK  status: ('A' for Active; 'I' for Inactive)
REMARK    1  A    between atoms: N_5  and  C_24
REMARK    2  A    between atoms: C_6  and  C_11
REMARK    3  A    between atoms: C_7  and  C_13
REMARK    4  A    between atoms: C_10  and  C_18
REMARK    5  A    between atoms: C_11  and  C_20
REMARK    6  A    between atoms: C_13  and  C_23
REMARK    7  A    between atoms: C_18  and  C_21
REMARK    8  A    between atoms: C_24  and  C_25
REMARK                            x       y       z     vdW  Elec       q    Type
REMARK                         _______ _______ _______ _____ _____    ______ ____
ROOT
ATOM      3  N   UNL     1      -2.116  -3.023  25.904  0.00  0.00    -0.316 NA
ATOM      6  C   UNL     1      -2.004  -0.959  24.527  0.00  0.00    +0.012 C 
ATOM      7  C   UNL     1      -3.470  -1.149  24.069  0.00  0.00    +0.004 C 
ATOM      8  C   UNL     1      -3.841  -2.639  24.177  0.00  0.00    +0.019 C 
ATOM      9  C   UNL     1      -1.749  -1.606  25.898  0.00  0.00    +0.085 C 
ATOM     12  C   UNL     1      -3.521  -3.221  25.553  0.00  0.00    +0.081 C 
ATOM     31  H   UNL     1      -1.941  -3.413  26.829  0.00  0.00    +0.122 HD
ENDROOT
BRANCH   6  11
ATOM     11  C   UNL     1      -1.564   0.506  24.534  0.00  0.00    +0.064 C 
BRANCH  11  20
ATOM      1  O   UNL     1       1.738   1.504  23.502  0.00  0.00    -0.359 OA
ATOM      4  N   UNL     1       0.616   1.618  24.313  0.00  0.00    -0.083 NA
ATOM     20  C   UNL     1      -0.225   0.677  23.876  0.00  0.00    +0.084 A 
ATOM     21  C   UNL     1       1.542   0.504  22.605  0.00  0.00    +0.138 A 
ATOM     22  C   UNL     1       0.307  -0.056  22.800  0.00  0.00    +0.071 A 
BRANCH  21  18
ATOM     18  C   UNL     1       2.638   0.244  21.663  0.00  0.00    +0.080 C 
BRANCH  18  10
ATOM     10  C   UNL     1       3.916  -0.240  22.346  0.00  0.00    -0.004 C 
ATOM     14  C   UNL     1       4.706   0.945  22.918  0.00  0.00    +0.004 C 
ATOM     15  C   UNL     1       3.591  -1.262  23.443  0.00  0.00    +0.004 C 
ATOM     16  C   UNL     1       5.962   0.482  23.653  0.00  0.00    +0.000 C 
ATOM     17  C   UNL     1       4.849  -1.720  24.176  0.00  0.00    +0.000 C 
ATOM     19  C   UNL     1       5.636  -0.540  24.737  0.00  0.00    +0.000 C 
ENDBRANCH  18  10
ENDBRANCH  21  18
ENDBRANCH  11  20
ENDBRANCH   6  11
BRANCH   7  13
ATOM     13  C   UNL     1      -4.480  -0.281  24.830  0.00  0.00    +0.099 C 
BRANCH  13  23
ATOM      2  O   UNL     1      -3.811   1.653  23.540  0.00  0.00    -0.276 OA
ATOM      5  N   UNL     1      -4.634   1.947  25.693  0.00  0.00    -0.311 N 
ATOM     23  C   UNL     1      -4.262   1.197  24.587  0.00  0.00    +0.214 C 
ATOM     32  H   UNL     1      -4.980   1.472  26.522  0.00  0.00    +0.149 HD
BRANCH   5  24
ATOM     24  C   UNL     1      -4.531   3.388  25.741  0.00  0.00    +0.139 C 
BRANCH  24  25
ATOM     25  C   UNL     1      -3.129   3.859  25.491  0.00  0.00    -0.030 A 
ATOM     26  C   UNL     1      -2.064   3.275  26.175  0.00  0.00    +0.005 A 
ATOM     27  C   UNL     1      -2.890   4.883  24.574  0.00  0.00    +0.005 A 
ATOM     28  C   UNL     1      -0.760   3.713  25.944  0.00  0.00    +0.000 A 
ATOM     29  C   UNL     1      -1.586   5.322  24.342  0.00  0.00    +0.000 A 
ATOM     30  C   UNL     1      -0.521   4.737  25.026  0.00  0.00    +0.000 A 
ENDBRANCH  24  25
ENDBRANCH   5  24
ENDBRANCH  13  23
ENDBRANCH   7  13
TORSDOF 8
ENDMDL
