MODEL 1
REMARK VINA RESULT:      -4.0      0.000      0.000
REMARK  Name = 28963135
REMARK  11 active torsions:
REMARK  status: ('A' for Active; 'I' for Inactive)
REMARK    1  A    between atoms: O_1  and  C_10
REMARK    2  A    between atoms: N_4  and  C_14
REMARK    3  A    between atoms: N_5  and  C_23
REMARK    4  A    between atoms: N_6  and  C_24
REMARK    5  A    between atoms: C_7  and  C_17
REMARK    6  A    between atoms: C_9  and  C_19
REMARK    7  A    between atoms: C_13  and  C_18
REMARK    8  A    between atoms: C_18  and  C_20
REMARK    9  A    between atoms: C_18  and  C_21
REMARK   10  A    between atoms: C_23  and  C_25
REMARK   11  A    between atoms: C_24  and  C_26
REMARK                            x       y       z     vdW  Elec       q    Type
REMARK                         _______ _______ _______ _____ _____    ______ ____
ROOT
ATOM      7  C   UNL     1      -2.163  -0.701  24.994  0.00  0.00    -0.027 C 
ATOM      8  C   UNL     1      -2.359   0.487  23.994  0.00  0.00    +0.028 C 
ATOM      9  C   UNL     1      -0.996   1.218  23.720  0.00  0.00    +0.012 C 
ATOM     10  C   UNL     1      -3.534   1.406  24.434  0.00  0.00    +0.122 C 
ATOM     11  C   UNL     1      -3.496  -1.468  25.152  0.00  0.00    +0.007 C 
ATOM     12  C   UNL     1      -1.121  -1.685  24.410  0.00  0.00    +0.009 C 
ATOM     13  C   UNL     1      -4.841   0.618  24.692  0.00  0.00    +0.029 C 
ATOM     14  C   UNL     1       0.065   0.206  23.205  0.00  0.00    +0.078 C 
ATOM     15  C   UNL     1      -4.640  -0.579  25.621  0.00  0.00    +0.007 C 
ATOM     16  C   UNL     1       0.215  -1.025  24.099  0.00  0.00    +0.023 C 
ATOM     17  C   UNL     1      -1.690  -0.228  26.391  0.00  0.00    +0.011 C 
ATOM     19  C   UNL     1      -1.111   2.382  22.720  0.00  0.00    +0.010 C 
ENDROOT
BRANCH  14   4
ATOM      3  O   UNL     1       2.620  -1.129  23.076  0.00  0.00    -0.253 OA
ATOM      4  N   UNL     1       1.366   0.823  23.053  0.00  0.00    -0.296 N 
ATOM      6  N   UNL     1       3.650   0.937  22.851  0.00  0.00    -0.300 N 
ATOM     22  C   UNL     1       2.549   0.096  23.001  0.00  0.00    +0.300 C 
ATOM     32  H   UNL     1       1.423   1.837  23.064  0.00  0.00    +0.151 HD
ATOM     35  H   UNL     1       3.494   1.939  22.784  0.00  0.00    +0.150 HD
BRANCH   6  24
ATOM     24  C   UNL     1       5.005   0.445  22.768  0.00  0.00    +0.102 C 
ATOM     26  C   UNL     1       5.518   0.001  24.121  0.00  0.00    +0.024 C 
ENDBRANCH   6  24
ENDBRANCH  14   4
BRANCH  10   1
ATOM      1  O   UNL     1      -3.822   2.344  23.395  0.00  0.00    -0.391 OA
ATOM     33  H   UNL     1      -4.242   1.863  22.661  0.00  0.00    +0.210 HD
ENDBRANCH  10   1
BRANCH  13  18
ATOM     18  C   UNL     1      -5.948   1.520  25.250  0.00  0.00    +0.077 C 
ATOM     20  C   UNL     1      -7.107   1.601  24.264  0.00  0.00    +0.017 C 
BRANCH  18  21
ATOM      2  O   UNL     1      -5.851   3.934  25.080  0.00  0.00    -0.276 OA
ATOM      5  N   UNL     1      -4.303   2.855  26.428  0.00  0.00    -0.311 N 
ATOM     21  C   UNL     1      -5.384   2.904  25.560  0.00  0.00    +0.216 C 
ATOM     34  H   UNL     1      -4.009   1.968  26.823  0.00  0.00    +0.149 HD
BRANCH   5  23
ATOM     23  C   UNL     1      -3.600   4.038  26.867  0.00  0.00    +0.139 C 
BRANCH  23  25
ATOM     25  C   UNL     1      -2.291   4.212  26.151  0.00  0.00    -0.030 A 
ATOM     27  C   UNL     1      -1.261   3.292  26.348  0.00  0.00    +0.005 A 
ATOM     28  C   UNL     1      -2.106   5.293  25.290  0.00  0.00    +0.005 A 
ATOM     29  C   UNL     1      -0.046   3.454  25.684  0.00  0.00    +0.000 A 
ATOM     30  C   UNL     1      -0.891   5.454  24.625  0.00  0.00    +0.000 A 
ATOM     31  C   UNL     1       0.139   4.534  24.822  0.00  0.00    +0.000 A 
ENDBRANCH  23  25
ENDBRANCH   5  23
ENDBRANCH  18  21
ENDBRANCH  13  18
TORSDOF 7
ENDMDL
MODEL 2
REMARK VINA RESULT:      -0.0      1.792      3.950
REMARK  Name = 28963135
REMARK  11 active torsions:
REMARK  status: ('A' for Active; 'I' for Inactive)
REMARK    1  A    between atoms: O_1  and  C_10
REMARK    2  A    between atoms: N_4  and  C_14
REMARK    3  A    between atoms: N_5  and  C_23
REMARK    4  A    between atoms: N_6  and  C_24
REMARK    5  A    between atoms: C_7  and  C_17
REMARK    6  A    between atoms: C_9  and  C_19
REMARK    7  A    between atoms: C_13  and  C_18
REMARK    8  A    between atoms: C_18  and  C_20
REMARK    9  A    between atoms: C_18  and  C_21
REMARK   10  A    between atoms: C_23  and  C_25
REMARK   11  A    between atoms: C_24  and  C_26
REMARK                            x       y       z     vdW  Elec       q    Type
REMARK                         _______ _______ _______ _____ _____    ______ ____
ROOT
ATOM      7  C   UNL     1      -2.294   1.723  22.516  0.00  0.00    -0.027 C 
ATOM      8  C   UNL     1      -1.534   2.248  23.780  0.00  0.00    +0.028 C 
ATOM      9  C   UNL     1      -0.429   1.227  24.231  0.00  0.00    +0.012 C 
ATOM     10  C   UNL     1      -2.528   2.691  24.892  0.00  0.00    +0.122 C 
ATOM     11  C   UNL     1      -3.294   2.799  22.032  0.00  0.00    +0.007 C 
ATOM     12  C   UNL     1      -1.274   1.484  21.378  0.00  0.00    +0.009 C 
ATOM     13  C   UNL     1      -3.591   3.689  24.376  0.00  0.00    +0.029 C 
ATOM     14  C   UNL     1       0.547   0.936  23.056  0.00  0.00    +0.078 C 
ATOM     15  C   UNL     1      -4.294   3.207  23.106  0.00  0.00    +0.007 C 
ATOM     16  C   UNL     1      -0.161   0.521  21.767  0.00  0.00    +0.023 C 
ATOM     17  C   UNL     1      -3.069   0.410  22.791  0.00  0.00    +0.011 C 
ATOM     19  C   UNL     1       0.379   1.694  25.455  0.00  0.00    +0.010 C 
ENDROOT
BRANCH  14   4
ATOM      3  O   UNL     1       3.407   1.043  22.688  0.00  0.00    -0.253 OA
ATOM      4  N   UNL     1       1.511  -0.089  23.400  0.00  0.00    -0.296 N 
ATOM      6  N   UNL     1       3.571  -1.081  23.607  0.00  0.00    -0.300 N 
ATOM     22  C   UNL     1       2.877   0.051  23.185  0.00  0.00    +0.300 C 
ATOM     32  H   UNL     1       1.165  -0.981  23.742  0.00  0.00    +0.151 HD
ATOM     35  H   UNL     1       3.048  -1.849  24.019  0.00  0.00    +0.150 HD
BRANCH   6  24
ATOM     24  C   UNL     1       5.005  -1.204  23.501  0.00  0.00    +0.102 C 
ATOM     26  C   UNL     1       5.715  -0.131  24.298  0.00  0.00    +0.024 C 
ENDBRANCH   6  24
ENDBRANCH  14   4
BRANCH  10   1
ATOM      1  O   UNL     1      -1.813   3.358  25.933  0.00  0.00    -0.391 OA
ATOM     33  H   UNL     1      -1.768   2.762  26.700  0.00  0.00    +0.210 HD
ENDBRANCH  10   1
BRANCH  13  18
ATOM     18  C   UNL     1      -4.637   4.011  25.449  0.00  0.00    +0.077 C 
ATOM     20  C   UNL     1      -3.992   4.776  26.599  0.00  0.00    +0.017 C 
BRANCH  18  21
ATOM      2  O   UNL     1      -6.246   2.716  26.715  0.00  0.00    -0.276 OA
ATOM      5  N   UNL     1      -4.698   1.588  25.408  0.00  0.00    -0.311 N 
ATOM     21  C   UNL     1      -5.295   2.723  25.937  0.00  0.00    +0.216 C 
ATOM     34  H   UNL     1      -3.949   1.678  24.729  0.00  0.00    +0.149 HD
BRANCH   5  23
ATOM     23  C   UNL     1      -5.144   0.251  25.725  0.00  0.00    +0.139 C 
BRANCH  23  25
ATOM     25  C   UNL     1      -4.120  -0.784  25.359  0.00  0.00    -0.030 A 
ATOM     27  C   UNL     1      -2.858  -0.757  25.953  0.00  0.00    +0.005 A 
ATOM     28  C   UNL     1      -4.431  -1.773  24.426  0.00  0.00    +0.005 A 
ATOM     29  C   UNL     1      -1.908  -1.719  25.614  0.00  0.00    +0.000 A 
ATOM     30  C   UNL     1      -3.480  -2.736  24.088  0.00  0.00    +0.000 A 
ATOM     31  C   UNL     1      -2.219  -2.709  24.682  0.00  0.00    +0.000 A 
ENDBRANCH  23  25
ENDBRANCH   5  23
ENDBRANCH  18  21
ENDBRANCH  13  18
TORSDOF 7
ENDMDL
