MODEL 1
REMARK VINA RESULT:       2.1      0.000      0.000
REMARK  Name = 7144095
REMARK  4 active torsions:
REMARK  status: ('A' for Active; 'I' for Inactive)
REMARK    1  A    between atoms: O_4  and  C_26
REMARK    2  A    between atoms: O_4  and  C_29
REMARK    3  A    between atoms: C_14  and  C_19
REMARK    4  A    between atoms: C_16  and  C_20
REMARK                            x       y       z     vdW  Elec       q    Type
REMARK                         _______ _______ _______ _____ _____    ______ ____
ROOT
ATOM      1  O   UNL     1      -3.234   4.386  27.338  0.00  0.00    -0.268 OA
ATOM      2  O   UNL     1      -5.348   0.595  25.809  0.00  0.00    -0.267 OA
ATOM      5  N   UNL     1      -2.723   3.416  25.268  0.00  0.00    -0.311 N 
ATOM      6  N   UNL     1      -4.225   1.053  23.810  0.00  0.00    -0.294 N 
ATOM      7  C   UNL     1      -4.382   3.479  23.311  0.00  0.00    +0.027 C 
ATOM      8  C   UNL     1      -2.225   2.323  23.060  0.00  0.00    +0.054 C 
ATOM      9  C   UNL     1      -3.136   3.383  22.443  0.00  0.00    +0.018 C 
ATOM     10  C   UNL     1      -3.967   3.959  24.704  0.00  0.00    +0.130 C 
ATOM     11  C   UNL     1      -5.112   2.126  23.363  0.00  0.00    +0.113 C 
ATOM     12  C   UNL     1      -2.953   0.962  23.078  0.00  0.00    +0.117 C 
ATOM     13  C   UNL     1      -1.796   2.704  24.480  0.00  0.00    +0.034 A 
ATOM     14  C   UNL     1      -0.591   2.356  25.000  0.00  0.00    +0.002 A 
ATOM     15  C   UNL     1      -2.468   3.756  26.608  0.00  0.00    +0.252 A 
ATOM     16  C   UNL     1      -4.604   0.253  24.891  0.00  0.00    +0.282 C 
ATOM     17  C   UNL     1      -0.294   2.686  26.381  0.00  0.00    +0.015 A 
ATOM     18  C   UNL     1      -1.162   3.329  27.161  0.00  0.00    +0.071 A 
ENDROOT
BRANCH  14  19
ATOM     19  C   UNL     1       0.422   1.632  24.202  0.00  0.00    -0.016 A 
ATOM     21  C   UNL     1       0.198   0.307  23.840  0.00  0.00    +0.012 A 
ATOM     22  C   UNL     1       1.592   2.280  23.818  0.00  0.00    +0.012 A 
ATOM     24  C   UNL     1       1.154  -0.376  23.088  0.00  0.00    +0.046 A 
ATOM     25  C   UNL     1       2.548   1.597  23.065  0.00  0.00    +0.046 A 
ATOM     26  C   UNL     1       2.328   0.269  22.700  0.00  0.00    +0.120 A 
BRANCH  26   4
ATOM      4  O   UNL     1       3.260  -0.398  21.967  0.00  0.00    -0.495 OA
ATOM     29  C   UNL     1       4.631  -0.166  22.292  0.00  0.00    +0.277 C 
ENDBRANCH  26   4
ENDBRANCH  14  19
BRANCH  16  20
ATOM      3  O   UNL     1      -4.389  -1.967  23.971  0.00  0.00    -0.458 OA
ATOM     20  C   UNL     1      -4.067  -1.110  24.969  0.00  0.00    +0.189 A 
ATOM     23  C   UNL     1      -3.264  -1.711  25.901  0.00  0.00    +0.054 A 
ATOM     27  C   UNL     1      -3.075  -3.039  25.446  0.00  0.00    +0.042 A 
ATOM     28  C   UNL     1      -3.779  -3.144  24.270  0.00  0.00    +0.196 A 
ENDBRANCH  16  20
TORSDOF 3
ENDMDL
