MODEL 1
REMARK VINA RESULT:      -1.5      0.000      0.000
REMARK  Name = 45361055
REMARK  7 active torsions:
REMARK  status: ('A' for Active; 'I' for Inactive)
REMARK    1  A    between atoms: N_4  and  C_19
REMARK    2  A    between atoms: N_5  and  C_18
REMARK    3  A    between atoms: N_8  and  C_24
REMARK    4  A    between atoms: C_14  and  C_17
REMARK    5  A    between atoms: C_17  and  C_20
REMARK    6  A    between atoms: C_18  and  C_21
REMARK    7  A    between atoms: C_20  and  C_22
REMARK                            x       y       z     vdW  Elec       q    Type
REMARK                         _______ _______ _______ _____ _____    ______ ____
ROOT
ATOM      2  O   UNL     1      -1.229   1.515  26.553  0.00  0.00    -0.274 OA
ATOM      4  N   UNL     1      -3.474   3.019  23.781  0.00  0.00    -0.296 NA
ATOM      5  N   UNL     1      -0.172   1.468  24.068  0.00  0.00    -0.284 NA
ATOM      6  N   UNL     1      -2.211   3.568  26.315  0.00  0.00    -0.312 N 
ATOM     10  C   UNL     1      -2.084   2.773  23.337  0.00  0.00    +0.084 C 
ATOM     11  C   UNL     1      -0.970   2.658  24.419  0.00  0.00    +0.161 C 
ATOM     12  C   UNL     1      -1.901   1.462  22.549  0.00  0.00    +0.036 C 
ATOM     13  C   UNL     1      -0.416   1.189  22.658  0.00  0.00    +0.087 C 
ATOM     14  C   UNL     1      -3.679   4.323  24.469  0.00  0.00    +0.074 C 
ATOM     15  C   UNL     1      -1.475   2.495  25.851  0.00  0.00    +0.232 C 
ATOM     16  C   UNL     1      -2.586   4.698  25.488  0.00  0.00    +0.123 C 
ATOM     19  C   UNL     1      -4.414   2.882  22.655  0.00  0.00    +0.105 C 
ATOM     30  H   UNL     1      -2.520   3.552  27.283  0.00  0.00    +0.149 HD
ENDROOT
BRANCH  14  17
ATOM     17  C   UNL     1      -5.032   4.333  25.214  0.00  0.00    +0.029 C 
BRANCH  17  20
ATOM     20  C   UNL     1      -5.140   3.185  26.202  0.00  0.00    +0.098 C 
BRANCH  20  22
ATOM      3  O   UNL     1      -6.402   1.540  24.970  0.00  0.00    -0.275 OA
ATOM      8  N   UNL     1      -4.232   1.022  25.703  0.00  0.00    -0.285 N 
ATOM     22  C   UNL     1      -5.360   1.824  25.552  0.00  0.00    +0.217 C 
ATOM     31  H   UNL     1      -3.440   1.417  26.205  0.00  0.00    +0.155 HD
BRANCH   8  24
ATOM     24  C   UNL     1      -4.046  -0.302  25.239  0.00  0.00    +0.033 A 
ATOM     25  C   UNL     1      -4.497  -0.666  23.972  0.00  0.00    +0.023 A 
ATOM     26  C   UNL     1      -3.410  -1.243  26.050  0.00  0.00    +0.023 A 
ATOM     27  C   UNL     1      -4.314  -1.971  23.514  0.00  0.00    +0.002 A 
ATOM     28  C   UNL     1      -3.228  -2.547  25.593  0.00  0.00    +0.002 A 
ATOM     29  C   UNL     1      -3.679  -2.913  24.325  0.00  0.00    +0.000 A 
ENDBRANCH   8  24
ENDBRANCH  20  22
ENDBRANCH  17  20
ENDBRANCH  14  17
BRANCH   5  18
ATOM     18  C   UNL     1       1.249   1.619  24.359  0.00  0.00    +0.143 C 
BRANCH  18  21
ATOM      1  S   UNL     1       3.915   0.215  21.766  0.00  0.00    +0.028 S 
ATOM      7  N   UNL     1       1.565  -0.087  22.581  0.00  0.00    -0.145 NA
ATOM      9  N   UNL     1       2.438  -0.571  21.710  0.00  0.00    -0.110 NA
ATOM     21  C   UNL     1       2.108   0.952  23.319  0.00  0.00    +0.086 A 
ATOM     23  C   UNL     1       3.415   1.279  23.016  0.00  0.00    +0.093 A 
ENDBRANCH  18  21
ENDBRANCH   5  18
TORSDOF 6
ENDMDL
MODEL 2
REMARK VINA RESULT:      -1.3      2.741      6.801
REMARK  Name = 45361055
REMARK  7 active torsions:
REMARK  status: ('A' for Active; 'I' for Inactive)
REMARK    1  A    between atoms: N_4  and  C_19
REMARK    2  A    between atoms: N_5  and  C_18
REMARK    3  A    between atoms: N_8  and  C_24
REMARK    4  A    between atoms: C_14  and  C_17
REMARK    5  A    between atoms: C_17  and  C_20
REMARK    6  A    between atoms: C_18  and  C_21
REMARK    7  A    between atoms: C_20  and  C_22
REMARK                            x       y       z     vdW  Elec       q    Type
REMARK                         _______ _______ _______ _____ _____    ______ ____
ROOT
ATOM      2  O   UNL     1      -2.889   2.262  22.494  0.00  0.00    -0.274 OA
ATOM      4  N   UNL     1      -2.803  -0.969  24.626  0.00  0.00    -0.296 NA
ATOM      5  N   UNL     1      -4.823   2.071  24.369  0.00  0.00    -0.284 NA
ATOM      6  N   UNL     1      -1.257   1.319  23.793  0.00  0.00    -0.312 N 
ATOM     10  C   UNL     1      -3.717   0.062  25.165  0.00  0.00    +0.084 C 
ATOM     11  C   UNL     1      -3.496   1.544  24.740  0.00  0.00    +0.161 C 
ATOM     12  C   UNL     1      -5.197  -0.159  24.796  0.00  0.00    +0.036 C 
ATOM     13  C   UNL     1      -5.817   1.207  24.994  0.00  0.00    +0.087 C 
ATOM     14  C   UNL     1      -1.383  -0.813  25.046  0.00  0.00    +0.074 C 
ATOM     15  C   UNL     1      -2.551   1.742  23.558  0.00  0.00    +0.232 C 
ATOM     16  C   UNL     1      -0.847   0.631  25.001  0.00  0.00    +0.123 C 
ATOM     19  C   UNL     1      -3.287  -2.320  24.954  0.00  0.00    +0.105 C 
ATOM     30  H   UNL     1      -0.562   1.484  23.070  0.00  0.00    +0.149 HD
ENDROOT
BRANCH  14  17
ATOM     17  C   UNL     1      -0.460  -1.679  24.161  0.00  0.00    +0.029 C 
BRANCH  17  20
ATOM     20  C   UNL     1      -0.366  -1.136  22.745  0.00  0.00    +0.098 C 
BRANCH  20  22
ATOM      3  O   UNL     1       1.322  -0.477  21.155  0.00  0.00    -0.275 OA
ATOM      8  N   UNL     1       1.905  -0.753  23.413  0.00  0.00    -0.285 N 
ATOM     22  C   UNL     1       1.046  -0.755  22.317  0.00  0.00    +0.217 C 
ATOM     31  H   UNL     1       1.510  -0.996  24.319  0.00  0.00    +0.155 HD
BRANCH   8  24
ATOM     24  C   UNL     1       3.287  -0.451  23.425  0.00  0.00    +0.033 A 
ATOM     25  C   UNL     1       3.734   0.788  22.970  0.00  0.00    +0.023 A 
ATOM     26  C   UNL     1       4.203  -1.394  23.894  0.00  0.00    +0.023 A 
ATOM     27  C   UNL     1       5.098   1.086  22.981  0.00  0.00    +0.002 A 
ATOM     28  C   UNL     1       5.565  -1.097  23.905  0.00  0.00    +0.002 A 
ATOM     29  C   UNL     1       6.014   0.143  23.449  0.00  0.00    +0.000 A 
ENDBRANCH   8  24
ENDBRANCH  20  22
ENDBRANCH  17  20
ENDBRANCH  14  17
BRANCH   5  18
ATOM     18  C   UNL     1      -5.009   3.472  24.730  0.00  0.00    +0.143 C 
BRANCH  18  21
ATOM      1  S   UNL     1      -1.603   5.499  25.037  0.00  0.00    +0.028 S 
ATOM      7  N   UNL     1      -3.093   3.896  26.255  0.00  0.00    -0.145 NA
ATOM      9  N   UNL     1      -1.956   4.563  26.379  0.00  0.00    -0.110 NA
ATOM     21  C   UNL     1      -3.701   4.151  25.036  0.00  0.00    +0.086 A 
ATOM     23  C   UNL     1      -3.026   5.023  24.205  0.00  0.00    +0.093 A 
ENDBRANCH  18  21
ENDBRANCH   5  18
TORSDOF 6
ENDMDL
MODEL 3
REMARK VINA RESULT:      -0.6      1.931      4.438
REMARK  Name = 45361055
REMARK  7 active torsions:
REMARK  status: ('A' for Active; 'I' for Inactive)
REMARK    1  A    between atoms: N_4  and  C_19
REMARK    2  A    between atoms: N_5  and  C_18
REMARK    3  A    between atoms: N_8  and  C_24
REMARK    4  A    between atoms: C_14  and  C_17
REMARK    5  A    between atoms: C_17  and  C_20
REMARK    6  A    between atoms: C_18  and  C_21
REMARK    7  A    between atoms: C_20  and  C_22
REMARK                            x       y       z     vdW  Elec       q    Type
REMARK                         _______ _______ _______ _____ _____    ______ ____
ROOT
ATOM      2  O   UNL     1      -1.325   1.881  22.970  0.00  0.00    -0.274 OA
ATOM      4  N   UNL     1      -3.035  -0.809  25.166  0.00  0.00    -0.296 NA
ATOM      5  N   UNL     1       0.257  -0.184  23.696  0.00  0.00    -0.284 NA
ATOM      6  N   UNL     1      -3.195   0.601  22.655  0.00  0.00    -0.312 N 
ATOM     10  C   UNL     1      -1.715  -1.232  24.647  0.00  0.00    +0.084 C 
ATOM     11  C   UNL     1      -1.149  -0.510  23.389  0.00  0.00    +0.161 C 
ATOM     12  C   UNL     1      -0.564  -1.066  25.657  0.00  0.00    +0.036 C 
ATOM     13  C   UNL     1       0.673  -1.061  24.783  0.00  0.00    +0.087 C 
ATOM     14  C   UNL     1      -4.169  -1.044  24.230  0.00  0.00    +0.074 C 
ATOM     15  C   UNL     1      -1.870   0.778  23.003  0.00  0.00    +0.232 C 
ATOM     16  C   UNL     1      -3.887  -0.668  22.762  0.00  0.00    +0.123 C 
ATOM     19  C   UNL     1      -3.311  -1.438  26.469  0.00  0.00    +0.105 C 
ATOM     30  H   UNL     1      -3.715   1.409  22.324  0.00  0.00    +0.149 HD
ENDROOT
BRANCH  14  17
ATOM     17  C   UNL     1      -5.415  -0.251  24.681  0.00  0.00    +0.029 C 
BRANCH  17  20
ATOM     20  C   UNL     1      -5.064   0.814  25.706  0.00  0.00    +0.098 C 
BRANCH  20  22
ATOM      3  O   UNL     1      -4.927   2.709  24.221  0.00  0.00    -0.275 OA
ATOM      8  N   UNL     1      -3.187   2.306  25.745  0.00  0.00    -0.285 N 
ATOM     22  C   UNL     1      -4.402   2.053  25.114  0.00  0.00    +0.217 C 
ATOM     31  H   UNL     1      -2.899   1.667  26.483  0.00  0.00    +0.155 HD
BRANCH   8  24
ATOM     24  C   UNL     1      -2.281   3.360  25.481  0.00  0.00    +0.033 A 
ATOM     25  C   UNL     1      -2.760   4.646  25.233  0.00  0.00    +0.023 A 
ATOM     26  C   UNL     1      -0.907   3.115  25.469  0.00  0.00    +0.023 A 
ATOM     27  C   UNL     1      -1.868   5.686  24.973  0.00  0.00    +0.002 A 
ATOM     28  C   UNL     1      -0.015   4.153  25.209  0.00  0.00    +0.002 A 
ATOM     29  C   UNL     1      -0.494   5.440  24.960  0.00  0.00    +0.000 A 
ENDBRANCH   8  24
ENDBRANCH  20  22
ENDBRANCH  17  20
ENDBRANCH  14  17
BRANCH   5  18
ATOM     18  C   UNL     1       1.140  -0.287  22.540  0.00  0.00    +0.143 C 
BRANCH  18  21
ATOM      1  S   UNL     1       4.971  -0.264  23.602  0.00  0.00    +0.028 S 
ATOM      7  N   UNL     1       3.081   1.222  22.898  0.00  0.00    -0.145 NA
ATOM      9  N   UNL     1       4.357   1.253  23.248  0.00  0.00    -0.110 NA
ATOM     21  C   UNL     1       2.581  -0.070  22.915  0.00  0.00    +0.086 A 
ATOM     23  C   UNL     1       3.480  -1.051  23.283  0.00  0.00    +0.093 A 
ENDBRANCH  18  21
ENDBRANCH   5  18
TORSDOF 6
ENDMDL
MODEL 4
REMARK VINA RESULT:       0.5      2.473      6.611
REMARK  Name = 45361055
REMARK  7 active torsions:
REMARK  status: ('A' for Active; 'I' for Inactive)
REMARK    1  A    between atoms: N_4  and  C_19
REMARK    2  A    between atoms: N_5  and  C_18
REMARK    3  A    between atoms: N_8  and  C_24
REMARK    4  A    between atoms: C_14  and  C_17
REMARK    5  A    between atoms: C_17  and  C_20
REMARK    6  A    between atoms: C_18  and  C_21
REMARK    7  A    between atoms: C_20  and  C_22
REMARK                            x       y       z     vdW  Elec       q    Type
REMARK                         _______ _______ _______ _____ _____    ______ ____
ROOT
ATOM      2  O   UNL     1      -2.662   2.393  22.906  0.00  0.00    -0.274 OA
ATOM      4  N   UNL     1      -3.734  -0.961  24.514  0.00  0.00    -0.296 NA
ATOM      5  N   UNL     1      -4.829   2.531  24.511  0.00  0.00    -0.284 NA
ATOM      6  N   UNL     1      -1.540   0.886  24.212  0.00  0.00    -0.312 N 
ATOM     10  C   UNL     1      -4.415   0.213  25.104  0.00  0.00    +0.084 C 
ATOM     11  C   UNL     1      -3.755   1.614  24.937  0.00  0.00    +0.161 C 
ATOM     12  C   UNL     1      -5.831   0.459  24.549  0.00  0.00    +0.036 C 
ATOM     13  C   UNL     1      -6.095   1.911  24.886  0.00  0.00    +0.087 C 
ATOM     14  C   UNL     1      -2.400  -1.258  25.103  0.00  0.00    +0.074 C 
ATOM     15  C   UNL     1      -2.630   1.679  23.907  0.00  0.00    +0.232 C 
ATOM     16  C   UNL     1      -1.504  -0.027  25.337  0.00  0.00    +0.123 C 
ATOM     19  C   UNL     1      -4.597  -2.152  24.578  0.00  0.00    +0.105 C 
ATOM     30  H   UNL     1      -0.729   0.935  23.601  0.00  0.00    +0.149 HD
ENDROOT
BRANCH  14  17
ATOM     17  C   UNL     1      -1.617  -2.236  24.199  0.00  0.00    +0.029 C 
BRANCH  17  20
ATOM     20  C   UNL     1      -0.636  -1.508  23.297  0.00  0.00    +0.098 C 
BRANCH  20  22
ATOM      3  O   UNL     1       1.088  -1.932  24.929  0.00  0.00    -0.275 OA
ATOM      8  N   UNL     1       1.597  -0.682  23.007  0.00  0.00    -0.285 N 
ATOM     22  C   UNL     1       0.775  -1.406  23.866  0.00  0.00    +0.217 C 
ATOM     31  H   UNL     1       1.181  -0.323  22.151  0.00  0.00    +0.155 HD
BRANCH   8  24
ATOM     24  C   UNL     1       2.967  -0.373  23.182  0.00  0.00    +0.033 A 
ATOM     25  C   UNL     1       3.826  -1.311  23.752  0.00  0.00    +0.023 A 
ATOM     26  C   UNL     1       3.459   0.870  22.781  0.00  0.00    +0.023 A 
ATOM     27  C   UNL     1       5.177  -1.007  23.924  0.00  0.00    +0.002 A 
ATOM     28  C   UNL     1       4.808   1.174  22.953  0.00  0.00    +0.002 A 
ATOM     29  C   UNL     1       5.668   0.236  23.524  0.00  0.00    +0.000 A 
ENDBRANCH   8  24
ENDBRANCH  20  22
ENDBRANCH  17  20
ENDBRANCH  14  17
BRANCH   5  18
ATOM     18  C   UNL     1      -4.693   3.874  25.061  0.00  0.00    +0.143 C 
BRANCH  18  21
ATOM      1  S   UNL     1      -1.005   5.354  24.926  0.00  0.00    +0.028 S 
ATOM      7  N   UNL     1      -2.437   3.651  26.078  0.00  0.00    -0.145 NA
ATOM      9  N   UNL     1      -1.203   4.130  26.051  0.00  0.00    -0.110 NA
ATOM     21  C   UNL     1      -3.251   4.295  25.161  0.00  0.00    +0.086 A 
ATOM     23  C   UNL     1      -2.641   5.283  24.413  0.00  0.00    +0.093 A 
ENDBRANCH  18  21
ENDBRANCH   5  18
TORSDOF 6
ENDMDL
MODEL 5
REMARK VINA RESULT:       1.2      2.680      3.282
REMARK  Name = 45361055
REMARK  7 active torsions:
REMARK  status: ('A' for Active; 'I' for Inactive)
REMARK    1  A    between atoms: N_4  and  C_19
REMARK    2  A    between atoms: N_5  and  C_18
REMARK    3  A    between atoms: N_8  and  C_24
REMARK    4  A    between atoms: C_14  and  C_17
REMARK    5  A    between atoms: C_17  and  C_20
REMARK    6  A    between atoms: C_18  and  C_21
REMARK    7  A    between atoms: C_20  and  C_22
REMARK                            x       y       z     vdW  Elec       q    Type
REMARK                         _______ _______ _______ _____ _____    ______ ____
ROOT
ATOM      2  O   UNL     1      -1.694   2.963  27.460  0.00  0.00    -0.274 OA
ATOM      4  N   UNL     1      -2.599   2.646  23.710  0.00  0.00    -0.296 NA
ATOM      5  N   UNL     1       0.393   2.501  25.811  0.00  0.00    -0.284 NA
ATOM      6  N   UNL     1      -2.784   4.365  26.018  0.00  0.00    -0.312 N 
ATOM     10  C   UNL     1      -1.144   2.767  23.951  0.00  0.00    +0.084 C 
ATOM     11  C   UNL     1      -0.666   3.390  25.296  0.00  0.00    +0.161 C 
ATOM     12  C   UNL     1      -0.394   1.422  23.936  0.00  0.00    +0.036 C 
ATOM     13  C   UNL     1       0.890   1.726  24.680  0.00  0.00    +0.087 C 
ATOM     14  C   UNL     1      -3.322   3.945  23.638  0.00  0.00    +0.074 C 
ATOM     15  C   UNL     1      -1.746   3.524  26.366  0.00  0.00    +0.232 C 
ATOM     16  C   UNL     1      -2.916   4.975  24.709  0.00  0.00    +0.123 C 
ATOM     19  C   UNL     1      -2.864   1.846  22.502  0.00  0.00    +0.105 C 
ATOM     30  H   UNL     1      -3.503   4.550  26.713  0.00  0.00    +0.149 HD
ENDROOT
BRANCH  14  17
ATOM     17  C   UNL     1      -4.845   3.724  23.760  0.00  0.00    +0.029 C 
BRANCH  17  20
ATOM     20  C   UNL     1      -5.228   3.181  25.127  0.00  0.00    +0.098 C 
BRANCH  20  22
ATOM      3  O   UNL     1      -6.535   1.165  25.317  0.00  0.00    -0.275 OA
ATOM      8  N   UNL     1      -4.217   1.012  24.973  0.00  0.00    -0.285 N 
ATOM     22  C   UNL     1      -5.429   1.671  25.163  0.00  0.00    +0.217 C 
ATOM     31  H   UNL     1      -3.387   1.585  24.844  0.00  0.00    +0.155 HD
BRANCH   8  24
ATOM     24  C   UNL     1      -3.991  -0.385  24.940  0.00  0.00    +0.033 A 
ATOM     25  C   UNL     1      -4.418  -1.134  23.845  0.00  0.00    +0.023 A 
ATOM     26  C   UNL     1      -3.340  -1.012  26.003  0.00  0.00    +0.023 A 
ATOM     27  C   UNL     1      -4.195  -2.511  23.812  0.00  0.00    +0.002 A 
ATOM     28  C   UNL     1      -3.118  -2.388  25.970  0.00  0.00    +0.002 A 
ATOM     29  C   UNL     1      -3.545  -3.138  24.875  0.00  0.00    +0.000 A 
ENDBRANCH   8  24
ENDBRANCH  20  22
ENDBRANCH  17  20
ENDBRANCH  14  17
BRANCH   5  18
ATOM     18  C   UNL     1       1.463   3.216  26.497  0.00  0.00    +0.143 C 
BRANCH  18  21
ATOM      1  S   UNL     1       1.242   1.994  30.274  0.00  0.00    +0.028 S 
ATOM      7  N   UNL     1       2.833   2.852  28.539  0.00  0.00    -0.145 NA
ATOM      9  N   UNL     1       2.782   2.448  29.799  0.00  0.00    -0.110 NA
ATOM     21  C   UNL     1       1.586   2.792  27.936  0.00  0.00    +0.086 A 
ATOM     23  C   UNL     1       0.558   2.338  28.739  0.00  0.00    +0.093 A 
ENDBRANCH  18  21
ENDBRANCH   5  18
TORSDOF 6
ENDMDL
MODEL 6
REMARK VINA RESULT:       1.4     13.929     16.541
REMARK  Name = 45361055
REMARK  7 active torsions:
REMARK  status: ('A' for Active; 'I' for Inactive)
REMARK    1  A    between atoms: N_4  and  C_19
REMARK    2  A    between atoms: N_5  and  C_18
REMARK    3  A    between atoms: N_8  and  C_24
REMARK    4  A    between atoms: C_14  and  C_17
REMARK    5  A    between atoms: C_17  and  C_20
REMARK    6  A    between atoms: C_18  and  C_21
REMARK    7  A    between atoms: C_20  and  C_22
REMARK                            x       y       z     vdW  Elec       q    Type
REMARK                         _______ _______ _______ _____ _____    ______ ____
ROOT
ATOM      2  O   UNL     1      -4.569  -8.521  17.185  0.00  0.00    -0.274 OA
ATOM      4  N   UNL     1      -4.167  -9.913  13.595  0.00  0.00    -0.296 NA
ATOM      5  N   UNL     1      -6.559 -10.146  16.354  0.00  0.00    -0.284 NA
ATOM      6  N   UNL     1      -2.899  -9.718  16.178  0.00  0.00    -0.312 N 
ATOM     10  C   UNL     1      -5.239 -10.582  14.364  0.00  0.00    +0.084 C 
ATOM     11  C   UNL     1      -5.196 -10.503  15.919  0.00  0.00    +0.161 C 
ATOM     12  C   UNL     1      -6.653 -10.054  14.056  0.00  0.00    +0.036 C 
ATOM     13  C   UNL     1      -7.462 -10.487  15.260  0.00  0.00    +0.087 C 
ATOM     14  C   UNL     1      -2.806 -10.472  13.821  0.00  0.00    +0.074 C 
ATOM     15  C   UNL     1      -4.223  -9.473  16.486  0.00  0.00    +0.232 C 
ATOM     16  C   UNL     1      -2.467 -10.781  15.292  0.00  0.00    +0.123 C 
ATOM     19  C   UNL     1      -4.483  -9.904  12.157  0.00  0.00    +0.105 C 
ATOM     30  H   UNL     1      -2.194  -9.107  16.581  0.00  0.00    +0.149 HD
ENDROOT
BRANCH  14  17
ATOM     17  C   UNL     1      -1.728  -9.502  13.290  0.00  0.00    +0.029 C 
BRANCH  17  20
ATOM     20  C   UNL     1      -1.366  -9.798  11.845  0.00  0.00    +0.098 C 
BRANCH  20  22
ATOM      3  O   UNL     1       0.202  -9.078  10.161  0.00  0.00    -0.275 OA
ATOM      8  N   UNL     1       0.324  -8.165  12.322  0.00  0.00    -0.285 N 
ATOM     22  C   UNL     1      -0.185  -8.989  11.322  0.00  0.00    +0.217 C 
ATOM     31  H   UNL     1      -0.125  -8.202  13.234  0.00  0.00    +0.155 HD
BRANCH   8  24
ATOM     24  C   UNL     1       1.414  -7.267  12.227  0.00  0.00    +0.033 A 
ATOM     25  C   UNL     1       2.709  -7.757  12.065  0.00  0.00    +0.023 A 
ATOM     26  C   UNL     1       1.192  -5.891  12.295  0.00  0.00    +0.023 A 
ATOM     27  C   UNL     1       3.783  -6.871  11.971  0.00  0.00    +0.002 A 
ATOM     28  C   UNL     1       2.265  -5.006  12.201  0.00  0.00    +0.002 A 
ATOM     29  C   UNL     1       3.562  -5.495  12.040  0.00  0.00    +0.000 A 
ENDBRANCH   8  24
ENDBRANCH  20  22
ENDBRANCH  17  20
ENDBRANCH  14  17
BRANCH   5  18
ATOM     18  C   UNL     1      -6.951 -10.781  17.606  0.00  0.00    +0.143 C 
BRANCH  18  21
ATOM      1  S   UNL     1     -10.513 -10.002  19.191  0.00  0.00    +0.028 S 
ATOM      7  N   UNL     1      -9.070  -9.550  17.194  0.00  0.00    -0.145 NA
ATOM      9  N   UNL     1     -10.261  -9.277  17.703  0.00  0.00    -0.110 NA
ATOM     21  C   UNL     1      -8.336 -10.372  18.033  0.00  0.00    +0.086 A 
ATOM     23  C   UNL     1      -8.965 -10.740  19.206  0.00  0.00    +0.093 A 
ENDBRANCH  18  21
ENDBRANCH   5  18
TORSDOF 6
ENDMDL
MODEL 7
REMARK VINA RESULT:       1.6      2.415      4.379
REMARK  Name = 45361055
REMARK  7 active torsions:
REMARK  status: ('A' for Active; 'I' for Inactive)
REMARK    1  A    between atoms: N_4  and  C_19
REMARK    2  A    between atoms: N_5  and  C_18
REMARK    3  A    between atoms: N_8  and  C_24
REMARK    4  A    between atoms: C_14  and  C_17
REMARK    5  A    between atoms: C_17  and  C_20
REMARK    6  A    between atoms: C_18  and  C_21
REMARK    7  A    between atoms: C_20  and  C_22
REMARK                            x       y       z     vdW  Elec       q    Type
REMARK                         _______ _______ _______ _____ _____    ______ ____
ROOT
ATOM      2  O   UNL     1       0.618   2.364  23.978  0.00  0.00    -0.274 OA
ATOM      4  N   UNL     1      -2.625   0.491  24.962  0.00  0.00    -0.296 NA
ATOM      5  N   UNL     1       0.719  -0.322  23.720  0.00  0.00    -0.284 NA
ATOM      6  N   UNL     1      -1.546   2.553  23.258  0.00  0.00    -0.312 N 
ATOM     10  C   UNL     1      -1.649  -0.365  24.253  0.00  0.00    +0.084 C 
ATOM     11  C   UNL     1      -0.562   0.322  23.374  0.00  0.00    +0.161 C 
ATOM     12  C   UNL     1      -0.796  -1.246  25.186  0.00  0.00    +0.036 C 
ATOM     13  C   UNL     1       0.401  -1.607  24.332  0.00  0.00    +0.087 C 
ATOM     14  C   UNL     1      -3.513   1.284  24.068  0.00  0.00    +0.074 C 
ATOM     15  C   UNL     1      -0.417   1.827  23.584  0.00  0.00    +0.232 C 
ATOM     16  C   UNL     1      -2.804   1.946  22.871  0.00  0.00    +0.123 C 
ATOM     19  C   UNL     1      -3.429  -0.303  25.906  0.00  0.00    +0.105 C 
ATOM     30  H   UNL     1      -1.494   3.567  23.312  0.00  0.00    +0.149 HD
ENDROOT
BRANCH  14  17
ATOM     17  C   UNL     1      -4.221   2.402  24.864  0.00  0.00    +0.029 C 
BRANCH  17  20
ATOM     20  C   UNL     1      -3.327   3.616  25.049  0.00  0.00    +0.098 C 
BRANCH  20  22
ATOM      3  O   UNL     1      -3.090   4.109  27.397  0.00  0.00    -0.275 OA
ATOM      8  N   UNL     1      -1.326   3.066  26.250  0.00  0.00    -0.285 N 
ATOM     22  C   UNL     1      -2.585   3.645  26.379  0.00  0.00    +0.217 C 
ATOM     31  H   UNL     1      -1.064   2.714  25.332  0.00  0.00    +0.155 HD
BRANCH   8  24
ATOM     24  C   UNL     1      -0.343   2.903  27.255  0.00  0.00    +0.033 A 
ATOM     25  C   UNL     1      -0.725   2.792  28.591  0.00  0.00    +0.023 A 
ATOM     26  C   UNL     1       1.007   2.853  26.909  0.00  0.00    +0.023 A 
ATOM     27  C   UNL     1       0.243   2.632  29.583  0.00  0.00    +0.002 A 
ATOM     28  C   UNL     1       1.975   2.693  27.900  0.00  0.00    +0.002 A 
ATOM     29  C   UNL     1       1.594   2.583  29.237  0.00  0.00    +0.000 A 
ENDBRANCH   8  24
ENDBRANCH  20  22
ENDBRANCH  17  20
ENDBRANCH  14  17
BRANCH   5  18
ATOM     18  C   UNL     1       1.619  -0.466  22.581  0.00  0.00    +0.143 C 
BRANCH  18  21
ATOM      1  S   UNL     1       5.399   0.409  23.449  0.00  0.00    +0.028 S 
ATOM      7  N   UNL     1       3.683  -1.410  23.594  0.00  0.00    -0.145 NA
ATOM      9  N   UNL     1       4.944  -1.140  23.893  0.00  0.00    -0.110 NA
ATOM     21  C   UNL     1       3.062  -0.330  22.988  0.00  0.00    +0.086 A 
ATOM     23  C   UNL     1       3.851   0.790  22.813  0.00  0.00    +0.093 A 
ENDBRANCH  18  21
ENDBRANCH   5  18
TORSDOF 6
ENDMDL
MODEL 8
REMARK VINA RESULT:       2.0      2.165      4.517
REMARK  Name = 45361055
REMARK  7 active torsions:
REMARK  status: ('A' for Active; 'I' for Inactive)
REMARK    1  A    between atoms: N_4  and  C_19
REMARK    2  A    between atoms: N_5  and  C_18
REMARK    3  A    between atoms: N_8  and  C_24
REMARK    4  A    between atoms: C_14  and  C_17
REMARK    5  A    between atoms: C_17  and  C_20
REMARK    6  A    between atoms: C_18  and  C_21
REMARK    7  A    between atoms: C_20  and  C_22
REMARK                            x       y       z     vdW  Elec       q    Type
REMARK                         _______ _______ _______ _____ _____    ______ ____
ROOT
ATOM      2  O   UNL     1      -0.854  -0.974  22.010  0.00  0.00    -0.274 OA
ATOM      4  N   UNL     1      -1.121   0.292  25.658  0.00  0.00    -0.296 NA
ATOM      5  N   UNL     1       1.193   0.580  22.839  0.00  0.00    -0.284 NA
ATOM      6  N   UNL     1      -1.094  -2.071  24.004  0.00  0.00    -0.312 N 
ATOM     10  C   UNL     1       0.212   0.517  25.058  0.00  0.00    +0.084 C 
ATOM     11  C   UNL     1       0.631  -0.351  23.835  0.00  0.00    +0.161 C 
ATOM     12  C   UNL     1       0.424   1.946  24.524  0.00  0.00    +0.036 C 
ATOM     13  C   UNL     1       1.575   1.792  23.552  0.00  0.00    +0.087 C 
ATOM     14  C   UNL     1      -1.308  -1.059  26.254  0.00  0.00    +0.074 C 
ATOM     15  C   UNL     1      -0.505  -1.133  23.179  0.00  0.00    +0.232 C 
ATOM     16  C   UNL     1      -0.762  -2.224  25.407  0.00  0.00    +0.123 C 
ATOM     19  C   UNL     1      -1.432   1.335  26.651  0.00  0.00    +0.105 C 
ATOM     30  H   UNL     1      -1.812  -2.671  23.608  0.00  0.00    +0.149 HD
ENDROOT
BRANCH  14  17
ATOM     17  C   UNL     1      -2.806  -1.334  26.511  0.00  0.00    +0.029 C 
BRANCH  17  20
ATOM     20  C   UNL     1      -3.576  -1.516  25.214  0.00  0.00    +0.098 C 
BRANCH  20  22
ATOM      3  O   UNL     1      -3.966  -0.139  23.274  0.00  0.00    -0.275 OA
ATOM      8  N   UNL     1      -4.131   0.808  25.417  0.00  0.00    -0.285 N 
ATOM     22  C   UNL     1      -3.903  -0.212  24.497  0.00  0.00    +0.217 C 
ATOM     31  H   UNL     1      -4.052   0.575  26.404  0.00  0.00    +0.155 HD
BRANCH   8  24
ATOM     24  C   UNL     1      -4.462   2.157  25.145  0.00  0.00    +0.033 A 
ATOM     25  C   UNL     1      -3.712   2.886  24.223  0.00  0.00    +0.023 A 
ATOM     26  C   UNL     1      -5.539   2.756  25.798  0.00  0.00    +0.023 A 
ATOM     27  C   UNL     1      -4.038   4.216  23.955  0.00  0.00    +0.002 A 
ATOM     28  C   UNL     1      -5.865   4.085  25.530  0.00  0.00    +0.002 A 
ATOM     29  C   UNL     1      -5.115   4.816  24.608  0.00  0.00    +0.000 A 
ENDBRANCH   8  24
ENDBRANCH  20  22
ENDBRANCH  17  20
ENDBRANCH  14  17
BRANCH   5  18
ATOM     18  C   UNL     1       2.305   0.015  22.083  0.00  0.00    +0.143 C 
BRANCH  18  21
ATOM      1  S   UNL     1       5.494  -0.710  24.342  0.00  0.00    +0.028 S 
ATOM      7  N   UNL     1       4.336   1.085  23.034  0.00  0.00    -0.145 NA
ATOM      9  N   UNL     1       5.406   0.865  23.783  0.00  0.00    -0.110 NA
ATOM     21  C   UNL     1       3.563  -0.058  22.906  0.00  0.00    +0.086 A 
ATOM     23  C   UNL     1       4.037  -1.175  23.565  0.00  0.00    +0.093 A 
ENDBRANCH  18  21
ENDBRANCH   5  18
TORSDOF 6
ENDMDL
