MODEL 1
REMARK VINA RESULT:       3.6      0.000      0.000
REMARK  Name = 11884453
REMARK  7 active torsions:
REMARK  status: ('A' for Active; 'I' for Inactive)
REMARK    1  A    between atoms: S_1  and  N_10
REMARK    2  A    between atoms: S_1  and  C_24
REMARK    3  A    between atoms: O_9  and  C_37
REMARK    4  A    between atoms: O_9  and  C_38
REMARK    5  A    between atoms: N_12  and  C_22
REMARK    6  A    between atoms: C_27  and  C_31
REMARK    7  A    between atoms: C_30  and  C_32
REMARK                            x       y       z     vdW  Elec       q    Type
REMARK                         _______ _______ _______ _____ _____    ______ ____
ROOT
ATOM      7  O   UNL     1       0.096   2.673  26.093  0.00  0.00    -0.266 OA
ATOM     10  N   UNL     1      -4.794   2.246  25.232  0.00  0.00    -0.176 NA
ATOM     11  N   UNL     1      -1.831   3.307  24.931  0.00  0.00    -0.310 N 
ATOM     13  C   UNL     1      -3.845   4.397  26.075  0.00  0.00    +0.025 C 
ATOM     14  C   UNL     1      -3.906   3.957  23.659  0.00  0.00    +0.052 C 
ATOM     15  C   UNL     1      -4.089   5.041  24.717  0.00  0.00    +0.017 C 
ATOM     16  C   UNL     1      -4.852   3.261  26.322  0.00  0.00    +0.114 C 
ATOM     17  C   UNL     1      -4.952   2.847  23.874  0.00  0.00    +0.119 C 
ATOM     18  C   UNL     1      -2.392   3.914  26.145  0.00  0.00    +0.130 C 
ATOM     19  C   UNL     1      -2.504   3.377  23.708  0.00  0.00    +0.026 A 
ATOM     20  C   UNL     1      -1.922   2.916  22.588  0.00  0.00    +0.024 A 
ATOM     21  C   UNL     1      -0.543   2.743  25.041  0.00  0.00    +0.273 A 
ATOM     22  C   UNL     1       0.061   2.218  23.775  0.00  0.00    +0.099 A 
ATOM     23  C   UNL     1      -0.614   2.324  22.626  0.00  0.00    +0.030 A 
ENDROOT
BRANCH  22  12
ATOM      8  O   UNL     1       0.986  -0.003  22.242  0.00  0.00    -0.270 OA
ATOM     12  N   UNL     1       1.300   1.655  23.843  0.00  0.00    -0.277 N 
ATOM     30  C   UNL     1       1.691   0.571  23.068  0.00  0.00    +0.248 C 
ATOM     39  H   UNL     1       1.881   1.982  24.607  0.00  0.00    +0.155 HD
BRANCH  30  32
ATOM     32  C   UNL     1       3.090   0.110  23.265  0.00  0.00    +0.037 A 
ATOM     33  C   UNL     1       3.312  -1.192  23.663  0.00  0.00    +0.016 A 
ATOM     34  C   UNL     1       4.121   0.999  23.043  0.00  0.00    +0.016 A 
ATOM     35  C   UNL     1       4.625  -1.624  23.849  0.00  0.00    +0.046 A 
ATOM     36  C   UNL     1       5.435   0.566  23.230  0.00  0.00    +0.046 A 
ATOM     37  C   UNL     1       5.687  -0.745  23.633  0.00  0.00    +0.120 A 
BRANCH  37   9
ATOM      9  O   UNL     1       6.968  -1.168  23.812  0.00  0.00    -0.495 OA
ATOM     38  C   UNL     1       7.974  -0.548  23.013  0.00  0.00    +0.277 C 
ENDBRANCH  37   9
ENDBRANCH  30  32
ENDBRANCH  22  12
BRANCH  10   1
ATOM      1  S   UNL     1      -5.676   0.807  25.512  0.00  0.00    +0.061 S 
ATOM      5  O   UNL     1      -6.765   0.726  24.561  0.00  0.00    -0.153 OA
ATOM      6  O   UNL     1      -5.917   0.672  26.933  0.00  0.00    -0.153 OA
BRANCH   1  24
ATOM     24  C   UNL     1      -4.467  -0.393  25.049  0.00  0.00    +0.106 A 
ATOM     25  C   UNL     1      -3.194  -0.316  25.589  0.00  0.00    +0.041 A 
ATOM     26  C   UNL     1      -4.812  -1.391  24.152  0.00  0.00    +0.028 A 
ATOM     27  C   UNL     1      -2.238  -1.265  25.223  0.00  0.00    +0.057 A 
ATOM     28  C   UNL     1      -3.856  -2.338  23.786  0.00  0.00    +0.002 A 
ATOM     29  C   UNL     1      -2.570  -2.276  24.321  0.00  0.00    +0.012 A 
BRANCH  27  31
ATOM      2  F   UNL     1      -0.221  -2.403  25.818  0.00  0.00    -0.166 F 
ATOM      3  F   UNL     1      -0.026  -0.362  25.110  0.00  0.00    -0.166 F 
ATOM      4  F   UNL     1      -0.852  -0.751  27.084  0.00  0.00    -0.166 F 
ATOM     31  C   UNL     1      -0.863  -1.198  25.795  0.00  0.00    +0.417 C 
ENDBRANCH  27  31
ENDBRANCH   1  24
ENDBRANCH  10   1
TORSDOF 6
ENDMDL
MODEL 2
REMARK VINA RESULT:       7.0      1.414      2.048
REMARK  Name = 11884453
REMARK  7 active torsions:
REMARK  status: ('A' for Active; 'I' for Inactive)
REMARK    1  A    between atoms: S_1  and  N_10
REMARK    2  A    between atoms: S_1  and  C_24
REMARK    3  A    between atoms: O_9  and  C_37
REMARK    4  A    between atoms: O_9  and  C_38
REMARK    5  A    between atoms: N_12  and  C_22
REMARK    6  A    between atoms: C_27  and  C_31
REMARK    7  A    between atoms: C_30  and  C_32
REMARK                            x       y       z     vdW  Elec       q    Type
REMARK                         _______ _______ _______ _____ _____    ______ ____
ROOT
ATOM      7  O   UNL     1       0.196   2.719  26.202  0.00  0.00    -0.266 OA
ATOM     10  N   UNL     1      -4.700   2.411  25.329  0.00  0.00    -0.176 NA
ATOM     11  N   UNL     1      -1.720   3.434  25.069  0.00  0.00    -0.310 N 
ATOM     13  C   UNL     1      -3.715   4.509  26.260  0.00  0.00    +0.025 C 
ATOM     14  C   UNL     1      -3.785   4.171  23.828  0.00  0.00    +0.052 C 
ATOM     15  C   UNL     1      -3.948   5.214  24.930  0.00  0.00    +0.017 C 
ATOM     16  C   UNL     1      -4.741   3.382  26.461  0.00  0.00    +0.114 C 
ATOM     17  C   UNL     1      -4.849   3.071  23.998  0.00  0.00    +0.119 C 
ATOM     18  C   UNL     1      -2.270   3.999  26.308  0.00  0.00    +0.130 C 
ATOM     19  C   UNL     1      -2.392   3.566  23.851  0.00  0.00    +0.026 A 
ATOM     20  C   UNL     1      -1.819   3.142  22.712  0.00  0.00    +0.024 A 
ATOM     21  C   UNL     1      -0.441   2.844  25.155  0.00  0.00    +0.273 A 
ATOM     22  C   UNL     1       0.152   2.362  23.867  0.00  0.00    +0.099 A 
ATOM     23  C   UNL     1      -0.522   2.527  22.724  0.00  0.00    +0.030 A 
ENDROOT
BRANCH  22  12
ATOM      8  O   UNL     1       0.959   0.038  22.421  0.00  0.00    -0.270 OA
ATOM     12  N   UNL     1       1.382   1.775  23.910  0.00  0.00    -0.277 N 
ATOM     30  C   UNL     1       1.714   0.641  23.180  0.00  0.00    +0.248 C 
ATOM     39  H   UNL     1       2.005   2.131  24.626  0.00  0.00    +0.155 HD
BRANCH  30  32
ATOM     32  C   UNL     1       3.111   0.160  23.338  0.00  0.00    +0.037 A 
ATOM     33  C   UNL     1       4.148   1.048  23.136  0.00  0.00    +0.016 A 
ATOM     34  C   UNL     1       3.327  -1.158  23.681  0.00  0.00    +0.016 A 
ATOM     35  C   UNL     1       5.458   0.596  23.283  0.00  0.00    +0.046 A 
ATOM     36  C   UNL     1       4.639  -1.610  23.828  0.00  0.00    +0.046 A 
ATOM     37  C   UNL     1       5.705  -0.733  23.629  0.00  0.00    +0.120 A 
BRANCH  37   9
ATOM      9  O   UNL     1       6.984  -1.173  23.774  0.00  0.00    -0.495 OA
ATOM     38  C   UNL     1       7.969  -0.602  22.913  0.00  0.00    +0.277 C 
ENDBRANCH  37   9
ENDBRANCH  30  32
ENDBRANCH  22  12
BRANCH  10   1
ATOM      1  S   UNL     1      -5.607   0.978  25.550  0.00  0.00    +0.061 S 
ATOM      5  O   UNL     1      -6.528   0.823  24.444  0.00  0.00    -0.153 OA
ATOM      6  O   UNL     1      -6.073   0.922  26.920  0.00  0.00    -0.153 OA
BRANCH   1  24
ATOM     24  C   UNL     1      -4.331  -0.228  25.362  0.00  0.00    +0.106 A 
ATOM     25  C   UNL     1      -4.572  -1.356  24.594  0.00  0.00    +0.041 A 
ATOM     26  C   UNL     1      -3.111  -0.026  25.987  0.00  0.00    +0.028 A 
ATOM     27  C   UNL     1      -3.563  -2.309  24.446  0.00  0.00    +0.057 A 
ATOM     28  C   UNL     1      -2.104  -0.980  25.839  0.00  0.00    +0.002 A 
ATOM     29  C   UNL     1      -2.330  -2.120  25.069  0.00  0.00    +0.012 A 
BRANCH  27  31
ATOM      2  F   UNL     1      -4.350  -4.564  24.327  0.00  0.00    -0.166 F 
ATOM      3  F   UNL     1      -4.658  -3.322  22.576  0.00  0.00    -0.166 F 
ATOM      4  F   UNL     1      -2.660  -4.023  23.069  0.00  0.00    -0.166 F 
ATOM     31  C   UNL     1      -3.805  -3.528  23.623  0.00  0.00    +0.417 C 
ENDBRANCH  27  31
ENDBRANCH   1  24
ENDBRANCH  10   1
TORSDOF 6
ENDMDL
