MODEL 1
REMARK VINA RESULT:       9.7      0.000      0.000
REMARK  Name = 11883013
REMARK  14 active torsions:
REMARK  status: ('A' for Active; 'I' for Inactive)
REMARK    1  A    between atoms: O_2  and  C_16
REMARK    2  A    between atoms: O_3  and  C_21
REMARK    3  A    between atoms: N_8  and  C_27
REMARK    4  A    between atoms: N_10  and  C_29
REMARK    5  A    between atoms: C_11  and  C_19
REMARK    6  A    between atoms: C_13  and  C_21
REMARK    7  A    between atoms: C_13  and  C_22
REMARK    8  A    between atoms: C_14  and  C_24
REMARK    9  A    between atoms: C_24  and  C_25
REMARK   10  A    between atoms: C_27  and  C_29
REMARK   11  A    between atoms: C_28  and  C_30
REMARK   12  A    between atoms: C_30  and  C_31
REMARK   13  A    between atoms: C_30  and  C_32
REMARK   14  A    between atoms: C_30  and  C_33
REMARK                            x       y       z     vdW  Elec       q    Type
REMARK                         _______ _______ _______ _____ _____    ______ ____
ROOT
ATOM      1  S   UNL     1       0.617   2.059  25.822  0.00  0.00    -0.057 S 
ATOM      5  O   UNL     1       2.193   0.264  21.843  0.00  0.00    -0.275 OA
ATOM      7  N   UNL     1      -0.008   1.463  23.383  0.00  0.00    -0.229 NA
ATOM      9  N   UNL     1       2.247   0.972  24.079  0.00  0.00    -0.264 N 
ATOM     11  C   UNL     1      -3.643   2.446  24.212  0.00  0.00    -0.019 C 
ATOM     12  C   UNL     1      -3.188   3.536  25.280  0.00  0.00    +0.011 C 
ATOM     13  C   UNL     1      -4.328   4.250  26.103  0.00  0.00    +0.021 C 
ATOM     14  C   UNL     1      -2.419   2.187  23.218  0.00  0.00    +0.054 C 
ATOM     15  C   UNL     1      -4.834   2.998  23.386  0.00  0.00    +0.010 C 
ATOM     16  C   UNL     1      -5.458   4.698  25.132  0.00  0.00    +0.123 C 
ATOM     17  C   UNL     1      -2.012   3.016  26.156  0.00  0.00    +0.049 C 
ATOM     18  C   UNL     1      -5.959   3.572  24.234  0.00  0.00    +0.032 C 
ATOM     19  C   UNL     1      -4.068   1.107  24.863  0.00  0.00    +0.012 C 
ATOM     20  C   UNL     1      -1.132   2.002  23.981  0.00  0.00    +0.058 A 
ATOM     22  C   UNL     1      -3.749   5.535  26.761  0.00  0.00    +0.016 C 
ATOM     23  C   UNL     1      -0.966   2.399  25.292  0.00  0.00    +0.015 A 
ATOM     26  C   UNL     1       0.972   1.436  24.261  0.00  0.00    +0.165 A 
ATOM     28  C   UNL     1       2.792   0.418  22.904  0.00  0.00    +0.224 C 
ATOM     41  H   UNL     1       2.840   1.050  24.899  0.00  0.00    +0.157 HD
ENDROOT
BRANCH  28  30
ATOM     30  C   UNL     1       4.275  -0.010  23.045  0.00  0.00    +0.039 C 
ATOM     31  C   UNL     1       4.368  -1.391  23.713  0.00  0.00    +0.020 C 
ATOM     32  C   UNL     1       4.952  -0.040  21.665  0.00  0.00    +0.020 C 
ATOM     33  C   UNL     1       5.021   1.008  23.929  0.00  0.00    +0.020 C 
ENDBRANCH  28  30
BRANCH  16   2
ATOM      2  O   UNL     1      -6.563   5.233  25.860  0.00  0.00    -0.391 OA
ATOM     38  H   UNL     1      -6.527   4.880  26.764  0.00  0.00    +0.210 HD
ENDBRANCH  16   2
BRANCH  13  21
ATOM     21  C   UNL     1      -4.902   3.410  27.265  0.00  0.00    +0.165 C 
BRANCH  21   3
ATOM      3  O   UNL     1      -6.053   2.748  26.791  0.00  0.00    -0.394 OA
ATOM     39  H   UNL     1      -6.441   3.288  26.082  0.00  0.00    +0.209 HD
ENDBRANCH  21   3
ENDBRANCH  13  21
BRANCH  14  24
ATOM     24  C   UNL     1      -2.642   1.051  22.211  0.00  0.00    +0.106 C 
BRANCH  24  25
ATOM      4  O   UNL     1      -1.481  -0.834  23.184  0.00  0.00    -0.276 OA
ATOM      8  N   UNL     1      -3.799  -0.872  23.031  0.00  0.00    -0.314 N 
ATOM     25  C   UNL     1      -2.542  -0.309  22.860  0.00  0.00    +0.214 C 
ATOM     40  H   UNL     1      -4.627  -0.340  22.783  0.00  0.00    +0.149 HD
BRANCH   8  27
ATOM     27  C   UNL     1      -4.008  -2.171  23.626  0.00  0.00    +0.119 C 
BRANCH  27  29
ATOM     29  C   UNL     1      -4.054  -2.057  25.143  0.00  0.00    +0.103 C 
BRANCH  29  10
ATOM      6  O   UNL     1       0.079  -1.655  25.759  0.00  0.00    -0.377 OA
ATOM     10  N   UNL     1      -2.719  -2.182  25.724  0.00  0.00    -0.297 NA
ATOM     34  C   UNL     1      -2.189  -0.864  26.102  0.00  0.00    +0.112 C 
ATOM     35  C   UNL     1      -1.800  -2.842  24.786  0.00  0.00    +0.112 C 
ATOM     36  C   UNL     1      -0.792  -1.018  26.695  0.00  0.00    +0.175 C 
ATOM     37  C   UNL     1      -0.412  -2.950  25.411  0.00  0.00    +0.175 C 
ENDBRANCH  29  10
ENDBRANCH  27  29
ENDBRANCH   8  27
ENDBRANCH  24  25
ENDBRANCH  14  24
TORSDOF 9
ENDMDL
MODEL 2
REMARK VINA RESULT:      10.6      2.503      3.689
REMARK  Name = 11883013
REMARK  14 active torsions:
REMARK  status: ('A' for Active; 'I' for Inactive)
REMARK    1  A    between atoms: O_2  and  C_16
REMARK    2  A    between atoms: O_3  and  C_21
REMARK    3  A    between atoms: N_8  and  C_27
REMARK    4  A    between atoms: N_10  and  C_29
REMARK    5  A    between atoms: C_11  and  C_19
REMARK    6  A    between atoms: C_13  and  C_21
REMARK    7  A    between atoms: C_13  and  C_22
REMARK    8  A    between atoms: C_14  and  C_24
REMARK    9  A    between atoms: C_24  and  C_25
REMARK   10  A    between atoms: C_27  and  C_29
REMARK   11  A    between atoms: C_28  and  C_30
REMARK   12  A    between atoms: C_30  and  C_31
REMARK   13  A    between atoms: C_30  and  C_32
REMARK   14  A    between atoms: C_30  and  C_33
REMARK                            x       y       z     vdW  Elec       q    Type
REMARK                         _______ _______ _______ _____ _____    ______ ____
ROOT
ATOM      1  S   UNL     1       0.339   2.762  24.187  0.00  0.00    -0.057 S 
ATOM      5  O   UNL     1       2.826  -0.959  22.958  0.00  0.00    -0.275 OA
ATOM      7  N   UNL     1       0.226   0.235  23.646  0.00  0.00    -0.229 NA
ATOM      9  N   UNL     1       2.396   1.278  23.525  0.00  0.00    -0.264 N 
ATOM     11  C   UNL     1      -3.487   0.309  24.683  0.00  0.00    -0.019 C 
ATOM     12  C   UNL     1      -3.669   1.819  24.209  0.00  0.00    +0.011 C 
ATOM     13  C   UNL     1      -5.061   2.498  24.506  0.00  0.00    +0.021 C 
ATOM     14  C   UNL     1      -2.225  -0.300  23.914  0.00  0.00    +0.054 C 
ATOM     15  C   UNL     1      -4.741  -0.511  24.287  0.00  0.00    +0.010 C 
ATOM     16  C   UNL     1      -6.204   1.526  24.095  0.00  0.00    +0.123 C 
ATOM     17  C   UNL     1      -2.446   2.692  24.612  0.00  0.00    +0.049 C 
ATOM     18  C   UNL     1      -6.056   0.134  24.700  0.00  0.00    +0.032 C 
ATOM     19  C   UNL     1      -3.270   0.179  26.210  0.00  0.00    +0.012 C 
ATOM     20  C   UNL     1      -1.054   0.650  23.958  0.00  0.00    +0.058 A 
ATOM     22  C   UNL     1      -5.201   3.773  23.628  0.00  0.00    +0.016 C 
ATOM     23  C   UNL     1      -1.180   1.992  24.254  0.00  0.00    +0.015 A 
ATOM     26  C   UNL     1       1.044   1.260  23.741  0.00  0.00    +0.165 A 
ATOM     28  C   UNL     1       3.212   0.191  23.151  0.00  0.00    +0.224 C 
ATOM     41  H   UNL     1       2.828   2.186  23.657  0.00  0.00    +0.157 HD
ENDROOT
BRANCH  28  30
ATOM     30  C   UNL     1       4.709   0.561  22.992  0.00  0.00    +0.039 C 
ATOM     31  C   UNL     1       5.381  -0.374  21.974  0.00  0.00    +0.020 C 
ATOM     32  C   UNL     1       4.850   2.024  22.543  0.00  0.00    +0.020 C 
ATOM     33  C   UNL     1       5.425   0.398  24.346  0.00  0.00    +0.020 C 
ENDBRANCH  28  30
BRANCH  16   2
ATOM      2  O   UNL     1      -7.475   2.057  24.469  0.00  0.00    -0.391 OA
ATOM     38  H   UNL     1      -7.899   1.426  25.073  0.00  0.00    +0.210 HD
ENDBRANCH  16   2
BRANCH  13  21
ATOM     21  C   UNL     1      -5.244   2.975  25.964  0.00  0.00    +0.165 C 
BRANCH  21   3
ATOM      3  O   UNL     1      -6.195   4.015  25.962  0.00  0.00    -0.394 OA
ATOM     39  H   UNL     1      -7.069   3.624  25.795  0.00  0.00    +0.209 HD
ENDBRANCH  21   3
ENDBRANCH  13  21
BRANCH  14  24
ATOM     24  C   UNL     1      -1.820  -1.709  24.366  0.00  0.00    +0.106 C 
BRANCH  24  25
ATOM      4  O   UNL     1      -0.073  -2.580  25.794  0.00  0.00    -0.276 OA
ATOM      8  N   UNL     1      -1.004  -0.503  26.260  0.00  0.00    -0.314 N 
ATOM     25  C   UNL     1      -0.862  -1.676  25.534  0.00  0.00    +0.214 C 
ATOM     40  H   UNL     1      -1.646   0.215  25.938  0.00  0.00    +0.149 HD
BRANCH   8  27
ATOM     27  C   UNL     1      -0.218  -0.200  27.433  0.00  0.00    +0.119 C 
BRANCH  27  29
ATOM     29  C   UNL     1      -0.185   1.302  27.675  0.00  0.00    +0.103 C 
BRANCH  29  10
ATOM      6  O   UNL     1       2.619   3.596  29.793  0.00  0.00    -0.377 OA
ATOM     10  N   UNL     1       1.015   1.694  28.409  0.00  0.00    -0.297 NA
ATOM     34  C   UNL     1       0.672   2.149  29.765  0.00  0.00    +0.112 C 
ATOM     35  C   UNL     1       1.744   2.751  27.695  0.00  0.00    +0.112 C 
ATOM     36  C   UNL     1       1.938   2.564  30.508  0.00  0.00    +0.175 C 
ATOM     37  C   UNL     1       2.985   3.151  28.486  0.00  0.00    +0.175 C 
ENDBRANCH  29  10
ENDBRANCH  27  29
ENDBRANCH   8  27
ENDBRANCH  24  25
ENDBRANCH  14  24
TORSDOF 9
ENDMDL
MODEL 3
REMARK VINA RESULT:      10.7      1.097      1.798
REMARK  Name = 11883013
REMARK  14 active torsions:
REMARK  status: ('A' for Active; 'I' for Inactive)
REMARK    1  A    between atoms: O_2  and  C_16
REMARK    2  A    between atoms: O_3  and  C_21
REMARK    3  A    between atoms: N_8  and  C_27
REMARK    4  A    between atoms: N_10  and  C_29
REMARK    5  A    between atoms: C_11  and  C_19
REMARK    6  A    between atoms: C_13  and  C_21
REMARK    7  A    between atoms: C_13  and  C_22
REMARK    8  A    between atoms: C_14  and  C_24
REMARK    9  A    between atoms: C_24  and  C_25
REMARK   10  A    between atoms: C_27  and  C_29
REMARK   11  A    between atoms: C_28  and  C_30
REMARK   12  A    between atoms: C_30  and  C_31
REMARK   13  A    between atoms: C_30  and  C_32
REMARK   14  A    between atoms: C_30  and  C_33
REMARK                            x       y       z     vdW  Elec       q    Type
REMARK                         _______ _______ _______ _____ _____    ______ ____
ROOT
ATOM      1  S   UNL     1       0.696   1.989  25.951  0.00  0.00    -0.057 S 
ATOM      5  O   UNL     1       2.504   0.566  21.921  0.00  0.00    -0.275 OA
ATOM      7  N   UNL     1       0.229   1.664  23.428  0.00  0.00    -0.229 NA
ATOM      9  N   UNL     1       2.419   1.040  24.218  0.00  0.00    -0.264 N 
ATOM     11  C   UNL     1      -3.433   2.661  24.109  0.00  0.00    -0.019 C 
ATOM     12  C   UNL     1      -3.029   3.623  25.312  0.00  0.00    +0.011 C 
ATOM     13  C   UNL     1      -4.208   4.282  26.127  0.00  0.00    +0.021 C 
ATOM     14  C   UNL     1      -2.149   2.471  23.178  0.00  0.00    +0.054 C 
ATOM     15  C   UNL     1      -4.551   3.329  23.268  0.00  0.00    +0.010 C 
ATOM     16  C   UNL     1      -5.258   4.859  25.135  0.00  0.00    +0.123 C 
ATOM     17  C   UNL     1      -1.929   2.983  26.207  0.00  0.00    +0.049 C 
ATOM     18  C   UNL     1      -5.720   3.846  24.094  0.00  0.00    +0.032 C 
ATOM     19  C   UNL     1      -3.932   1.276  24.587  0.00  0.00    +0.012 C 
ATOM     20  C   UNL     1      -0.922   2.172  24.002  0.00  0.00    +0.058 A 
ATOM     22  C   UNL     1      -3.648   5.475  26.953  0.00  0.00    +0.016 C 
ATOM     23  C   UNL     1      -0.839   2.427  25.355  0.00  0.00    +0.015 A 
ATOM     26  C   UNL     1       1.144   1.519  24.361  0.00  0.00    +0.165 A 
ATOM     28  C   UNL     1       3.031   0.593  23.031  0.00  0.00    +0.224 C 
ATOM     41  H   UNL     1       2.955   1.017  25.080  0.00  0.00    +0.157 HD
ENDROOT
BRANCH  28  30
ATOM     30  C   UNL     1       4.492   0.111  23.225  0.00  0.00    +0.039 C 
ATOM     31  C   UNL     1       5.216   0.053  21.871  0.00  0.00    +0.020 C 
ATOM     32  C   UNL     1       5.238   1.049  24.187  0.00  0.00    +0.020 C 
ATOM     33  C   UNL     1       4.488  -1.305  23.834  0.00  0.00    +0.020 C 
ENDBRANCH  28  30
BRANCH  16   2
ATOM      2  O   UNL     1      -6.399   5.348  25.839  0.00  0.00    -0.391 OA
ATOM     38  H   UNL     1      -6.198   6.246  26.152  0.00  0.00    +0.210 HD
ENDBRANCH  16   2
BRANCH  13  21
ATOM     21  C   UNL     1      -4.880   3.344  27.155  0.00  0.00    +0.165 C 
BRANCH  21   3
ATOM      3  O   UNL     1      -6.014   2.773  26.542  0.00  0.00    -0.394 OA
ATOM     39  H   UNL     1      -5.709   2.092  25.919  0.00  0.00    +0.209 HD
ENDBRANCH  21   3
ENDBRANCH  13  21
BRANCH  14  24
ATOM     24  C   UNL     1      -2.326   1.451  22.045  0.00  0.00    +0.106 C 
BRANCH  24  25
ATOM      4  O   UNL     1      -3.101  -0.697  22.845  0.00  0.00    -0.276 OA
ATOM      8  N   UNL     1      -0.823  -0.329  22.577  0.00  0.00    -0.314 N 
ATOM     25  C   UNL     1      -2.162   0.030  22.532  0.00  0.00    +0.214 C 
ATOM     40  H   UNL     1      -0.116   0.320  22.247  0.00  0.00    +0.149 HD
BRANCH   8  27
ATOM     27  C   UNL     1      -0.367  -1.630  23.007  0.00  0.00    +0.119 C 
BRANCH  27  29
ATOM     29  C   UNL     1      -0.045  -1.613  24.494  0.00  0.00    +0.103 C 
BRANCH  29  10
ATOM      6  O   UNL     1      -3.973  -1.996  25.923  0.00  0.00    -0.377 OA
ATOM     10  N   UNL     1      -1.198  -2.028  25.291  0.00  0.00    -0.297 NA
ATOM     34  C   UNL     1      -2.185  -2.728  24.456  0.00  0.00    +0.112 C 
ATOM     35  C   UNL     1      -1.825  -0.871  25.946  0.00  0.00    +0.112 C 
ATOM     36  C   UNL     1      -3.382  -3.141  25.306  0.00  0.00    +0.175 C 
ATOM     37  C   UNL     1      -3.030  -1.328  26.761  0.00  0.00    +0.175 C 
ENDBRANCH  29  10
ENDBRANCH  27  29
ENDBRANCH   8  27
ENDBRANCH  24  25
ENDBRANCH  14  24
TORSDOF 9
ENDMDL
MODEL 4
REMARK VINA RESULT:      11.4      2.274      4.959
REMARK  Name = 11883013
REMARK  14 active torsions:
REMARK  status: ('A' for Active; 'I' for Inactive)
REMARK    1  A    between atoms: O_2  and  C_16
REMARK    2  A    between atoms: O_3  and  C_21
REMARK    3  A    between atoms: N_8  and  C_27
REMARK    4  A    between atoms: N_10  and  C_29
REMARK    5  A    between atoms: C_11  and  C_19
REMARK    6  A    between atoms: C_13  and  C_21
REMARK    7  A    between atoms: C_13  and  C_22
REMARK    8  A    between atoms: C_14  and  C_24
REMARK    9  A    between atoms: C_24  and  C_25
REMARK   10  A    between atoms: C_27  and  C_29
REMARK   11  A    between atoms: C_28  and  C_30
REMARK   12  A    between atoms: C_30  and  C_31
REMARK   13  A    between atoms: C_30  and  C_32
REMARK   14  A    between atoms: C_30  and  C_33
REMARK                            x       y       z     vdW  Elec       q    Type
REMARK                         _______ _______ _______ _____ _____    ______ ____
ROOT
ATOM      1  S   UNL     1       1.300  -1.767  24.003  0.00  0.00    -0.057 S 
ATOM      5  O   UNL     1       4.446   1.566  23.276  0.00  0.00    -0.275 OA
ATOM      7  N   UNL     1       1.636   0.770  23.631  0.00  0.00    -0.229 NA
ATOM      9  N   UNL     1       3.619  -0.600  23.639  0.00  0.00    -0.264 N 
ATOM     11  C   UNL     1      -2.201   1.131  23.513  0.00  0.00    -0.019 C 
ATOM     12  C   UNL     1      -2.424  -0.087  24.515  0.00  0.00    +0.011 C 
ATOM     13  C   UNL     1      -3.914  -0.528  24.784  0.00  0.00    +0.021 C 
ATOM     14  C   UNL     1      -0.715   1.679  23.727  0.00  0.00    +0.054 C 
ATOM     15  C   UNL     1      -3.196   2.270  23.856  0.00  0.00    +0.010 C 
ATOM     16  C   UNL     1      -4.780   0.734  25.063  0.00  0.00    +0.123 C 
ATOM     17  C   UNL     1      -1.468  -1.271  24.193  0.00  0.00    +0.049 C 
ATOM     18  C   UNL     1      -4.640   1.809  23.990  0.00  0.00    +0.032 C 
ATOM     19  C   UNL     1      -2.394   0.732  22.030  0.00  0.00    +0.012 C 
ATOM     20  C   UNL     1       0.279   0.547  23.769  0.00  0.00    +0.058 A 
ATOM     22  C   UNL     1      -3.959  -1.410  26.063  0.00  0.00    +0.016 C 
ATOM     23  C   UNL     1      -0.079  -0.766  23.998  0.00  0.00    +0.015 A 
ATOM     26  C   UNL     1       2.271  -0.378  23.728  0.00  0.00    +0.165 A 
ATOM     28  C   UNL     1       4.627   0.359  23.422  0.00  0.00    +0.224 C 
ATOM     41  H   UNL     1       3.889  -1.573  23.746  0.00  0.00    +0.157 HD
ENDROOT
BRANCH  28  30
ATOM     30  C   UNL     1       6.057  -0.237  23.374  0.00  0.00    +0.039 C 
ATOM     31  C   UNL     1       6.375  -0.740  21.957  0.00  0.00    +0.020 C 
ATOM     32  C   UNL     1       7.088   0.818  23.806  0.00  0.00    +0.020 C 
ATOM     33  C   UNL     1       6.148  -1.430  24.344  0.00  0.00    +0.020 C 
ENDBRANCH  28  30
BRANCH  16   2
ATOM      2  O   UNL     1      -6.158   0.381  25.183  0.00  0.00    -0.391 OA
ATOM     38  H   UNL     1      -6.556   0.950  25.863  0.00  0.00    +0.210 HD
ENDBRANCH  16   2
BRANCH  13  21
ATOM     21  C   UNL     1      -4.541  -1.388  23.663  0.00  0.00    +0.165 C 
BRANCH  21   3
ATOM      3  O   UNL     1      -4.324  -2.743  23.987  0.00  0.00    -0.394 OA
ATOM     39  H   UNL     1      -3.898  -2.780  24.860  0.00  0.00    +0.209 HD
ENDBRANCH  21   3
ENDBRANCH  13  21
BRANCH  14  24
ATOM     24  C   UNL     1      -0.286   2.765  22.732  0.00  0.00    +0.106 C 
BRANCH  24  25
ATOM      4  O   UNL     1       0.189   5.135  22.824  0.00  0.00    -0.276 OA
ATOM      8  N   UNL     1      -0.927   4.122  24.591  0.00  0.00    -0.314 N 
ATOM     25  C   UNL     1      -0.299   4.142  23.355  0.00  0.00    +0.214 C 
ATOM     40  H   UNL     1      -1.352   3.263  24.927  0.00  0.00    +0.149 HD
BRANCH   8  27
ATOM     27  C   UNL     1      -1.084   5.297  25.417  0.00  0.00    +0.119 C 
BRANCH  27  29
ATOM     29  C   UNL     1      -2.408   5.983  25.114  0.00  0.00    +0.103 C 
BRANCH  29  10
ATOM      6  O   UNL     1      -5.309   3.227  26.381  0.00  0.00    -0.377 OA
ATOM     10  N   UNL     1      -3.506   5.366  25.855  0.00  0.00    -0.297 NA
ATOM     34  C   UNL     1      -3.061   4.130  26.515  0.00  0.00    +0.112 C 
ATOM     35  C   UNL     1      -4.641   5.081  24.967  0.00  0.00    +0.112 C 
ATOM     36  C   UNL     1      -4.226   3.499  27.272  0.00  0.00    +0.175 C 
ATOM     37  C   UNL     1      -5.768   4.428  25.761  0.00  0.00    +0.175 C 
ENDBRANCH  29  10
ENDBRANCH  27  29
ENDBRANCH   8  27
ENDBRANCH  24  25
ENDBRANCH  14  24
TORSDOF 9
ENDMDL
MODEL 5
REMARK VINA RESULT:      12.3      2.989      4.479
REMARK  Name = 11883013
REMARK  14 active torsions:
REMARK  status: ('A' for Active; 'I' for Inactive)
REMARK    1  A    between atoms: O_2  and  C_16
REMARK    2  A    between atoms: O_3  and  C_21
REMARK    3  A    between atoms: N_8  and  C_27
REMARK    4  A    between atoms: N_10  and  C_29
REMARK    5  A    between atoms: C_11  and  C_19
REMARK    6  A    between atoms: C_13  and  C_21
REMARK    7  A    between atoms: C_13  and  C_22
REMARK    8  A    between atoms: C_14  and  C_24
REMARK    9  A    between atoms: C_24  and  C_25
REMARK   10  A    between atoms: C_27  and  C_29
REMARK   11  A    between atoms: C_28  and  C_30
REMARK   12  A    between atoms: C_30  and  C_31
REMARK   13  A    between atoms: C_30  and  C_32
REMARK   14  A    between atoms: C_30  and  C_33
REMARK                            x       y       z     vdW  Elec       q    Type
REMARK                         _______ _______ _______ _____ _____    ______ ____
ROOT
ATOM      1  S   UNL     1      -0.877  -0.831  23.732  0.00  0.00    -0.057 S 
ATOM      5  O   UNL     1       2.850   1.926  23.520  0.00  0.00    -0.275 OA
ATOM      7  N   UNL     1      -0.020   1.586  24.071  0.00  0.00    -0.229 NA
ATOM      9  N   UNL     1       1.598  -0.053  23.360  0.00  0.00    -0.264 N 
ATOM     11  C   UNL     1      -3.673   2.658  24.680  0.00  0.00    -0.019 C 
ATOM     12  C   UNL     1      -4.066   1.247  25.303  0.00  0.00    +0.011 C 
ATOM     13  C   UNL     1      -5.584   1.023  25.666  0.00  0.00    +0.021 C 
ATOM     14  C   UNL     1      -2.089   2.829  24.804  0.00  0.00    +0.054 C 
ATOM     15  C   UNL     1      -4.351   3.789  25.496  0.00  0.00    +0.010 C 
ATOM     16  C   UNL     1      -6.116   2.265  26.438  0.00  0.00    +0.123 C 
ATOM     17  C   UNL     1      -3.433   0.074  24.499  0.00  0.00    +0.049 C 
ATOM     18  C   UNL     1      -5.842   3.581  25.719  0.00  0.00    +0.032 C 
ATOM     19  C   UNL     1      -4.090   2.798  23.195  0.00  0.00    +0.012 C 
ATOM     20  C   UNL     1      -1.373   1.581  24.353  0.00  0.00    +0.058 A 
ATOM     22  C   UNL     1      -5.703  -0.199  26.620  0.00  0.00    +0.016 C 
ATOM     23  C   UNL     1      -1.992   0.352  24.241  0.00  0.00    +0.015 A 
ATOM     26  C   UNL     1       0.349   0.372  23.724  0.00  0.00    +0.165 A 
ATOM     28  C   UNL     1       2.770   0.725  23.274  0.00  0.00    +0.224 C 
ATOM     41  H   UNL     1       1.654  -1.041  23.132  0.00  0.00    +0.157 HD
ENDROOT
BRANCH  28  30
ATOM     30  C   UNL     1       4.019  -0.076  22.825  0.00  0.00    +0.039 C 
ATOM     31  C   UNL     1       3.928  -1.526  23.324  0.00  0.00    +0.020 C 
ATOM     32  C   UNL     1       4.146  -0.047  21.294  0.00  0.00    +0.020 C 
ATOM     33  C   UNL     1       5.284   0.565  23.429  0.00  0.00    +0.020 C 
ENDBRANCH  28  30
BRANCH  16   2
ATOM      2  O   UNL     1      -7.520   2.150  26.668  0.00  0.00    -0.391 OA
ATOM     38  H   UNL     1      -7.975   2.761  26.065  0.00  0.00    +0.210 HD
ENDBRANCH  16   2
BRANCH  13  21
ATOM     21  C   UNL     1      -6.491   0.696  24.458  0.00  0.00    +0.165 C 
BRANCH  21   3
ATOM      3  O   UNL     1      -7.402   1.761  24.303  0.00  0.00    -0.394 OA
ATOM     39  H   UNL     1      -7.016   2.551  24.717  0.00  0.00    +0.209 HD
ENDBRANCH  21   3
ENDBRANCH  13  21
BRANCH  14  24
ATOM     24  C   UNL     1      -1.525   4.079  24.116  0.00  0.00    +0.106 C 
BRANCH  24  25
ATOM      4  O   UNL     1       0.089   5.793  24.671  0.00  0.00    -0.276 OA
ATOM      8  N   UNL     1       0.117   3.776  25.824  0.00  0.00    -0.314 N 
ATOM     25  C   UNL     1      -0.362   4.670  24.878  0.00  0.00    +0.214 C 
ATOM     40  H   UNL     1      -0.354   2.888  25.963  0.00  0.00    +0.149 HD
BRANCH   8  27
ATOM     27  C   UNL     1       1.228   4.072  26.698  0.00  0.00    +0.119 C 
BRANCH  27  29
ATOM     29  C   UNL     1       1.766   2.792  27.321  0.00  0.00    +0.103 C 
BRANCH  29  10
ATOM      6  O   UNL     1       1.139   1.848  31.362  0.00  0.00    -0.377 OA
ATOM     10  N   UNL     1       1.764   2.870  28.780  0.00  0.00    -0.297 NA
ATOM     34  C   UNL     1       2.511   1.746  29.364  0.00  0.00    +0.112 C 
ATOM     35  C   UNL     1       0.391   2.885  29.301  0.00  0.00    +0.112 C 
ATOM     36  C   UNL     1       2.485   1.843  30.886  0.00  0.00    +0.175 C 
ATOM     37  C   UNL     1       0.415   2.956  30.824  0.00  0.00    +0.175 C 
ENDBRANCH  29  10
ENDBRANCH  27  29
ENDBRANCH   8  27
ENDBRANCH  24  25
ENDBRANCH  14  24
TORSDOF 9
ENDMDL
