MODEL 1
REMARK VINA RESULT:       2.2      0.000      0.000
REMARK  Name = 26744784
REMARK  6 active torsions:
REMARK  status: ('A' for Active; 'I' for Inactive)
REMARK    1  A    between atoms: N_8  and  C_18
REMARK    2  A    between atoms: C_13  and  C_19
REMARK    3  A    between atoms: C_18  and  C_20
REMARK    4  A    between atoms: C_24  and  C_28
REMARK    5  A    between atoms: C_27  and  C_29
REMARK    6  A    between atoms: C_34  and  C_35
REMARK                            x       y       z     vdW  Elec       q    Type
REMARK                         _______ _______ _______ _____ _____    ______ ____
ROOT
ATOM      8  N   UNL     1       2.443   1.238  23.524  0.00  0.00    -0.281 NA
ATOM      9  N   UNL     1       6.014   0.098  23.418  0.00  0.00    -0.347 N 
ATOM     10  N   UNL     1       5.171  -1.922  23.874  0.00  0.00    -0.240 NA
ATOM     13  C   UNL     1       1.897  -0.105  23.125  0.00  0.00    +0.152 C 
ATOM     14  C   UNL     1       2.718  -1.294  23.740  0.00  0.00    +0.086 C 
ATOM     15  C   UNL     1       3.855   1.428  23.081  0.00  0.00    +0.140 C 
ATOM     16  C   UNL     1       4.660   0.228  23.385  0.00  0.00    +0.053 A 
ATOM     17  C   UNL     1       4.167  -1.021  23.660  0.00  0.00    +0.065 A 
ATOM     21  C   UNL     1       6.275  -1.216  23.717  0.00  0.00    +0.197 A 
ATOM     36  H   UNL     1       6.700   0.823  23.251  0.00  0.00    +0.167 HD
ENDROOT
BRANCH  13  19
ATOM      7  O   UNL     1       0.005  -1.598  23.585  0.00  0.00    -0.336 OA
ATOM     11  N   UNL     1      -0.497   0.580  23.736  0.00  0.00    -0.190 NA
ATOM     12  N   UNL     1      -1.352  -1.534  23.927  0.00  0.00    -0.056 NA
ATOM     19  C   UNL     1       0.431  -0.311  23.493  0.00  0.00    +0.245 A 
ATOM     24  C   UNL     1      -1.573  -0.218  23.998  0.00  0.00    +0.202 A 
BRANCH  24  28
ATOM     28  C   UNL     1      -2.856   0.332  24.328  0.00  0.00    +0.022 A 
ATOM     30  C   UNL     1      -3.636  -0.264  25.319  0.00  0.00    +0.012 A 
ATOM     31  C   UNL     1      -3.323   1.464  23.660  0.00  0.00    +0.012 A 
ATOM     32  C   UNL     1      -4.882   0.272  25.642  0.00  0.00    +0.013 A 
ATOM     33  C   UNL     1      -4.569   2.000  23.983  0.00  0.00    +0.013 A 
ATOM     34  C   UNL     1      -5.350   1.403  24.974  0.00  0.00    +0.055 A 
BRANCH  34  35
ATOM      4  F   UNL     1      -6.656   3.337  25.428  0.00  0.00    -0.166 F 
ATOM      5  F   UNL     1      -7.652   1.701  24.397  0.00  0.00    -0.166 F 
ATOM      6  F   UNL     1      -7.183   1.524  26.507  0.00  0.00    -0.166 F 
ATOM     35  C   UNL     1      -6.683   1.976  25.318  0.00  0.00    +0.417 C 
ENDBRANCH  34  35
ENDBRANCH  24  28
ENDBRANCH  13  19
BRANCH   8  18
ATOM     18  C   UNL     1       1.642   2.348  22.989  0.00  0.00    +0.120 C 
BRANCH  18  20
ATOM     20  C   UNL     1       0.561   2.771  23.948  0.00  0.00    -0.033 A 
ATOM     22  C   UNL     1      -0.436   3.652  23.529  0.00  0.00    +0.005 A 
ATOM     23  C   UNL     1       0.557   2.282  25.255  0.00  0.00    +0.005 A 
ATOM     25  C   UNL     1      -1.437   4.045  24.417  0.00  0.00    +0.012 A 
ATOM     26  C   UNL     1      -0.446   2.674  26.142  0.00  0.00    +0.012 A 
ATOM     27  C   UNL     1      -1.443   3.555  25.723  0.00  0.00    +0.055 A 
BRANCH  27  29
ATOM      1  F   UNL     1      -3.692   3.303  26.496  0.00  0.00    -0.166 F 
ATOM      2  F   UNL     1      -2.828   5.297  26.560  0.00  0.00    -0.166 F 
ATOM      3  F   UNL     1      -2.190   3.783  27.984  0.00  0.00    -0.166 F 
ATOM     29  C   UNL     1      -2.515   3.973  26.672  0.00  0.00    +0.417 C 
ENDBRANCH  27  29
ENDBRANCH  18  20
ENDBRANCH   8  18
TORSDOF 6
ENDMDL
MODEL 2
REMARK VINA RESULT:       3.9      4.431      8.455
REMARK  Name = 26744784
REMARK  6 active torsions:
REMARK  status: ('A' for Active; 'I' for Inactive)
REMARK    1  A    between atoms: N_8  and  C_18
REMARK    2  A    between atoms: C_13  and  C_19
REMARK    3  A    between atoms: C_18  and  C_20
REMARK    4  A    between atoms: C_24  and  C_28
REMARK    5  A    between atoms: C_27  and  C_29
REMARK    6  A    between atoms: C_34  and  C_35
REMARK                            x       y       z     vdW  Elec       q    Type
REMARK                         _______ _______ _______ _____ _____    ______ ____
ROOT
ATOM      8  N   UNL     1      -4.545   1.444  25.010  0.00  0.00    -0.281 NA
ATOM      9  N   UNL     1      -6.749   4.256  26.149  0.00  0.00    -0.347 N 
ATOM     10  N   UNL     1      -5.305   5.564  25.052  0.00  0.00    -0.240 NA
ATOM     13  C   UNL     1      -4.067   2.179  23.788  0.00  0.00    +0.152 C 
ATOM     14  C   UNL     1      -3.887   3.718  24.045  0.00  0.00    +0.086 C 
ATOM     15  C   UNL     1      -5.864   1.947  25.492  0.00  0.00    +0.140 C 
ATOM     16  C   UNL     1      -5.878   3.424  25.515  0.00  0.00    +0.053 A 
ATOM     17  C   UNL     1      -5.010   4.246  24.846  0.00  0.00    +0.065 A 
ATOM     21  C   UNL     1      -6.363   5.536  25.840  0.00  0.00    +0.197 A 
ATOM     36  H   UNL     1      -7.533   3.989  26.731  0.00  0.00    +0.167 HD
ENDROOT
BRANCH  13  19
ATOM      7  O   UNL     1      -2.814   1.107  21.971  0.00  0.00    -0.336 OA
ATOM     11  N   UNL     1      -1.564   1.623  23.756  0.00  0.00    -0.190 NA
ATOM     12  N   UNL     1      -1.512   0.691  21.668  0.00  0.00    -0.056 NA
ATOM     19  C   UNL     1      -2.757   1.645  23.218  0.00  0.00    +0.245 A 
ATOM     24  C   UNL     1      -0.834   1.029  22.769  0.00  0.00    +0.202 A 
BRANCH  24  28
ATOM     28  C   UNL     1       0.572   0.789  22.912  0.00  0.00    +0.022 A 
ATOM     30  C   UNL     1       1.173  -0.271  22.233  0.00  0.00    +0.012 A 
ATOM     31  C   UNL     1       1.341   1.616  23.731  0.00  0.00    +0.012 A 
ATOM     32  C   UNL     1       2.541  -0.503  22.371  0.00  0.00    +0.013 A 
ATOM     33  C   UNL     1       2.709   1.384  23.870  0.00  0.00    +0.013 A 
ATOM     34  C   UNL     1       3.309   0.323  23.190  0.00  0.00    +0.055 A 
BRANCH  34  35
ATOM      4  F   UNL     1       5.044  -1.152  23.874  0.00  0.00    -0.166 F 
ATOM      5  F   UNL     1       5.458   0.120  22.159  0.00  0.00    -0.166 F 
ATOM      6  F   UNL     1       5.400   0.976  24.151  0.00  0.00    -0.166 F 
ATOM     35  C   UNL     1       4.772   0.075  23.339  0.00  0.00    +0.417 C 
ENDBRANCH  34  35
ENDBRANCH  24  28
ENDBRANCH  13  19
BRANCH   8  18
ATOM     18  C   UNL     1      -4.662  -0.002  24.781  0.00  0.00    +0.120 C 
BRANCH  18  20
ATOM     20  C   UNL     1      -3.352  -0.712  24.995  0.00  0.00    -0.033 A 
ATOM     22  C   UNL     1      -3.029  -1.827  24.221  0.00  0.00    +0.005 A 
ATOM     23  C   UNL     1      -2.461  -0.255  25.966  0.00  0.00    +0.005 A 
ATOM     25  C   UNL     1      -1.815  -2.484  24.419  0.00  0.00    +0.012 A 
ATOM     26  C   UNL     1      -1.246  -0.912  26.163  0.00  0.00    +0.012 A 
ATOM     27  C   UNL     1      -0.923  -2.027  25.389  0.00  0.00    +0.055 A 
BRANCH  27  29
ATOM      1  F   UNL     1       0.303  -4.080  25.417  0.00  0.00    -0.166 F 
ATOM      2  F   UNL     1       0.869  -2.555  26.859  0.00  0.00    -0.166 F 
ATOM      3  F   UNL     1       1.366  -2.308  24.757  0.00  0.00    -0.166 F 
ATOM     29  C   UNL     1       0.376  -2.729  25.598  0.00  0.00    +0.417 C 
ENDBRANCH  27  29
ENDBRANCH  18  20
ENDBRANCH   8  18
TORSDOF 6
ENDMDL
MODEL 3
REMARK VINA RESULT:       5.8      4.053      8.071
REMARK  Name = 26744784
REMARK  6 active torsions:
REMARK  status: ('A' for Active; 'I' for Inactive)
REMARK    1  A    between atoms: N_8  and  C_18
REMARK    2  A    between atoms: C_13  and  C_19
REMARK    3  A    between atoms: C_18  and  C_20
REMARK    4  A    between atoms: C_24  and  C_28
REMARK    5  A    between atoms: C_27  and  C_29
REMARK    6  A    between atoms: C_34  and  C_35
REMARK                            x       y       z     vdW  Elec       q    Type
REMARK                         _______ _______ _______ _____ _____    ______ ____
ROOT
ATOM      8  N   UNL     1      -2.565   2.938  24.209  0.00  0.00    -0.281 NA
ATOM      9  N   UNL     1      -6.180   2.740  25.189  0.00  0.00    -0.347 N 
ATOM     10  N   UNL     1      -5.980   0.565  24.713  0.00  0.00    -0.240 NA
ATOM     13  C   UNL     1      -2.282   1.508  24.578  0.00  0.00    +0.152 C 
ATOM     14  C   UNL     1      -3.486   0.554  24.252  0.00  0.00    +0.086 C 
ATOM     15  C   UNL     1      -3.745   3.487  24.938  0.00  0.00    +0.140 C 
ATOM     16  C   UNL     1      -4.864   2.524  24.911  0.00  0.00    +0.053 A 
ATOM     17  C   UNL     1      -4.766   1.186  24.630  0.00  0.00    +0.065 A 
ATOM     21  C   UNL     1      -6.812   1.530  25.056  0.00  0.00    +0.197 A 
ATOM     36  H   UNL     1      -6.611   3.618  25.448  0.00  0.00    +0.167 HD
ENDROOT
BRANCH  13  19
ATOM      7  O   UNL     1      -1.231   0.251  22.752  0.00  0.00    -0.336 OA
ATOM     11  N   UNL     1       0.214   0.993  24.294  0.00  0.00    -0.190 NA
ATOM     12  N   UNL     1       0.036  -0.177  22.336  0.00  0.00    -0.056 NA
ATOM     19  C   UNL     1      -1.036   0.932  23.912  0.00  0.00    +0.245 A 
ATOM     24  C   UNL     1       0.834   0.298  23.297  0.00  0.00    +0.202 A 
BRANCH  24  28
ATOM     28  C   UNL     1       2.254   0.099  23.288  0.00  0.00    +0.022 A 
ATOM     30  C   UNL     1       3.101   1.129  22.876  0.00  0.00    +0.012 A 
ATOM     31  C   UNL     1       2.790  -1.123  23.693  0.00  0.00    +0.012 A 
ATOM     32  C   UNL     1       4.482   0.936  22.869  0.00  0.00    +0.013 A 
ATOM     33  C   UNL     1       4.171  -1.316  23.686  0.00  0.00    +0.013 A 
ATOM     34  C   UNL     1       5.018  -0.286  23.273  0.00  0.00    +0.055 A 
BRANCH  34  35
ATOM      4  F   UNL     1       6.888  -1.492  24.108  0.00  0.00    -0.166 F 
ATOM      5  F   UNL     1       6.994  -0.829  22.040  0.00  0.00    -0.166 F 
ATOM      6  F   UNL     1       7.204   0.610  23.649  0.00  0.00    -0.166 F 
ATOM     35  C   UNL     1       6.494  -0.493  23.265  0.00  0.00    +0.417 C 
ENDBRANCH  34  35
ENDBRANCH  24  28
ENDBRANCH  13  19
BRANCH   8  18
ATOM     18  C   UNL     1      -1.417   3.819  24.467  0.00  0.00    +0.120 C 
BRANCH  18  20
ATOM     20  C   UNL     1      -0.714   3.462  25.749  0.00  0.00    -0.033 A 
ATOM     22  C   UNL     1       0.677   3.362  25.776  0.00  0.00    +0.005 A 
ATOM     23  C   UNL     1      -1.453   3.232  26.910  0.00  0.00    +0.005 A 
ATOM     25  C   UNL     1       1.329   3.031  26.964  0.00  0.00    +0.012 A 
ATOM     26  C   UNL     1      -0.801   2.903  28.098  0.00  0.00    +0.012 A 
ATOM     27  C   UNL     1       0.590   2.802  28.125  0.00  0.00    +0.055 A 
BRANCH  27  29
ATOM      1  F   UNL     1       0.677   2.950  30.511  0.00  0.00    -0.166 F 
ATOM      2  F   UNL     1       2.568   2.924  29.439  0.00  0.00    -0.166 F 
ATOM      3  F   UNL     1       1.387   1.107  29.613  0.00  0.00    -0.166 F 
ATOM     29  C   UNL     1       1.288   2.452  29.396  0.00  0.00    +0.417 C 
ENDBRANCH  27  29
ENDBRANCH  18  20
ENDBRANCH   8  18
TORSDOF 6
ENDMDL
