MODEL 1
REMARK VINA RESULT:       9.3      0.000      0.000
REMARK  Name = 40533466
REMARK  3 active torsions:
REMARK  status: ('A' for Active; 'I' for Inactive)
REMARK    1  A    between atoms: N_5  and  C_20
REMARK    2  A    between atoms: C_17  and  C_19
REMARK    3  A    between atoms: C_29  and  C_30
REMARK                            x       y       z     vdW  Elec       q    Type
REMARK                         _______ _______ _______ _____ _____    ______ ____
ROOT
ATOM      1  O   UNL     1       0.710   1.561  26.008  0.00  0.00    -0.267 OA
ATOM      2  O   UNL     1      -4.279   1.979  23.068  0.00  0.00    -0.252 OA
ATOM      3  N   UNL     1      -3.908   3.240  24.972  0.00  0.00    -0.284 N 
ATOM      4  N   UNL     1      -0.737   3.273  25.361  0.00  0.00    -0.311 N 
ATOM      5  N   UNL     1      -4.522   0.968  25.142  0.00  0.00    -0.269 N 
ATOM      7  C   UNL     1      -2.585   4.165  26.890  0.00  0.00    +0.027 C 
ATOM      8  C   UNL     1      -2.299   5.112  24.641  0.00  0.00    +0.054 C 
ATOM      9  C   UNL     1      -2.408   5.468  26.121  0.00  0.00    +0.018 C 
ATOM     10  C   UNL     1      -3.854   3.419  26.432  0.00  0.00    +0.114 C 
ATOM     11  C   UNL     1      -1.323   3.312  26.707  0.00  0.00    +0.130 C 
ATOM     12  C   UNL     1      -3.610   4.444  24.187  0.00  0.00    +0.119 C 
ATOM     13  C   UNL     1      -1.130   4.183  24.377  0.00  0.00    +0.027 A 
ATOM     14  C   UNL     1      -0.497   4.210  23.194  0.00  0.00    +0.022 A 
ATOM     15  C   UNL     1       0.310   2.353  25.152  0.00  0.00    +0.259 A 
ATOM     16  C   UNL     1      -4.236   2.042  24.299  0.00  0.00    +0.306 C 
ATOM     17  C   UNL     1       0.973   2.380  23.801  0.00  0.00    +0.048 A 
ATOM     18  C   UNL     1       0.565   3.290  22.904  0.00  0.00    +0.015 A 
ATOM     31  H   UNL     1      -4.941   1.169  26.045  0.00  0.00    +0.156 HD
ENDROOT
BRANCH   5  20
ATOM     20  C   UNL     1      -4.313  -0.407  24.877  0.00  0.00    +0.035 A 
ATOM     23  C   UNL     1      -3.569  -1.183  25.766  0.00  0.00    +0.023 A 
ATOM     24  C   UNL     1      -4.849  -0.986  23.728  0.00  0.00    +0.023 A 
ATOM     26  C   UNL     1      -3.362  -2.538  25.505  0.00  0.00    +0.005 A 
ATOM     27  C   UNL     1      -4.642  -2.340  23.466  0.00  0.00    +0.005 A 
ATOM     29  C   UNL     1      -3.899  -3.117  24.356  0.00  0.00    -0.050 A 
ATOM     30  C   UNL     1      -3.678  -4.565  24.078  0.00  0.00    +0.044 C 
ENDBRANCH   5  20
BRANCH  17  19
ATOM      6  N   UNL     1       2.724  -0.862  23.079  0.00  0.00    -0.263 NA
ATOM     19  C   UNL     1       2.042   1.427  23.457  0.00  0.00    +0.005 A 
ATOM     21  C   UNL     1       3.335   1.864  23.190  0.00  0.00    +0.011 A 
ATOM     22  C   UNL     1       1.790   0.066  23.389  0.00  0.00    +0.119 A 
ATOM     25  C   UNL     1       4.322   0.940  22.867  0.00  0.00    +0.020 A 
ATOM     28  C   UNL     1       3.969  -0.399  22.826  0.00  0.00    +0.111 A 
ENDBRANCH  17  19
TORSDOF 2
ENDMDL
MODEL 2
REMARK VINA RESULT:      13.2      1.471      6.131
REMARK  Name = 40533466
REMARK  3 active torsions:
REMARK  status: ('A' for Active; 'I' for Inactive)
REMARK    1  A    between atoms: N_5  and  C_20
REMARK    2  A    between atoms: C_17  and  C_19
REMARK    3  A    between atoms: C_29  and  C_30
REMARK                            x       y       z     vdW  Elec       q    Type
REMARK                         _______ _______ _______ _____ _____    ______ ____
ROOT
ATOM      1  O   UNL     1      -3.658   0.321  22.378  0.00  0.00    -0.267 OA
ATOM      2  O   UNL     1      -0.037   2.638  26.280  0.00  0.00    -0.252 OA
ATOM      3  N   UNL     1      -1.445   3.973  25.020  0.00  0.00    -0.284 N 
ATOM      4  N   UNL     1      -3.748   2.022  23.971  0.00  0.00    -0.311 N 
ATOM      5  N   UNL     1       0.549   3.123  24.088  0.00  0.00    -0.269 N 
ATOM      7  C   UNL     1      -3.289   4.472  23.396  0.00  0.00    +0.027 C 
ATOM      8  C   UNL     1      -3.835   3.844  25.706  0.00  0.00    +0.054 C 
ATOM      9  C   UNL     1      -4.215   4.782  24.564  0.00  0.00    +0.018 C 
ATOM     10  C   UNL     1      -1.813   4.687  23.786  0.00  0.00    +0.114 C 
ATOM     11  C   UNL     1      -3.553   3.035  22.927  0.00  0.00    +0.130 C 
ATOM     12  C   UNL     1      -2.385   4.134  26.135  0.00  0.00    +0.119 C 
ATOM     13  C   UNL     1      -3.970   2.389  25.300  0.00  0.00    +0.027 A 
ATOM     14  C   UNL     1      -4.267   1.454  26.216  0.00  0.00    +0.022 A 
ATOM     15  C   UNL     1      -3.810   0.680  23.546  0.00  0.00    +0.259 A 
ATOM     16  C   UNL     1      -0.284   3.190  25.205  0.00  0.00    +0.306 C 
ATOM     17  C   UNL     1      -4.106  -0.350  24.604  0.00  0.00    +0.048 A 
ATOM     18  C   UNL     1      -4.329   0.066  25.860  0.00  0.00    +0.015 A 
ATOM     31  H   UNL     1       0.576   3.923  23.464  0.00  0.00    +0.156 HD
ENDROOT
BRANCH   5  20
ATOM     20  C   UNL     1       1.400   2.053  23.718  0.00  0.00    +0.035 A 
ATOM     23  C   UNL     1       2.700   2.314  23.286  0.00  0.00    +0.023 A 
ATOM     24  C   UNL     1       0.938   0.739  23.785  0.00  0.00    +0.023 A 
ATOM     26  C   UNL     1       3.539   1.260  22.921  0.00  0.00    +0.005 A 
ATOM     27  C   UNL     1       1.775  -0.315  23.420  0.00  0.00    +0.005 A 
ATOM     29  C   UNL     1       3.076  -0.054  22.989  0.00  0.00    -0.050 A 
ATOM     30  C   UNL     1       3.973  -1.180  22.599  0.00  0.00    +0.044 C 
ENDBRANCH   5  20
BRANCH  17  19
ATOM      6  N   UNL     1      -3.234  -4.002  24.622  0.00  0.00    -0.263 NA
ATOM     19  C   UNL     1      -4.141  -1.787  24.282  0.00  0.00    +0.005 A 
ATOM     21  C   UNL     1      -5.063  -2.296  23.374  0.00  0.00    +0.011 A 
ATOM     22  C   UNL     1      -3.256  -2.673  24.873  0.00  0.00    +0.119 A 
ATOM     25  C   UNL     1      -5.073  -3.657  23.090  0.00  0.00    +0.020 A 
ATOM     28  C   UNL     1      -4.146  -4.460  23.734  0.00  0.00    +0.111 A 
ENDBRANCH  17  19
TORSDOF 2
ENDMDL
