MODEL 1
REMARK VINA RESULT:      -3.0      0.000      0.000
REMARK  Name = 45361509
REMARK  14 active torsions:
REMARK  status: ('A' for Active; 'I' for Inactive)
REMARK    1  A    between atoms: O_1  and  C_11
REMARK    2  A    between atoms: O_4  and  C_24
REMARK    3  A    between atoms: O_4  and  C_27
REMARK    4  A    between atoms: O_5  and  C_28
REMARK    5  A    between atoms: O_5  and  C_33
REMARK    6  A    between atoms: N_6  and  C_15
REMARK    7  A    between atoms: N_7  and  C_25
REMARK    8  A    between atoms: C_8  and  C_18
REMARK    9  A    between atoms: C_10  and  C_20
REMARK   10  A    between atoms: C_14  and  C_19
REMARK   11  A    between atoms: C_19  and  C_21
REMARK   12  A    between atoms: C_19  and  C_22
REMARK   13  A    between atoms: C_23  and  C_24
REMARK   14  A    between atoms: C_25  and  C_26
REMARK                            x       y       z     vdW  Elec       q    Type
REMARK                         _______ _______ _______ _____ _____    ______ ____
ROOT
ATOM      8  C   UNL     1      -2.174  -0.976  25.082  0.00  0.00    -0.027 C 
ATOM      9  C   UNL     1      -2.191   0.258  24.119  0.00  0.00    +0.028 C 
ATOM     10  C   UNL     1      -0.742   0.833  23.921  0.00  0.00    +0.012 C 
ATOM     11  C   UNL     1      -3.267   1.295  24.550  0.00  0.00    +0.122 C 
ATOM     12  C   UNL     1      -3.594  -1.585  25.164  0.00  0.00    +0.007 C 
ATOM     13  C   UNL     1      -1.233  -2.056  24.499  0.00  0.00    +0.009 C 
ATOM     14  C   UNL     1      -4.665   0.659  24.734  0.00  0.00    +0.029 C 
ATOM     15  C   UNL     1       0.213  -0.281  23.407  0.00  0.00    +0.076 C 
ATOM     16  C   UNL     1      -4.644  -0.583  25.624  0.00  0.00    +0.007 C 
ATOM     17  C   UNL     1       0.182  -1.549  24.261  0.00  0.00    +0.023 C 
ATOM     18  C   UNL     1      -1.706  -0.608  26.512  0.00  0.00    +0.011 C 
ATOM     20  C   UNL     1      -0.682   2.033  22.962  0.00  0.00    +0.010 C 
ENDROOT
BRANCH  15   6
ATOM      3  O   UNL     1       1.953  -0.375  21.098  0.00  0.00    -0.273 OA
ATOM      6  N   UNL     1       1.583   0.183  23.325  0.00  0.00    -0.310 N 
ATOM     23  C   UNL     1       2.336   0.093  22.167  0.00  0.00    +0.239 C 
ATOM     34  H   UNL     1       2.021   0.531  24.173  0.00  0.00    +0.149 HD
BRANCH  23  24
ATOM     24  C   UNL     1       3.728   0.654  22.363  0.00  0.00    +0.255 C 
BRANCH  24   4
ATOM      4  O   UNL     1       4.540  -0.261  23.066  0.00  0.00    -0.374 OA
ATOM     27  C   UNL     1       5.459   0.399  23.931  0.00  0.00    +0.194 C 
ENDBRANCH  24   4
ENDBRANCH  23  24
ENDBRANCH  15   6
BRANCH  11   1
ATOM      1  O   UNL     1      -3.402   2.293  23.538  0.00  0.00    -0.391 OA
ATOM     35  H   UNL     1      -4.299   2.663  23.594  0.00  0.00    +0.210 HD
ENDBRANCH  11   1
BRANCH  14  19
ATOM     19  C   UNL     1      -5.681   1.667  25.284  0.00  0.00    +0.077 C 
ATOM     21  C   UNL     1      -6.865   1.794  24.331  0.00  0.00    +0.017 C 
BRANCH  19  22
ATOM      2  O   UNL     1      -5.250   4.007  24.828  0.00  0.00    -0.276 OA
ATOM      7  N   UNL     1      -4.100   2.985  26.564  0.00  0.00    -0.311 N 
ATOM     22  C   UNL     1      -5.006   3.016  25.513  0.00  0.00    +0.216 C 
ATOM     36  H   UNL     1      -3.992   2.139  27.116  0.00  0.00    +0.149 HD
BRANCH   7  25
ATOM     25  C   UNL     1      -3.334   4.140  26.970  0.00  0.00    +0.143 C 
BRANCH  25  26
ATOM     26  C   UNL     1      -2.239   4.460  25.993  0.00  0.00    +0.011 A 
ATOM     28  C   UNL     1      -1.080   3.687  25.944  0.00  0.00    +0.125 A 
ATOM     29  C   UNL     1      -2.392   5.545  25.129  0.00  0.00    +0.009 A 
ATOM     30  C   UNL     1      -0.071   3.999  25.031  0.00  0.00    +0.046 A 
ATOM     31  C   UNL     1      -1.385   5.857  24.217  0.00  0.00    +0.001 A 
ATOM     32  C   UNL     1      -0.224   5.084  24.167  0.00  0.00    +0.004 A 
BRANCH  28   5
ATOM      5  O   UNL     1      -0.913   2.625  26.781  0.00  0.00    -0.495 OA
ATOM     33  C   UNL     1       0.425   2.291  27.146  0.00  0.00    +0.277 C 
ENDBRANCH  28   5
ENDBRANCH  25  26
ENDBRANCH   7  25
ENDBRANCH  19  22
ENDBRANCH  14  19
TORSDOF 9
ENDMDL
