MODEL 1
REMARK VINA RESULT:      -1.4      0.000      0.000
REMARK  Name = 45783750
REMARK  6 active torsions:
REMARK  status: ('A' for Active; 'I' for Inactive)
REMARK    1  A    between atoms: N_3  and  C_14
REMARK    2  A    between atoms: N_6  and  C_22
REMARK    3  A    between atoms: C_10  and  C_15
REMARK    4  A    between atoms: C_14  and  C_16
REMARK    5  A    between atoms: C_19  and  C_23
REMARK    6  A    between atoms: C_26  and  C_28
REMARK                            x       y       z     vdW  Elec       q    Type
REMARK                         _______ _______ _______ _____ _____    ______ ____
ROOT
ATOM      3  N   UNL     1      -4.006   4.273  25.636  0.00  0.00    -0.287 NA
ATOM     10  C   UNL     1      -4.733   3.026  25.948  0.00  0.00    +0.146 C 
ATOM     11  C   UNL     1      -6.215   3.369  25.708  0.00  0.00    +0.030 C 
ATOM     12  C   UNL     1      -6.226   4.841  25.323  0.00  0.00    +0.017 C 
ATOM     13  C   UNL     1      -4.932   5.372  25.907  0.00  0.00    +0.085 C 
ENDROOT
BRANCH  10  15
ATOM      1  O   UNL     1      -3.910   2.123  23.832  0.00  0.00    -0.336 OA
ATOM      4  N   UNL     1      -4.140   0.593  25.452  0.00  0.00    -0.190 NA
ATOM      5  N   UNL     1      -3.515   0.902  23.272  0.00  0.00    -0.056 NA
ATOM     15  C   UNL     1      -4.262   1.853  25.116  0.00  0.00    +0.245 A 
ATOM     19  C   UNL     1      -3.679   0.050  24.288  0.00  0.00    +0.207 A 
BRANCH  19  23
ATOM      7  N   UNL     1      -1.900  -3.229  24.395  0.00  0.00    -0.220 NA
ATOM      8  N   UNL     1      -1.139  -1.067  24.980  0.00  0.00    -0.342 N 
ATOM      9  N   UNL     1      -4.144  -3.560  23.583  0.00  0.00    -0.243 NA
ATOM     23  C   UNL     1      -3.389  -1.351  24.174  0.00  0.00    +0.080 A 
ATOM     24  C   UNL     1      -2.172  -1.912  24.503  0.00  0.00    +0.130 A 
ATOM     25  C   UNL     1      -4.348  -2.232  23.716  0.00  0.00    +0.127 A 
ATOM     27  C   UNL     1      -2.916  -3.984  23.936  0.00  0.00    +0.223 A 
ATOM     30  H   UNL     1      -0.265  -1.519  25.221  0.00  0.00    +0.144 HD
ATOM     31  H   UNL     1      -1.090  -0.115  24.640  0.00  0.00    +0.144 HD
ENDBRANCH  19  23
ENDBRANCH  10  15
BRANCH   3  14
ATOM     14  C   UNL     1      -2.759   4.411  26.378  0.00  0.00    +0.120 C 
BRANCH  14  16
ATOM     16  C   UNL     1      -1.623   3.689  25.705  0.00  0.00    -0.033 A 
ATOM     17  C   UNL     1      -1.252   4.031  24.403  0.00  0.00    +0.007 A 
ATOM     18  C   UNL     1      -0.941   2.676  26.380  0.00  0.00    +0.007 A 
ATOM     20  C   UNL     1      -0.200   3.362  23.779  0.00  0.00    +0.023 A 
ATOM     21  C   UNL     1       0.111   2.008  25.755  0.00  0.00    +0.023 A 
ATOM     22  C   UNL     1       0.481   2.350  24.455  0.00  0.00    +0.033 A 
BRANCH  22   6
ATOM      2  O   UNL     1       0.504  -0.210  22.869  0.00  0.00    -0.276 OA
ATOM      6  N   UNL     1       1.534   1.680  23.830  0.00  0.00    -0.286 N 
ATOM     26  C   UNL     1       1.488   0.484  23.102  0.00  0.00    +0.214 C 
ATOM     28  C   UNL     1       2.849   0.090  22.585  0.00  0.00    +0.109 C 
ATOM     29  H   UNL     1       2.446   2.124  23.920  0.00  0.00    +0.155 HD
ENDBRANCH  22   6
ENDBRANCH  14  16
ENDBRANCH   3  14
TORSDOF 5
ENDMDL
MODEL 2
REMARK VINA RESULT:      -1.0     14.186     17.497
REMARK  Name = 45783750
REMARK  6 active torsions:
REMARK  status: ('A' for Active; 'I' for Inactive)
REMARK    1  A    between atoms: N_3  and  C_14
REMARK    2  A    between atoms: N_6  and  C_22
REMARK    3  A    between atoms: C_10  and  C_15
REMARK    4  A    between atoms: C_14  and  C_16
REMARK    5  A    between atoms: C_19  and  C_23
REMARK    6  A    between atoms: C_26  and  C_28
REMARK                            x       y       z     vdW  Elec       q    Type
REMARK                         _______ _______ _______ _____ _____    ______ ____
ROOT
ATOM      3  N   UNL     1      -5.342  -9.683  11.077  0.00  0.00    -0.287 NA
ATOM     10  C   UNL     1      -4.227 -10.010  10.167  0.00  0.00    +0.146 C 
ATOM     11  C   UNL     1      -4.472  -9.139   8.921  0.00  0.00    +0.030 C 
ATOM     12  C   UNL     1      -5.776  -8.405   9.198  0.00  0.00    +0.017 C 
ATOM     13  C   UNL     1      -6.463  -9.278  10.230  0.00  0.00    +0.085 C 
ENDROOT
BRANCH  10  15
ATOM      1  O   UNL     1      -2.352 -10.781  11.531  0.00  0.00    -0.336 OA
ATOM      4  N   UNL     1      -2.109  -8.701  10.736  0.00  0.00    -0.190 NA
ATOM      5  N   UNL     1      -1.114 -10.326  12.002  0.00  0.00    -0.056 NA
ATOM     15  C   UNL     1      -2.871  -9.765  10.794  0.00  0.00    +0.245 A 
ATOM     19  C   UNL     1      -1.043  -9.094  11.491  0.00  0.00    +0.207 A 
BRANCH  19  23
ATOM      7  N   UNL     1       2.378  -7.609  11.358  0.00  0.00    -0.220 NA
ATOM      8  N   UNL     1       1.514  -9.535  10.291  0.00  0.00    -0.342 N 
ATOM      9  N   UNL     1       0.978  -6.272  12.793  0.00  0.00    -0.243 NA
ATOM     23  C   UNL     1       0.080  -8.229  11.715  0.00  0.00    +0.080 A 
ATOM     24  C   UNL     1       1.322  -8.422  11.146  0.00  0.00    +0.130 A 
ATOM     25  C   UNL     1      -0.035  -7.126  12.537  0.00  0.00    +0.127 A 
ATOM     27  C   UNL     1       2.139  -6.569  12.178  0.00  0.00    +0.223 A 
ATOM     30  H   UNL     1       2.437  -9.635   9.884  0.00  0.00    +0.144 HD
ATOM     31  H   UNL     1       0.992 -10.383  10.468  0.00  0.00    +0.144 HD
ENDBRANCH  19  23
ENDBRANCH  10  15
BRANCH   3  14
ATOM     14  C   UNL     1      -5.697 -10.781  11.968  0.00  0.00    +0.120 C 
BRANCH  14  16
ATOM     16  C   UNL     1      -6.543 -10.315  13.122  0.00  0.00    -0.033 A 
ATOM     17  C   UNL     1      -5.960 -10.096  14.371  0.00  0.00    +0.007 A 
ATOM     18  C   UNL     1      -7.911 -10.104  12.944  0.00  0.00    +0.007 A 
ATOM     20  C   UNL     1      -6.745  -9.665  15.440  0.00  0.00    +0.023 A 
ATOM     21  C   UNL     1      -8.694  -9.673  14.015  0.00  0.00    +0.023 A 
ATOM     22  C   UNL     1      -8.111  -9.454  15.262  0.00  0.00    +0.033 A 
BRANCH  22   6
ATOM      2  O   UNL     1     -10.216  -7.305  15.403  0.00  0.00    -0.276 OA
ATOM      6  N   UNL     1      -8.896  -9.023  16.333  0.00  0.00    -0.286 N 
ATOM     26  C   UNL     1      -9.866  -8.011  16.342  0.00  0.00    +0.214 C 
ATOM     28  C   UNL     1     -10.494  -7.851  17.704  0.00  0.00    +0.109 C 
ATOM     29  H   UNL     1      -8.737  -9.510  17.212  0.00  0.00    +0.155 HD
ENDBRANCH  22   6
ENDBRANCH  14  16
ENDBRANCH   3  14
TORSDOF 5
ENDMDL
MODEL 3
REMARK VINA RESULT:       0.1      2.009      5.654
REMARK  Name = 45783750
REMARK  6 active torsions:
REMARK  status: ('A' for Active; 'I' for Inactive)
REMARK    1  A    between atoms: N_3  and  C_14
REMARK    2  A    between atoms: N_6  and  C_22
REMARK    3  A    between atoms: C_10  and  C_15
REMARK    4  A    between atoms: C_14  and  C_16
REMARK    5  A    between atoms: C_19  and  C_23
REMARK    6  A    between atoms: C_26  and  C_28
REMARK                            x       y       z     vdW  Elec       q    Type
REMARK                         _______ _______ _______ _____ _____    ______ ____
ROOT
ATOM      3  N   UNL     1      -4.406  -1.661  23.925  0.00  0.00    -0.287 NA
ATOM     10  C   UNL     1      -3.390  -2.061  24.918  0.00  0.00    +0.146 C 
ATOM     11  C   UNL     1      -3.117  -3.547  24.620  0.00  0.00    +0.030 C 
ATOM     12  C   UNL     1      -4.067  -3.906  23.486  0.00  0.00    +0.017 C 
ATOM     13  C   UNL     1      -5.165  -2.868  23.599  0.00  0.00    +0.085 C 
ENDROOT
BRANCH  10  15
ATOM      1  O   UNL     1      -1.917  -0.373  25.894  0.00  0.00    -0.336 OA
ATOM      4  N   UNL     1      -1.224  -1.157  23.913  0.00  0.00    -0.190 NA
ATOM      5  N   UNL     1      -0.721   0.298  25.606  0.00  0.00    -0.056 NA
ATOM     15  C   UNL     1      -2.140  -1.211  24.847  0.00  0.00    +0.245 A 
ATOM     19  C   UNL     1      -0.375  -0.218  24.424  0.00  0.00    +0.207 A 
BRANCH  19  23
ATOM      7  N   UNL     1       2.616   1.726  23.327  0.00  0.00    -0.220 NA
ATOM      8  N   UNL     1       1.010   2.218  24.992  0.00  0.00    -0.342 N 
ATOM      9  N   UNL     1       2.458  -0.302  22.034  0.00  0.00    -0.243 NA
ATOM     23  C   UNL     1       0.814   0.181  23.726  0.00  0.00    +0.080 A 
ATOM     24  C   UNL     1       1.498   1.350  23.984  0.00  0.00    +0.130 A 
ATOM     25  C   UNL     1       1.345  -0.615  22.731  0.00  0.00    +0.127 A 
ATOM     27  C   UNL     1       3.034   0.865  22.380  0.00  0.00    +0.223 A 
ATOM     30  H   UNL     1       1.547   3.061  25.159  0.00  0.00    +0.144 HD
ATOM     31  H   UNL     1       0.012   2.265  25.155  0.00  0.00    +0.144 HD
ENDBRANCH  19  23
ENDBRANCH  10  15
BRANCH   3  14
ATOM     14  C   UNL     1      -5.268  -0.580  24.389  0.00  0.00    +0.120 C 
BRANCH  14  16
ATOM     16  C   UNL     1      -4.557   0.747  24.381  0.00  0.00    -0.033 A 
ATOM     17  C   UNL     1      -4.790   1.669  25.403  0.00  0.00    +0.007 A 
ATOM     18  C   UNL     1      -3.666   1.056  23.353  0.00  0.00    +0.007 A 
ATOM     20  C   UNL     1      -4.132   2.898  25.396  0.00  0.00    +0.023 A 
ATOM     21  C   UNL     1      -3.008   2.286  23.347  0.00  0.00    +0.023 A 
ATOM     22  C   UNL     1      -3.242   3.207  24.368  0.00  0.00    +0.033 A 
BRANCH  22   6
ATOM      2  O   UNL     1      -0.803   4.128  25.876  0.00  0.00    -0.276 OA
ATOM      6  N   UNL     1      -2.583   4.437  24.361  0.00  0.00    -0.286 N 
ATOM     26  C   UNL     1      -1.446   4.814  25.088  0.00  0.00    +0.214 C 
ATOM     28  C   UNL     1      -1.044   6.238  24.798  0.00  0.00    +0.109 C 
ATOM     29  H   UNL     1      -2.986   5.142  23.747  0.00  0.00    +0.155 HD
ENDBRANCH  22   6
ENDBRANCH  14  16
ENDBRANCH   3  14
TORSDOF 5
ENDMDL
MODEL 4
REMARK VINA RESULT:       1.9      1.891      5.833
REMARK  Name = 45783750
REMARK  6 active torsions:
REMARK  status: ('A' for Active; 'I' for Inactive)
REMARK    1  A    between atoms: N_3  and  C_14
REMARK    2  A    between atoms: N_6  and  C_22
REMARK    3  A    between atoms: C_10  and  C_15
REMARK    4  A    between atoms: C_14  and  C_16
REMARK    5  A    between atoms: C_19  and  C_23
REMARK    6  A    between atoms: C_26  and  C_28
REMARK                            x       y       z     vdW  Elec       q    Type
REMARK                         _______ _______ _______ _____ _____    ______ ____
ROOT
ATOM      3  N   UNL     1      -2.250  -2.536  24.665  0.00  0.00    -0.287 NA
ATOM     10  C   UNL     1      -3.118  -1.746  23.769  0.00  0.00    +0.146 C 
ATOM     11  C   UNL     1      -4.203  -2.735  23.307  0.00  0.00    +0.030 C 
ATOM     12  C   UNL     1      -3.829  -4.066  23.945  0.00  0.00    +0.017 C 
ATOM     13  C   UNL     1      -2.344  -3.925  24.215  0.00  0.00    +0.085 C 
ENDROOT
BRANCH  10  15
ATOM      1  O   UNL     1      -4.080  -0.670  25.741  0.00  0.00    -0.336 OA
ATOM      4  N   UNL     1      -3.879   0.683  23.967  0.00  0.00    -0.190 NA
ATOM      5  N   UNL     1      -4.571   0.577  26.145  0.00  0.00    -0.056 NA
ATOM     15  C   UNL     1      -3.693  -0.521  24.447  0.00  0.00    +0.245 A 
ATOM     19  C   UNL     1      -4.420   1.321  25.045  0.00  0.00    +0.207 A 
BRANCH  19  23
ATOM      7  N   UNL     1      -6.114   4.570  25.750  0.00  0.00    -0.220 NA
ATOM      8  N   UNL     1      -6.424   2.447  26.746  0.00  0.00    -0.342 N 
ATOM      9  N   UNL     1      -4.496   4.873  23.990  0.00  0.00    -0.243 NA
ATOM     23  C   UNL     1      -4.797   2.704  24.991  0.00  0.00    +0.080 A 
ATOM     24  C   UNL     1      -5.759   3.269  25.801  0.00  0.00    +0.130 A 
ATOM     25  C   UNL     1      -4.191   3.562  24.095  0.00  0.00    +0.127 A 
ATOM     27  C   UNL     1      -5.452   5.304  24.835  0.00  0.00    +0.223 A 
ATOM     30  H   UNL     1      -7.116   2.903  27.329  0.00  0.00    +0.144 HD
ATOM     31  H   UNL     1      -6.575   1.472  26.523  0.00  0.00    +0.144 HD
ENDBRANCH  19  23
ENDBRANCH  10  15
BRANCH   3  14
ATOM     14  C   UNL     1      -0.872  -2.061  24.694  0.00  0.00    +0.120 C 
BRANCH  14  16
ATOM     16  C   UNL     1      -0.794  -0.560  24.627  0.00  0.00    -0.033 A 
ATOM     17  C   UNL     1      -0.602   0.074  23.399  0.00  0.00    +0.007 A 
ATOM     18  C   UNL     1      -0.913   0.198  25.792  0.00  0.00    +0.007 A 
ATOM     20  C   UNL     1      -0.529   1.466  23.336  0.00  0.00    +0.023 A 
ATOM     21  C   UNL     1      -0.840   1.590  25.729  0.00  0.00    +0.023 A 
ATOM     22  C   UNL     1      -0.648   2.223  24.501  0.00  0.00    +0.033 A 
BRANCH  22   6
ATOM      2  O   UNL     1      -2.029   4.329  26.152  0.00  0.00    -0.276 OA
ATOM      6  N   UNL     1      -0.575   3.615  24.439  0.00  0.00    -0.286 N 
ATOM     26  C   UNL     1      -1.245   4.553  25.235  0.00  0.00    +0.214 C 
ATOM     28  C   UNL     1      -0.894   5.968  24.849  0.00  0.00    +0.109 C 
ATOM     29  H   UNL     1       0.044   3.986  23.721  0.00  0.00    +0.155 HD
ENDBRANCH  22   6
ENDBRANCH  14  16
ENDBRANCH   3  14
TORSDOF 5
ENDMDL
MODEL 5
REMARK VINA RESULT:       2.0     13.989     17.043
REMARK  Name = 45783750
REMARK  6 active torsions:
REMARK  status: ('A' for Active; 'I' for Inactive)
REMARK    1  A    between atoms: N_3  and  C_14
REMARK    2  A    between atoms: N_6  and  C_22
REMARK    3  A    between atoms: C_10  and  C_15
REMARK    4  A    between atoms: C_14  and  C_16
REMARK    5  A    between atoms: C_19  and  C_23
REMARK    6  A    between atoms: C_26  and  C_28
REMARK                            x       y       z     vdW  Elec       q    Type
REMARK                         _______ _______ _______ _____ _____    ______ ____
ROOT
ATOM      3  N   UNL     1      -5.453  -9.473  11.699  0.00  0.00    -0.287 NA
ATOM     10  C   UNL     1      -4.541  -9.536  10.540  0.00  0.00    +0.146 C 
ATOM     11  C   UNL     1      -4.917  -8.315   9.681  0.00  0.00    +0.030 C 
ATOM     12  C   UNL     1      -6.086  -7.663  10.404  0.00  0.00    +0.017 C 
ATOM     13  C   UNL     1      -6.662  -8.791  11.237  0.00  0.00    +0.085 C 
ENDROOT
BRANCH  10  15
ATOM      1  O   UNL     1      -2.586 -10.714  11.413  0.00  0.00    -0.336 OA
ATOM      4  N   UNL     1      -2.211  -8.562  10.919  0.00  0.00    -0.190 NA
ATOM      5  N   UNL     1      -1.242 -10.473  11.720  0.00  0.00    -0.056 NA
ATOM     15  C   UNL     1      -3.083  -9.538  10.947  0.00  0.00    +0.245 A 
ATOM     19  C   UNL     1      -1.097  -9.184  11.402  0.00  0.00    +0.207 A 
BRANCH  19  23
ATOM      7  N   UNL     1       1.559  -6.896  12.681  0.00  0.00    -0.220 NA
ATOM      8  N   UNL     1      -0.645  -7.251  13.461  0.00  0.00    -0.342 N 
ATOM      9  N   UNL     1       2.395  -8.110  10.775  0.00  0.00    -0.243 NA
ATOM     23  C   UNL     1       0.149  -8.486  11.554  0.00  0.00    +0.080 A 
ATOM     24  C   UNL     1       0.389  -7.551  12.539  0.00  0.00    +0.130 A 
ATOM     25  C   UNL     1       1.199  -8.729  10.692  0.00  0.00    +0.127 A 
ATOM     27  C   UNL     1       2.505  -7.219  11.779  0.00  0.00    +0.223 A 
ATOM     30  H   UNL     1      -0.425  -6.568  14.176  0.00  0.00    +0.144 HD
ATOM     31  H   UNL     1      -1.607  -7.303  13.150  0.00  0.00    +0.144 HD
ENDBRANCH  19  23
ENDBRANCH  10  15
BRANCH   3  14
ATOM     14  C   UNL     1      -5.747 -10.781  12.270  0.00  0.00    +0.120 C 
BRANCH  14  16
ATOM     16  C   UNL     1      -6.276 -10.673  13.675  0.00  0.00    -0.033 A 
ATOM     17  C   UNL     1      -7.639 -10.468  13.894  0.00  0.00    +0.007 A 
ATOM     18  C   UNL     1      -5.404 -10.777  14.760  0.00  0.00    +0.007 A 
ATOM     20  C   UNL     1      -8.129 -10.368  15.195  0.00  0.00    +0.023 A 
ATOM     21  C   UNL     1      -5.896 -10.677  16.061  0.00  0.00    +0.023 A 
ATOM     22  C   UNL     1      -7.258 -10.471  16.279  0.00  0.00    +0.033 A 
BRANCH  22   6
ATOM      2  O   UNL     1      -5.811 -10.488  18.920  0.00  0.00    -0.276 OA
ATOM      6  N   UNL     1      -7.748 -10.371  17.581  0.00  0.00    -0.286 N 
ATOM     26  C   UNL     1      -7.025 -10.386  18.781  0.00  0.00    +0.214 C 
ATOM     28  C   UNL     1      -7.930 -10.251  19.981  0.00  0.00    +0.109 C 
ATOM     29  H   UNL     1      -8.759 -10.275  17.659  0.00  0.00    +0.155 HD
ENDBRANCH  22   6
ENDBRANCH  14  16
ENDBRANCH   3  14
TORSDOF 5
ENDMDL
MODEL 6
REMARK VINA RESULT:       2.3     14.177     16.793
REMARK  Name = 45783750
REMARK  6 active torsions:
REMARK  status: ('A' for Active; 'I' for Inactive)
REMARK    1  A    between atoms: N_3  and  C_14
REMARK    2  A    between atoms: N_6  and  C_22
REMARK    3  A    between atoms: C_10  and  C_15
REMARK    4  A    between atoms: C_14  and  C_16
REMARK    5  A    between atoms: C_19  and  C_23
REMARK    6  A    between atoms: C_26  and  C_28
REMARK                            x       y       z     vdW  Elec       q    Type
REMARK                         _______ _______ _______ _____ _____    ______ ____
ROOT
ATOM      3  N   UNL     1      -4.863  -9.882  13.490  0.00  0.00    -0.287 NA
ATOM     10  C   UNL     1      -4.388 -10.384  12.186  0.00  0.00    +0.146 C 
ATOM     11  C   UNL     1      -5.399  -9.834  11.164  0.00  0.00    +0.030 C 
ATOM     12  C   UNL     1      -6.437  -9.089  11.991  0.00  0.00    +0.017 C 
ATOM     13  C   UNL     1      -6.311  -9.714  13.367  0.00  0.00    +0.085 C 
ENDROOT
BRANCH  10  15
ATOM      1  O   UNL     1      -2.255 -10.780  11.061  0.00  0.00    -0.336 OA
ATOM      4  N   UNL     1      -2.301  -8.917  12.304  0.00  0.00    -0.190 NA
ATOM      5  N   UNL     1      -0.989 -10.195  10.932  0.00  0.00    -0.056 NA
ATOM     15  C   UNL     1      -2.965  -9.965  11.884  0.00  0.00    +0.245 A 
ATOM     19  C   UNL     1      -1.095  -9.102  11.694  0.00  0.00    +0.207 A 
BRANCH  19  23
ATOM      7  N   UNL     1       2.222  -7.417  11.393  0.00  0.00    -0.220 NA
ATOM      8  N   UNL     1       1.418  -9.388  10.360  0.00  0.00    -0.342 N 
ATOM      9  N   UNL     1       0.822  -6.170  12.906  0.00  0.00    -0.243 NA
ATOM     23  C   UNL     1      -0.014  -8.173  11.865  0.00  0.00    +0.080 A 
ATOM     24  C   UNL     1       1.206  -8.290  11.231  0.00  0.00    +0.130 A 
ATOM     25  C   UNL     1      -0.151  -7.082  12.699  0.00  0.00    +0.127 A 
ATOM     27  C   UNL     1       1.965  -6.396  12.231  0.00  0.00    +0.223 A 
ATOM     30  H   UNL     1       2.323  -9.432   9.906  0.00  0.00    +0.144 HD
ATOM     31  H   UNL     1       0.957 -10.266  10.558  0.00  0.00    +0.144 HD
ENDBRANCH  19  23
ENDBRANCH  10  15
BRANCH   3  14
ATOM     14  C   UNL     1      -4.505 -10.750  14.605  0.00  0.00    +0.120 C 
BRANCH  14  16
ATOM     16  C   UNL     1      -5.492 -10.645  15.737  0.00  0.00    -0.033 A 
ATOM     17  C   UNL     1      -6.858 -10.779  15.486  0.00  0.00    +0.007 A 
ATOM     18  C   UNL     1      -5.042 -10.411  17.037  0.00  0.00    +0.007 A 
ATOM     20  C   UNL     1      -7.773 -10.681  16.534  0.00  0.00    +0.023 A 
ATOM     21  C   UNL     1      -5.957 -10.313  18.084  0.00  0.00    +0.023 A 
ATOM     22  C   UNL     1      -7.322 -10.448  17.833  0.00  0.00    +0.033 A 
BRANCH  22   6
ATOM      2  O   UNL     1     -10.330 -10.598  17.825  0.00  0.00    -0.276 OA
ATOM      6  N   UNL     1      -8.237 -10.349  18.882  0.00  0.00    -0.286 N 
ATOM     26  C   UNL     1      -9.635 -10.426  18.821  0.00  0.00    +0.214 C 
ATOM     28  C   UNL     1     -10.263 -10.271  20.184  0.00  0.00    +0.109 C 
ATOM     29  H   UNL     1      -7.828 -10.204  19.803  0.00  0.00    +0.155 HD
ENDBRANCH  22   6
ENDBRANCH  14  16
ENDBRANCH   3  14
TORSDOF 5
ENDMDL
