MODEL 1
REMARK VINA RESULT:      -5.3      0.000      0.000
REMARK  Name = 38031028
REMARK  12 active torsions:
REMARK  status: ('A' for Active; 'I' for Inactive)
REMARK    1  A    between atoms: N_3  and  C_13
REMARK    2  A    between atoms: N_3  and  C_19
REMARK    3  A    between atoms: C_6  and  C_10
REMARK    4  A    between atoms: C_7  and  C_13
REMARK    5  A    between atoms: C_9  and  C_14
REMARK    6  A    between atoms: C_10  and  C_15
REMARK    7  A    between atoms: C_10  and  C_16
REMARK    8  A    between atoms: C_11  and  C_17
REMARK    9  A    between atoms: C_14  and  C_18
REMARK   10  A    between atoms: C_19  and  C_20
REMARK   11  A    between atoms: C_19  and  C_21
REMARK   12  A    between atoms: C_22  and  C_23
REMARK                            x       y       z     vdW  Elec       q    Type
REMARK                         _______ _______ _______ _____ _____    ______ ____
ROOT
ATOM      6  C   UNL     1      -1.395   1.713  25.011  0.00  0.00    +0.000 C 
ATOM      7  C   UNL     1      -0.139   2.499  25.462  0.00  0.00    +0.029 C 
ATOM      8  C   UNL     1      -2.143   2.482  23.911  0.00  0.00    +0.012 C 
ATOM      9  C   UNL     1      -2.585   3.882  24.378  0.00  0.00    +0.024 C 
ATOM     11  C   UNL     1      -1.464   4.622  25.079  0.00  0.00    -0.073 C 
ATOM     12  C   UNL     1      -0.373   3.989  25.545  0.00  0.00    -0.023 C 
ATOM     17  C   UNL     1      -1.605   6.115  25.192  0.00  0.00    +0.039 C 
ENDROOT
BRANCH   6  10
ATOM     10  C   UNL     1      -1.039   0.309  24.511  0.00  0.00    -0.013 C 
ATOM     15  C   UNL     1      -0.703  -0.603  25.686  0.00  0.00    +0.007 C 
ATOM     16  C   UNL     1       0.123   0.373  23.526  0.00  0.00    +0.007 C 
ENDBRANCH   6  10
BRANCH   7  13
ATOM     13  C   UNL     1       0.378   1.988  26.812  0.00  0.00    +0.089 C 
BRANCH  13   3
ATOM      3  N   UNL     1       1.209   2.991  27.455  0.00  0.00    -0.313 NA
ATOM     29  H   UNL     1       1.931   3.302  26.805  0.00  0.00    +0.122 HD
BRANCH   3  19
ATOM     19  C   UNL     1       1.838   2.458  28.658  0.00  0.00    +0.047 C 
ATOM     20  C   UNL     1       0.911   2.627  29.858  0.00  0.00    +0.023 C 
ATOM     21  C   UNL     1       3.170   3.165  28.890  0.00  0.00    +0.023 C 
ENDBRANCH   3  19
ENDBRANCH  13   3
ENDBRANCH   7  13
BRANCH   9  14
ATOM     14  C   UNL     1      -3.830   3.800  25.269  0.00  0.00    +0.105 C 
BRANCH  14  18
ATOM      2  O   UNL     1      -3.814   1.375  24.993  0.00  0.00    -0.420 OA
ATOM      4  N   UNL     1      -5.855   2.291  24.940  0.00  0.00    -0.112 NA
ATOM      5  N   UNL     1      -5.995   0.925  24.772  0.00  0.00    -0.107 NA
ATOM     18  C   UNL     1      -4.567   2.508  25.064  0.00  0.00    +0.218 A 
ATOM     22  C   UNL     1      -4.779   0.433  24.810  0.00  0.00    +0.251 A 
BRANCH  22  23
ATOM      1  F   UNL     1      -3.545  -0.910  26.939  0.00  0.00    -0.205 F 
ATOM     23  C   UNL     1      -4.318  -0.920  24.691  0.00  0.00    +0.074 A 
ATOM     24  C   UNL     1      -3.709  -1.553  25.774  0.00  0.00    +0.136 A 
ATOM     25  C   UNL     1      -4.480  -1.604  23.485  0.00  0.00    +0.016 A 
ATOM     26  C   UNL     1      -3.262  -2.869  25.653  0.00  0.00    +0.039 A 
ATOM     27  C   UNL     1      -4.033  -2.919  23.365  0.00  0.00    +0.001 A 
ATOM     28  C   UNL     1      -3.425  -3.552  24.448  0.00  0.00    +0.003 A 
ENDBRANCH  22  23
ENDBRANCH  14  18
ENDBRANCH   9  14
TORSDOF 7
ENDMDL
MODEL 2
REMARK VINA RESULT:      -4.3      3.788      6.820
REMARK  Name = 38031028
REMARK  12 active torsions:
REMARK  status: ('A' for Active; 'I' for Inactive)
REMARK    1  A    between atoms: N_3  and  C_13
REMARK    2  A    between atoms: N_3  and  C_19
REMARK    3  A    between atoms: C_6  and  C_10
REMARK    4  A    between atoms: C_7  and  C_13
REMARK    5  A    between atoms: C_9  and  C_14
REMARK    6  A    between atoms: C_10  and  C_15
REMARK    7  A    between atoms: C_10  and  C_16
REMARK    8  A    between atoms: C_11  and  C_17
REMARK    9  A    between atoms: C_14  and  C_18
REMARK   10  A    between atoms: C_19  and  C_20
REMARK   11  A    between atoms: C_19  and  C_21
REMARK   12  A    between atoms: C_22  and  C_23
REMARK                            x       y       z     vdW  Elec       q    Type
REMARK                         _______ _______ _______ _____ _____    ______ ____
ROOT
ATOM      6  C   UNL     1      -2.845  -0.280  24.707  0.00  0.00    +0.000 C 
ATOM      7  C   UNL     1      -3.787   0.653  25.507  0.00  0.00    +0.029 C 
ATOM      8  C   UNL     1      -1.381  -0.025  25.094  0.00  0.00    +0.012 C 
ATOM      9  C   UNL     1      -0.957   1.433  24.835  0.00  0.00    +0.024 C 
ATOM     11  C   UNL     1      -1.978   2.418  25.364  0.00  0.00    -0.073 C 
ATOM     12  C   UNL     1      -3.235   2.050  25.670  0.00  0.00    -0.023 C 
ATOM     17  C   UNL     1      -1.510   3.832  25.574  0.00  0.00    +0.039 C 
ENDROOT
BRANCH   6  10
ATOM     10  C   UNL     1      -3.189  -1.758  24.926  0.00  0.00    -0.013 C 
ATOM     15  C   UNL     1      -1.925  -2.610  24.880  0.00  0.00    +0.007 C 
ATOM     16  C   UNL     1      -4.198  -2.230  23.884  0.00  0.00    +0.007 C 
ENDBRANCH   6  10
BRANCH   7  13
ATOM     13  C   UNL     1      -5.175   0.727  24.859  0.00  0.00    +0.089 C 
BRANCH  13   3
ATOM      3  N   UNL     1      -5.456   2.076  24.400  0.00  0.00    -0.313 NA
ATOM     29  H   UNL     1      -4.580   2.589  24.296  0.00  0.00    +0.122 HD
BRANCH   3  19
ATOM     19  C   UNL     1      -6.320   2.781  25.339  0.00  0.00    +0.047 C 
ATOM     20  C   UNL     1      -5.743   4.157  25.659  0.00  0.00    +0.023 C 
ATOM     21  C   UNL     1      -6.483   1.946  26.605  0.00  0.00    +0.023 C 
ENDBRANCH   3  19
ENDBRANCH  13   3
ENDBRANCH   7  13
BRANCH   9  14
ATOM     14  C   UNL     1      -0.682   1.672  23.346  0.00  0.00    +0.105 C 
BRANCH  14  18
ATOM      2  O   UNL     1       1.606   0.834  23.478  0.00  0.00    -0.420 OA
ATOM      4  N   UNL     1       0.384  -0.090  21.847  0.00  0.00    -0.112 NA
ATOM      5  N   UNL     1       1.647  -0.652  21.805  0.00  0.00    -0.107 NA
ATOM     18  C   UNL     1       0.406   0.771  22.838  0.00  0.00    +0.218 A 
ATOM     22  C   UNL     1       2.325  -0.084  22.775  0.00  0.00    +0.251 A 
BRANCH  22  23
ATOM      1  F   UNL     1       4.246   1.948  22.575  0.00  0.00    -0.205 F 
ATOM     23  C   UNL     1       3.681  -0.276  23.199  0.00  0.00    +0.074 A 
ATOM     24  C   UNL     1       4.607   0.761  23.082  0.00  0.00    +0.136 A 
ATOM     25  C   UNL     1       4.074  -1.506  23.728  0.00  0.00    +0.016 A 
ATOM     26  C   UNL     1       5.926   0.568  23.496  0.00  0.00    +0.039 A 
ATOM     27  C   UNL     1       5.392  -1.697  24.142  0.00  0.00    +0.001 A 
ATOM     28  C   UNL     1       6.318  -0.660  24.026  0.00  0.00    +0.003 A 
ENDBRANCH  22  23
ENDBRANCH  14  18
ENDBRANCH   9  14
TORSDOF 7
ENDMDL
MODEL 3
REMARK VINA RESULT:      -4.3      1.696      3.399
REMARK  Name = 38031028
REMARK  12 active torsions:
REMARK  status: ('A' for Active; 'I' for Inactive)
REMARK    1  A    between atoms: N_3  and  C_13
REMARK    2  A    between atoms: N_3  and  C_19
REMARK    3  A    between atoms: C_6  and  C_10
REMARK    4  A    between atoms: C_7  and  C_13
REMARK    5  A    between atoms: C_9  and  C_14
REMARK    6  A    between atoms: C_10  and  C_15
REMARK    7  A    between atoms: C_10  and  C_16
REMARK    8  A    between atoms: C_11  and  C_17
REMARK    9  A    between atoms: C_14  and  C_18
REMARK   10  A    between atoms: C_19  and  C_20
REMARK   11  A    between atoms: C_19  and  C_21
REMARK   12  A    between atoms: C_22  and  C_23
REMARK                            x       y       z     vdW  Elec       q    Type
REMARK                         _______ _______ _______ _____ _____    ______ ____
ROOT
ATOM      6  C   UNL     1      -1.831   2.426  23.674  0.00  0.00    +0.000 C 
ATOM      7  C   UNL     1      -0.507   1.649  23.880  0.00  0.00    +0.029 C 
ATOM      8  C   UNL     1      -1.698   3.862  24.203  0.00  0.00    +0.012 C 
ATOM      9  C   UNL     1      -1.337   3.899  25.701  0.00  0.00    +0.024 C 
ATOM     11  C   UNL     1      -0.205   2.949  26.031  0.00  0.00    -0.073 C 
ATOM     12  C   UNL     1       0.160   1.957  25.200  0.00  0.00    -0.023 C 
ATOM     17  C   UNL     1       0.528   3.192  27.321  0.00  0.00    +0.039 C 
ENDROOT
BRANCH   6  10
ATOM     10  C   UNL     1      -2.252   2.453  22.201  0.00  0.00    -0.013 C 
ATOM     15  C   UNL     1      -3.562   3.217  22.038  0.00  0.00    +0.007 C 
ATOM     16  C   UNL     1      -2.381   1.035  21.658  0.00  0.00    +0.007 C 
ENDBRANCH   6  10
BRANCH   7  13
ATOM     13  C   UNL     1      -0.728   0.137  23.761  0.00  0.00    +0.089 C 
BRANCH  13   3
ATOM      3  N   UNL     1       0.540  -0.557  23.611  0.00  0.00    -0.313 NA
ATOM     29  H   UNL     1       1.050  -0.527  24.493  0.00  0.00    +0.122 HD
BRANCH   3  19
ATOM     19  C   UNL     1       1.350   0.054  22.563  0.00  0.00    +0.047 C 
ATOM     20  C   UNL     1       1.139  -0.675  21.239  0.00  0.00    +0.023 C 
ATOM     21  C   UNL     1       2.818   0.026  22.976  0.00  0.00    +0.023 C 
ENDBRANCH   3  19
ENDBRANCH  13   3
ENDBRANCH   7  13
BRANCH   9  14
ATOM     14  C   UNL     1      -2.566   3.614  26.571  0.00  0.00    +0.105 C 
BRANCH  14  18
ATOM      2  O   UNL     1      -3.061   1.361  25.778  0.00  0.00    -0.420 OA
ATOM      4  N   UNL     1      -4.699   2.840  25.413  0.00  0.00    -0.112 NA
ATOM      5  N   UNL     1      -5.110   1.617  24.918  0.00  0.00    -0.107 NA
ATOM     18  C   UNL     1      -3.498   2.644  25.906  0.00  0.00    +0.218 A 
ATOM     22  C   UNL     1      -4.123   0.784  25.153  0.00  0.00    +0.251 A 
BRANCH  22  23
ATOM      1  F   UNL     1      -2.846  -0.992  26.905  0.00  0.00    -0.205 F 
ATOM     23  C   UNL     1      -3.994  -0.613  24.858  0.00  0.00    +0.074 A 
ATOM     24  C   UNL     1      -3.351  -1.464  25.756  0.00  0.00    +0.136 A 
ATOM     25  C   UNL     1      -4.513  -1.121  23.667  0.00  0.00    +0.016 A 
ATOM     26  C   UNL     1      -3.228  -2.823  25.464  0.00  0.00    +0.039 A 
ATOM     27  C   UNL     1      -4.390  -2.479  23.375  0.00  0.00    +0.001 A 
ATOM     28  C   UNL     1      -3.747  -3.330  24.274  0.00  0.00    +0.003 A 
ENDBRANCH  22  23
ENDBRANCH  14  18
ENDBRANCH   9  14
TORSDOF 7
ENDMDL
MODEL 4
REMARK VINA RESULT:      -4.2      2.769      5.997
REMARK  Name = 38031028
REMARK  12 active torsions:
REMARK  status: ('A' for Active; 'I' for Inactive)
REMARK    1  A    between atoms: N_3  and  C_13
REMARK    2  A    between atoms: N_3  and  C_19
REMARK    3  A    between atoms: C_6  and  C_10
REMARK    4  A    between atoms: C_7  and  C_13
REMARK    5  A    between atoms: C_9  and  C_14
REMARK    6  A    between atoms: C_10  and  C_15
REMARK    7  A    between atoms: C_10  and  C_16
REMARK    8  A    between atoms: C_11  and  C_17
REMARK    9  A    between atoms: C_14  and  C_18
REMARK   10  A    between atoms: C_19  and  C_20
REMARK   11  A    between atoms: C_19  and  C_21
REMARK   12  A    between atoms: C_22  and  C_23
REMARK                            x       y       z     vdW  Elec       q    Type
REMARK                         _______ _______ _______ _____ _____    ______ ____
ROOT
ATOM      6  C   UNL     1      -4.530   2.577  25.408  0.00  0.00    +0.000 C 
ATOM      7  C   UNL     1      -4.563   1.250  24.610  0.00  0.00    +0.029 C 
ATOM      8  C   UNL     1      -4.498   3.778  24.451  0.00  0.00    +0.012 C 
ATOM      9  C   UNL     1      -3.276   3.742  23.513  0.00  0.00    +0.024 C 
ATOM     11  C   UNL     1      -3.084   2.375  22.890  0.00  0.00    -0.073 C 
ATOM     12  C   UNL     1      -3.677   1.274  23.386  0.00  0.00    -0.023 C 
ATOM     17  C   UNL     1      -2.229   2.307  21.655  0.00  0.00    +0.039 C 
ENDROOT
BRANCH   6  10
ATOM     10  C   UNL     1      -5.729   2.700  26.355  0.00  0.00    -0.013 C 
ATOM     15  C   UNL     1      -6.667   1.510  26.181  0.00  0.00    +0.007 C 
ATOM     16  C   UNL     1      -6.467   4.012  26.111  0.00  0.00    +0.007 C 
ENDBRANCH   6  10
BRANCH   7  13
ATOM     13  C   UNL     1      -4.174   0.060  25.497  0.00  0.00    +0.089 C 
BRANCH  13   3
ATOM      3  N   UNL     1      -2.884  -0.476  25.099  0.00  0.00    -0.313 NA
ATOM     29  H   UNL     1      -2.624  -0.095  24.189  0.00  0.00    +0.122 HD
BRANCH   3  19
ATOM     19  C   UNL     1      -2.923  -1.932  25.020  0.00  0.00    +0.047 C 
ATOM     20  C   UNL     1      -1.554  -2.476  24.622  0.00  0.00    +0.023 C 
ATOM     21  C   UNL     1      -3.994  -2.358  24.022  0.00  0.00    +0.023 C 
ENDBRANCH   3  19
ENDBRANCH  13   3
ENDBRANCH   7  13
BRANCH   9  14
ATOM     14  C   UNL     1      -2.007   4.196  24.243  0.00  0.00    +0.105 C 
BRANCH  14  18
ATOM      2  O   UNL     1      -0.171   2.716  23.618  0.00  0.00    -0.420 OA
ATOM      4  N   UNL     1      -1.078   2.260  25.613  0.00  0.00    -0.112 NA
ATOM      5  N   UNL     1      -0.059   1.352  25.389  0.00  0.00    -0.107 NA
ATOM     18  C   UNL     1      -1.107   3.036  24.554  0.00  0.00    +0.218 A 
ATOM     22  C   UNL     1       0.441   1.656  24.214  0.00  0.00    +0.251 A 
BRANCH  22  23
ATOM      1  F   UNL     1       0.059  -0.630  22.637  0.00  0.00    -0.205 F 
ATOM     23  C   UNL     1       1.513   1.055  23.475  0.00  0.00    +0.074 A 
ATOM     24  C   UNL     1       1.281  -0.083  22.702  0.00  0.00    +0.136 A 
ATOM     25  C   UNL     1       2.791   1.611  23.532  0.00  0.00    +0.016 A 
ATOM     26  C   UNL     1       2.328  -0.664  21.985  0.00  0.00    +0.039 A 
ATOM     27  C   UNL     1       3.837   1.029  22.815  0.00  0.00    +0.001 A 
ATOM     28  C   UNL     1       3.605  -0.108  22.041  0.00  0.00    +0.003 A 
ENDBRANCH  22  23
ENDBRANCH  14  18
ENDBRANCH   9  14
TORSDOF 7
ENDMDL
MODEL 5
REMARK VINA RESULT:      -4.1      2.807      5.070
REMARK  Name = 38031028
REMARK  12 active torsions:
REMARK  status: ('A' for Active; 'I' for Inactive)
REMARK    1  A    between atoms: N_3  and  C_13
REMARK    2  A    between atoms: N_3  and  C_19
REMARK    3  A    between atoms: C_6  and  C_10
REMARK    4  A    between atoms: C_7  and  C_13
REMARK    5  A    between atoms: C_9  and  C_14
REMARK    6  A    between atoms: C_10  and  C_15
REMARK    7  A    between atoms: C_10  and  C_16
REMARK    8  A    between atoms: C_11  and  C_17
REMARK    9  A    between atoms: C_14  and  C_18
REMARK   10  A    between atoms: C_19  and  C_20
REMARK   11  A    between atoms: C_19  and  C_21
REMARK   12  A    between atoms: C_22  and  C_23
REMARK                            x       y       z     vdW  Elec       q    Type
REMARK                         _______ _______ _______ _____ _____    ______ ____
ROOT
ATOM      6  C   UNL     1      -3.513   2.189  24.133  0.00  0.00    +0.000 C 
ATOM      7  C   UNL     1      -4.356   3.348  24.721  0.00  0.00    +0.029 C 
ATOM      8  C   UNL     1      -4.388   0.945  23.918  0.00  0.00    +0.012 C 
ATOM      9  C   UNL     1      -5.039   0.459  25.227  0.00  0.00    +0.024 C 
ATOM     11  C   UNL     1      -5.665   1.600  26.002  0.00  0.00    -0.073 C 
ATOM     12  C   UNL     1      -5.357   2.885  25.754  0.00  0.00    -0.023 C 
ATOM     17  C   UNL     1      -6.688   1.233  27.042  0.00  0.00    +0.039 C 
ENDROOT
BRANCH   6  10
ATOM     10  C   UNL     1      -2.843   2.586  22.813  0.00  0.00    -0.013 C 
ATOM     15  C   UNL     1      -3.772   3.477  21.993  0.00  0.00    +0.007 C 
ATOM     16  C   UNL     1      -2.447   1.344  22.023  0.00  0.00    +0.007 C 
ENDBRANCH   6  10
BRANCH   7  13
ATOM     13  C   UNL     1      -3.458   4.432  25.331  0.00  0.00    +0.089 C 
BRANCH  13   3
ATOM      3  N   UNL     1      -2.150   3.891  25.656  0.00  0.00    -0.313 NA
ATOM     29  H   UNL     1      -2.093   3.719  26.659  0.00  0.00    +0.122 HD
BRANCH   3  19
ATOM     19  C   UNL     1      -1.089   4.811  25.262  0.00  0.00    +0.047 C 
ATOM     20  C   UNL     1      -1.678   6.171  24.898  0.00  0.00    +0.023 C 
ATOM     21  C   UNL     1      -0.311   4.219  24.091  0.00  0.00    +0.023 C 
ENDBRANCH   3  19
ENDBRANCH  13   3
ENDBRANCH   7  13
BRANCH   9  14
ATOM     14  C   UNL     1      -4.034  -0.307  26.093  0.00  0.00    +0.105 C 
BRANCH  14  18
ATOM      2  O   UNL     1      -1.889  -0.036  24.961  0.00  0.00    -0.420 OA
ATOM      4  N   UNL     1      -2.771  -2.084  24.775  0.00  0.00    -0.112 NA
ATOM      5  N   UNL     1      -1.568  -2.073  24.093  0.00  0.00    -0.107 NA
ATOM     18  C   UNL     1      -2.917  -0.875  25.266  0.00  0.00    +0.218 A 
ATOM     22  C   UNL     1      -1.090  -0.859  24.229  0.00  0.00    +0.251 A 
BRANCH  22  23
ATOM      1  F   UNL     1       0.023   1.449  25.368  0.00  0.00    -0.205 F 
ATOM     23  C   UNL     1       0.123  -0.275  23.733  0.00  0.00    +0.074 A 
ATOM     24  C   UNL     1       0.644   0.874  24.327  0.00  0.00    +0.136 A 
ATOM     25  C   UNL     1       0.782  -0.860  22.651  0.00  0.00    +0.016 A 
ATOM     26  C   UNL     1       1.824   1.438  23.841  0.00  0.00    +0.039 A 
ATOM     27  C   UNL     1       1.961  -0.296  22.165  0.00  0.00    +0.001 A 
ATOM     28  C   UNL     1       2.482   0.853  22.760  0.00  0.00    +0.003 A 
ENDBRANCH  22  23
ENDBRANCH  14  18
ENDBRANCH   9  14
TORSDOF 7
ENDMDL
MODEL 6
REMARK VINA RESULT:      -3.8      2.279      4.977
REMARK  Name = 38031028
REMARK  12 active torsions:
REMARK  status: ('A' for Active; 'I' for Inactive)
REMARK    1  A    between atoms: N_3  and  C_13
REMARK    2  A    between atoms: N_3  and  C_19
REMARK    3  A    between atoms: C_6  and  C_10
REMARK    4  A    between atoms: C_7  and  C_13
REMARK    5  A    between atoms: C_9  and  C_14
REMARK    6  A    between atoms: C_10  and  C_15
REMARK    7  A    between atoms: C_10  and  C_16
REMARK    8  A    between atoms: C_11  and  C_17
REMARK    9  A    between atoms: C_14  and  C_18
REMARK   10  A    between atoms: C_19  and  C_20
REMARK   11  A    between atoms: C_19  and  C_21
REMARK   12  A    between atoms: C_22  and  C_23
REMARK                            x       y       z     vdW  Elec       q    Type
REMARK                         _______ _______ _______ _____ _____    ______ ____
ROOT
ATOM      6  C   UNL     1       0.550   0.438  23.317  0.00  0.00    +0.000 C 
ATOM      7  C   UNL     1      -0.212  -0.297  24.447  0.00  0.00    +0.029 C 
ATOM      8  C   UNL     1       1.576   1.416  23.909  0.00  0.00    +0.012 C 
ATOM      9  C   UNL     1       0.917   2.470  24.818  0.00  0.00    +0.024 C 
ATOM     11  C   UNL     1      -0.059   1.843  25.791  0.00  0.00    -0.073 C 
ATOM     12  C   UNL     1      -0.544   0.601  25.616  0.00  0.00    -0.023 C 
ATOM     17  C   UNL     1      -0.434   2.661  26.996  0.00  0.00    +0.039 C 
ENDROOT
BRANCH   6  10
ATOM     10  C   UNL     1       1.254  -0.544  22.374  0.00  0.00    -0.013 C 
ATOM     15  C   UNL     1       2.741  -0.218  22.281  0.00  0.00    +0.007 C 
ATOM     16  C   UNL     1       0.606  -0.514  20.994  0.00  0.00    +0.007 C 
ENDBRANCH   6  10
BRANCH   7  13
ATOM     13  C   UNL     1      -1.499  -0.942  23.919  0.00  0.00    +0.089 C 
BRANCH  13   3
ATOM      3  N   UNL     1      -1.760  -2.198  24.601  0.00  0.00    -0.313 NA
ATOM     29  H   UNL     1      -1.530  -2.975  23.983  0.00  0.00    +0.122 HD
BRANCH   3  19
ATOM     19  C   UNL     1      -3.159  -2.296  25.001  0.00  0.00    +0.047 C 
ATOM     20  C   UNL     1      -4.069  -2.124  23.788  0.00  0.00    +0.023 C 
ATOM     21  C   UNL     1      -3.458  -1.245  26.065  0.00  0.00    +0.023 C 
ENDBRANCH   3  19
ENDBRANCH  13   3
ENDBRANCH   7  13
BRANCH   9  14
ATOM     14  C   UNL     1       0.241   3.568  23.990  0.00  0.00    +0.105 C 
BRANCH  14  18
ATOM      2  O   UNL     1      -2.077   2.980  24.475  0.00  0.00    -0.420 OA
ATOM      4  N   UNL     1      -1.501   5.045  25.117  0.00  0.00    -0.112 NA
ATOM      5  N   UNL     1      -2.829   4.849  25.450  0.00  0.00    -0.107 NA
ATOM     18  C   UNL     1      -1.104   3.930  24.551  0.00  0.00    +0.218 A 
ATOM     22  C   UNL     1      -3.121   3.631  25.058  0.00  0.00    +0.251 A 
BRANCH  22  23
ATOM      1  F   UNL     1      -3.647   1.421  23.416  0.00  0.00    -0.205 F 
ATOM     23  C   UNL     1      -4.348   2.894  25.146  0.00  0.00    +0.074 A 
ATOM     24  C   UNL     1      -4.572   1.800  24.310  0.00  0.00    +0.136 A 
ATOM     25  C   UNL     1      -5.321   3.275  26.070  0.00  0.00    +0.016 A 
ATOM     26  C   UNL     1      -5.768   1.087  24.399  0.00  0.00    +0.039 A 
ATOM     27  C   UNL     1      -6.516   2.562  26.159  0.00  0.00    +0.001 A 
ATOM     28  C   UNL     1      -6.739   1.467  25.324  0.00  0.00    +0.003 A 
ENDBRANCH  22  23
ENDBRANCH  14  18
ENDBRANCH   9  14
TORSDOF 7
ENDMDL
MODEL 7
REMARK VINA RESULT:      -3.5      2.513      4.881
REMARK  Name = 38031028
REMARK  12 active torsions:
REMARK  status: ('A' for Active; 'I' for Inactive)
REMARK    1  A    between atoms: N_3  and  C_13
REMARK    2  A    between atoms: N_3  and  C_19
REMARK    3  A    between atoms: C_6  and  C_10
REMARK    4  A    between atoms: C_7  and  C_13
REMARK    5  A    between atoms: C_9  and  C_14
REMARK    6  A    between atoms: C_10  and  C_15
REMARK    7  A    between atoms: C_10  and  C_16
REMARK    8  A    between atoms: C_11  and  C_17
REMARK    9  A    between atoms: C_14  and  C_18
REMARK   10  A    between atoms: C_19  and  C_20
REMARK   11  A    between atoms: C_19  and  C_21
REMARK   12  A    between atoms: C_22  and  C_23
REMARK                            x       y       z     vdW  Elec       q    Type
REMARK                         _______ _______ _______ _____ _____    ______ ____
ROOT
ATOM      6  C   UNL     1       0.587   0.353  23.311  0.00  0.00    +0.000 C 
ATOM      7  C   UNL     1      -0.137  -0.384  24.464  0.00  0.00    +0.029 C 
ATOM      8  C   UNL     1       1.501   1.454  23.868  0.00  0.00    +0.012 C 
ATOM      9  C   UNL     1       0.723   2.492  24.697  0.00  0.00    +0.024 C 
ATOM     11  C   UNL     1      -0.220   1.833  25.683  0.00  0.00    -0.073 C 
ATOM     12  C   UNL     1      -0.583   0.544  25.570  0.00  0.00    -0.023 C 
ATOM     17  C   UNL     1      -0.703   2.680  26.828  0.00  0.00    +0.039 C 
ENDROOT
BRANCH   6  10
ATOM     10  C   UNL     1       1.404  -0.611  22.444  0.00  0.00    -0.013 C 
ATOM     15  C   UNL     1       2.874  -0.201  22.435  0.00  0.00    +0.007 C 
ATOM     16  C   UNL     1       0.846  -0.657  21.026  0.00  0.00    +0.007 C 
ENDBRANCH   6  10
BRANCH   7  13
ATOM     13  C   UNL     1      -1.343  -1.176  23.945  0.00  0.00    +0.089 C 
BRANCH  13   3
ATOM      3  N   UNL     1      -1.674  -2.261  24.853  0.00  0.00    -0.313 NA
ATOM     29  H   UNL     1      -1.387  -3.149  24.441  0.00  0.00    +0.122 HD
BRANCH   3  19
ATOM     19  C   UNL     1      -3.105  -2.297  25.130  0.00  0.00    +0.047 C 
ATOM     20  C   UNL     1      -3.897  -2.134  23.836  0.00  0.00    +0.023 C 
ATOM     21  C   UNL     1      -3.456  -1.201  26.130  0.00  0.00    +0.023 C 
ENDBRANCH   3  19
ENDBRANCH  13   3
ENDBRANCH   7  13
BRANCH   9  14
ATOM     14  C   UNL     1      -0.028   3.473  23.790  0.00  0.00    +0.105 C 
BRANCH  14  18
ATOM      2  O   UNL     1      -2.302   2.965  24.514  0.00  0.00    -0.420 OA
ATOM      4  N   UNL     1      -1.920   2.565  22.346  0.00  0.00    -0.112 NA
ATOM      5  N   UNL     1      -3.235   2.235  22.616  0.00  0.00    -0.107 NA
ATOM     18  C   UNL     1      -1.414   2.986  23.482  0.00  0.00    +0.218 A 
ATOM     22  C   UNL     1      -3.413   2.485  23.892  0.00  0.00    +0.251 A 
BRANCH  22  23
ATOM      1  F   UNL     1      -3.972   4.234  26.010  0.00  0.00    -0.205 F 
ATOM     23  C   UNL     1      -4.577   2.333  24.717  0.00  0.00    +0.074 A 
ATOM     24  C   UNL     1      -4.818   3.225  25.761  0.00  0.00    +0.136 A 
ATOM     25  C   UNL     1      -5.468   1.288  24.472  0.00  0.00    +0.016 A 
ATOM     26  C   UNL     1      -5.951   3.072  26.561  0.00  0.00    +0.039 A 
ATOM     27  C   UNL     1      -6.600   1.136  25.272  0.00  0.00    +0.001 A 
ATOM     28  C   UNL     1      -6.842   2.028  26.316  0.00  0.00    +0.003 A 
ENDBRANCH  22  23
ENDBRANCH  14  18
ENDBRANCH   9  14
TORSDOF 7
ENDMDL
MODEL 8
REMARK VINA RESULT:      -3.5      2.081      5.615
REMARK  Name = 38031028
REMARK  12 active torsions:
REMARK  status: ('A' for Active; 'I' for Inactive)
REMARK    1  A    between atoms: N_3  and  C_13
REMARK    2  A    between atoms: N_3  and  C_19
REMARK    3  A    between atoms: C_6  and  C_10
REMARK    4  A    between atoms: C_7  and  C_13
REMARK    5  A    between atoms: C_9  and  C_14
REMARK    6  A    between atoms: C_10  and  C_15
REMARK    7  A    between atoms: C_10  and  C_16
REMARK    8  A    between atoms: C_11  and  C_17
REMARK    9  A    between atoms: C_14  and  C_18
REMARK   10  A    between atoms: C_19  and  C_20
REMARK   11  A    between atoms: C_19  and  C_21
REMARK   12  A    between atoms: C_22  and  C_23
REMARK                            x       y       z     vdW  Elec       q    Type
REMARK                         _______ _______ _______ _____ _____    ______ ____
ROOT
ATOM      6  C   UNL     1      -1.013   0.356  24.709  0.00  0.00    +0.000 C 
ATOM      7  C   UNL     1      -0.153  -0.870  24.314  0.00  0.00    +0.029 C 
ATOM      8  C   UNL     1      -2.048  -0.035  25.774  0.00  0.00    +0.012 C 
ATOM      9  C   UNL     1      -2.988  -1.154  25.287  0.00  0.00    +0.024 C 
ATOM     11  C   UNL     1      -2.224  -2.289  24.637  0.00  0.00    -0.073 C 
ATOM     12  C   UNL     1      -0.954  -2.147  24.220  0.00  0.00    -0.023 C 
ATOM     17  C   UNL     1      -2.940  -3.606  24.517  0.00  0.00    +0.039 C 
ENDROOT
BRANCH   6  10
ATOM     10  C   UNL     1      -0.150   1.513  25.225  0.00  0.00    -0.013 C 
ATOM     15  C   UNL     1      -0.534   1.863  26.660  0.00  0.00    +0.007 C 
ATOM     16  C   UNL     1      -0.290   2.729  24.316  0.00  0.00    +0.007 C 
ENDBRANCH   6  10
BRANCH   7  13
ATOM     13  C   UNL     1       0.580  -0.629  22.989  0.00  0.00    +0.089 C 
BRANCH  13   3
ATOM      3  N   UNL     1       1.645   0.344  23.161  0.00  0.00    -0.313 NA
ATOM     29  H   UNL     1       1.396   1.209  22.682  0.00  0.00    +0.122 HD
BRANCH   3  19
ATOM     19  C   UNL     1       2.906  -0.159  22.628  0.00  0.00    +0.047 C 
ATOM     20  C   UNL     1       3.491  -1.214  23.562  0.00  0.00    +0.023 C 
ATOM     21  C   UNL     1       3.875   1.003  22.436  0.00  0.00    +0.023 C 
ENDBRANCH   3  19
ENDBRANCH  13   3
ENDBRANCH   7  13
BRANCH   9  14
ATOM     14  C   UNL     1      -4.061  -0.601  24.342  0.00  0.00    +0.105 C 
BRANCH  14  18
ATOM      2  O   UNL     1      -3.579   1.790  24.393  0.00  0.00    -0.420 OA
ATOM      4  N   UNL     1      -5.535   1.229  25.323  0.00  0.00    -0.112 NA
ATOM      5  N   UNL     1      -5.394   2.601  25.421  0.00  0.00    -0.107 NA
ATOM     18  C   UNL     1      -4.454   0.799  24.717  0.00  0.00    +0.218 A 
ATOM     22  C   UNL     1      -4.238   2.883  24.865  0.00  0.00    +0.251 A 
BRANCH  22  23
ATOM      1  F   UNL     1      -2.345   3.844  26.695  0.00  0.00    -0.205 F 
ATOM     23  C   UNL     1      -3.576   4.142  24.683  0.00  0.00    +0.074 A 
ATOM     24  C   UNL     1      -2.640   4.584  25.617  0.00  0.00    +0.136 A 
ATOM     25  C   UNL     1      -3.871   4.925  23.567  0.00  0.00    +0.016 A 
ATOM     26  C   UNL     1      -1.998   5.810  25.435  0.00  0.00    +0.039 A 
ATOM     27  C   UNL     1      -3.229   6.150  23.386  0.00  0.00    +0.001 A 
ATOM     28  C   UNL     1      -2.292   6.592  24.320  0.00  0.00    +0.003 A 
ENDBRANCH  22  23
ENDBRANCH  14  18
ENDBRANCH   9  14
TORSDOF 7
ENDMDL
MODEL 9
REMARK VINA RESULT:      -3.4      2.196      4.826
REMARK  Name = 38031028
REMARK  12 active torsions:
REMARK  status: ('A' for Active; 'I' for Inactive)
REMARK    1  A    between atoms: N_3  and  C_13
REMARK    2  A    between atoms: N_3  and  C_19
REMARK    3  A    between atoms: C_6  and  C_10
REMARK    4  A    between atoms: C_7  and  C_13
REMARK    5  A    between atoms: C_9  and  C_14
REMARK    6  A    between atoms: C_10  and  C_15
REMARK    7  A    between atoms: C_10  and  C_16
REMARK    8  A    between atoms: C_11  and  C_17
REMARK    9  A    between atoms: C_14  and  C_18
REMARK   10  A    between atoms: C_19  and  C_20
REMARK   11  A    between atoms: C_19  and  C_21
REMARK   12  A    between atoms: C_22  and  C_23
REMARK                            x       y       z     vdW  Elec       q    Type
REMARK                         _______ _______ _______ _____ _____    ______ ____
ROOT
ATOM      6  C   UNL     1      -3.897   3.180  25.727  0.00  0.00    +0.000 C 
ATOM      7  C   UNL     1      -3.830   3.811  24.314  0.00  0.00    +0.029 C 
ATOM      8  C   UNL     1      -3.186   4.078  26.750  0.00  0.00    +0.012 C 
ATOM      9  C   UNL     1      -1.706   4.310  26.390  0.00  0.00    +0.024 C 
ATOM     11  C   UNL     1      -1.533   4.678  24.931  0.00  0.00    -0.073 C 
ATOM     12  C   UNL     1      -2.498   4.460  24.020  0.00  0.00    -0.023 C 
ATOM     17  C   UNL     1      -0.240   5.346  24.550  0.00  0.00    +0.039 C 
ENDROOT
BRANCH   6  10
ATOM     10  C   UNL     1      -5.343   2.933  26.171  0.00  0.00    -0.013 C 
ATOM     15  C   UNL     1      -5.850   1.606  25.614  0.00  0.00    +0.007 C 
ATOM     16  C   UNL     1      -6.241   4.084  25.729  0.00  0.00    +0.007 C 
ENDBRANCH   6  10
BRANCH   7  13
ATOM     13  C   UNL     1      -4.143   2.774  23.229  0.00  0.00    +0.089 C 
BRANCH  13   3
ATOM      3  N   UNL     1      -2.936   2.073  22.826  0.00  0.00    -0.313 NA
ATOM     29  H   UNL     1      -2.175   2.316  23.460  0.00  0.00    +0.122 HD
BRANCH   3  19
ATOM     19  C   UNL     1      -2.559   2.420  21.461  0.00  0.00    +0.047 C 
ATOM     20  C   UNL     1      -3.669   3.229  20.795  0.00  0.00    +0.023 C 
ATOM     21  C   UNL     1      -2.262   1.146  20.677  0.00  0.00    +0.023 C 
ENDBRANCH   3  19
ENDBRANCH  13   3
ENDBRANCH   7  13
BRANCH   9  14
ATOM     14  C   UNL     1      -0.851   3.092  26.755  0.00  0.00    +0.105 C 
BRANCH  14  18
ATOM      2  O   UNL     1      -1.787   1.056  25.789  0.00  0.00    -0.420 OA
ATOM      4  N   UNL     1      -0.134   1.965  24.586  0.00  0.00    -0.112 NA
ATOM      5  N   UNL     1      -0.566   0.829  23.927  0.00  0.00    -0.107 NA
ATOM     18  C   UNL     1      -0.874   2.058  25.666  0.00  0.00    +0.218 A 
ATOM     22  C   UNL     1      -1.530   0.331  24.665  0.00  0.00    +0.251 A 
BRANCH  22  23
ATOM      1  F   UNL     1      -0.578  -2.245  25.222  0.00  0.00    -0.205 F 
ATOM     23  C   UNL     1      -2.341  -0.836  24.474  0.00  0.00    +0.074 A 
ATOM     24  C   UNL     1      -1.829  -2.101  24.763  0.00  0.00    +0.136 A 
ATOM     25  C   UNL     1      -3.645  -0.704  23.997  0.00  0.00    +0.016 A 
ATOM     26  C   UNL     1      -2.622  -3.234  24.574  0.00  0.00    +0.039 A 
ATOM     27  C   UNL     1      -4.437  -1.837  23.809  0.00  0.00    +0.001 A 
ATOM     28  C   UNL     1      -3.925  -3.102  24.098  0.00  0.00    +0.003 A 
ENDBRANCH  22  23
ENDBRANCH  14  18
ENDBRANCH   9  14
TORSDOF 7
ENDMDL
MODEL 10
REMARK VINA RESULT:      -2.7      2.619      6.689
REMARK  Name = 38031028
REMARK  12 active torsions:
REMARK  status: ('A' for Active; 'I' for Inactive)
REMARK    1  A    between atoms: N_3  and  C_13
REMARK    2  A    between atoms: N_3  and  C_19
REMARK    3  A    between atoms: C_6  and  C_10
REMARK    4  A    between atoms: C_7  and  C_13
REMARK    5  A    between atoms: C_9  and  C_14
REMARK    6  A    between atoms: C_10  and  C_15
REMARK    7  A    between atoms: C_10  and  C_16
REMARK    8  A    between atoms: C_11  and  C_17
REMARK    9  A    between atoms: C_14  and  C_18
REMARK   10  A    between atoms: C_19  and  C_20
REMARK   11  A    between atoms: C_19  and  C_21
REMARK   12  A    between atoms: C_22  and  C_23
REMARK                            x       y       z     vdW  Elec       q    Type
REMARK                         _______ _______ _______ _____ _____    ______ ____
ROOT
ATOM      6  C   UNL     1      -2.984   0.385  23.719  0.00  0.00    +0.000 C 
ATOM      7  C   UNL     1      -4.292  -0.138  24.362  0.00  0.00    +0.029 C 
ATOM      8  C   UNL     1      -2.192  -0.772  23.093  0.00  0.00    +0.012 C 
ATOM      9  C   UNL     1      -1.829  -1.855  24.126  0.00  0.00    +0.024 C 
ATOM     11  C   UNL     1      -3.017  -2.234  24.986  0.00  0.00    -0.073 C 
ATOM     12  C   UNL     1      -4.114  -1.461  25.069  0.00  0.00    -0.023 C 
ATOM     17  C   UNL     1      -2.933  -3.547  25.715  0.00  0.00    +0.039 C 
ENDROOT
BRANCH   6  10
ATOM     10  C   UNL     1      -3.260   1.458  22.660  0.00  0.00    -0.013 C 
ATOM     15  C   UNL     1      -2.058   1.609  21.732  0.00  0.00    +0.007 C 
ATOM     16  C   UNL     1      -3.601   2.787  23.324  0.00  0.00    +0.007 C 
ENDBRANCH   6  10
BRANCH   7  13
ATOM     13  C   UNL     1      -4.879   0.888  25.339  0.00  0.00    +0.089 C 
BRANCH  13   3
ATOM      3  N   UNL     1      -5.979   1.610  24.724  0.00  0.00    -0.313 NA
ATOM     29  H   UNL     1      -5.643   2.099  23.895  0.00  0.00    +0.122 HD
BRANCH   3  19
ATOM     19  C   UNL     1      -6.558   2.573  25.653  0.00  0.00    +0.047 C 
ATOM     20  C   UNL     1      -5.780   3.885  25.607  0.00  0.00    +0.023 C 
ATOM     21  C   UNL     1      -6.558   1.985  27.060  0.00  0.00    +0.023 C 
ENDBRANCH   3  19
ENDBRANCH  13   3
ENDBRANCH   7  13
BRANCH   9  14
ATOM     14  C   UNL     1      -0.642  -1.416  24.991  0.00  0.00    +0.105 C 
BRANCH  14  18
ATOM      2  O   UNL     1      -1.026   0.989  25.137  0.00  0.00    -0.420 OA
ATOM      4  N   UNL     1       0.820   0.423  24.008  0.00  0.00    -0.112 NA
ATOM      5  N   UNL     1       0.728   1.802  24.011  0.00  0.00    -0.107 NA
ATOM     18  C   UNL     1      -0.223  -0.009  24.676  0.00  0.00    +0.218 A 
ATOM     22  C   UNL     1      -0.363   2.087  24.682  0.00  0.00    +0.251 A 
BRANCH  22  23
ATOM      1  F   UNL     1       0.394   4.452  23.380  0.00  0.00    -0.205 F 
ATOM     23  C   UNL     1      -0.955   3.354  25.002  0.00  0.00    +0.074 A 
ATOM     24  C   UNL     1      -0.550   4.508  24.331  0.00  0.00    +0.136 A 
ATOM     25  C   UNL     1      -1.938   3.430  25.989  0.00  0.00    +0.016 A 
ATOM     26  C   UNL     1      -1.128   5.738  24.647  0.00  0.00    +0.039 A 
ATOM     27  C   UNL     1      -2.516   4.660  26.304  0.00  0.00    +0.001 A 
ATOM     28  C   UNL     1      -2.112   5.814  25.632  0.00  0.00    +0.003 A 
ENDBRANCH  22  23
ENDBRANCH  14  18
ENDBRANCH   9  14
TORSDOF 7
ENDMDL
