MODEL 1
REMARK VINA RESULT:       0.7      0.000      0.000
REMARK  Name = 38026916
REMARK  10 active torsions:
REMARK  status: ('A' for Active; 'I' for Inactive)
REMARK    1  A    between atoms: N_5  and  C_17
REMARK    2  A    between atoms: C_9  and  C_13
REMARK    3  A    between atoms: C_10  and  C_17
REMARK    4  A    between atoms: C_12  and  C_16
REMARK    5  A    between atoms: C_13  and  C_18
REMARK    6  A    between atoms: C_13  and  C_19
REMARK    7  A    between atoms: C_14  and  C_20
REMARK    8  A    between atoms: C_16  and  C_21
REMARK    9  A    between atoms: C_26  and  C_28
REMARK   10  A    between atoms: C_27  and  C_29
REMARK                            x       y       z     vdW  Elec       q    Type
REMARK                         _______ _______ _______ _____ _____    ______ ____
ROOT
ATOM      9  C   UNL     1      -1.638  -0.482  25.287  0.00  0.00    +0.000 C 
ATOM     10  C   UNL     1      -1.100  -1.609  24.369  0.00  0.00    +0.032 C 
ATOM     11  C   UNL     1      -2.745  -1.020  26.204  0.00  0.00    +0.012 C 
ATOM     12  C   UNL     1      -3.927  -1.607  25.409  0.00  0.00    +0.023 C 
ATOM     14  C   UNL     1      -3.458  -2.529  24.301  0.00  0.00    -0.073 C 
ATOM     15  C   UNL     1      -2.188  -2.525  23.860  0.00  0.00    -0.022 C 
ATOM     20  C   UNL     1      -4.472  -3.489  23.745  0.00  0.00    +0.039 C 
ENDROOT
BRANCH   9  13
ATOM     13  C   UNL     1      -0.522   0.144  26.131  0.00  0.00    -0.013 C 
ATOM     18  C   UNL     1      -0.554   1.664  26.011  0.00  0.00    +0.007 C 
ATOM     19  C   UNL     1      -0.653  -0.286  27.588  0.00  0.00    +0.007 C 
ENDBRANCH   9  13
BRANCH  12  16
ATOM     16  C   UNL     1      -4.824  -0.496  24.855  0.00  0.00    +0.103 C 
BRANCH  16  21
ATOM      1  O   UNL     1      -3.733  -0.272  22.763  0.00  0.00    -0.276 OA
ATOM      3  O   UNL     1      -2.548   5.826  26.299  0.00  0.00    -0.276 OA
ATOM      4  N   UNL     1      -3.822   1.629  24.096  0.00  0.00    -0.298 N 
ATOM      6  N   UNL     1      -2.402   3.909  24.997  0.00  0.00    -0.299 N 
ATOM     21  C   UNL     1      -4.079   0.290  23.806  0.00  0.00    +0.216 C 
ATOM     22  C   UNL     1      -3.100   2.461  23.130  0.00  0.00    +0.126 C 
ATOM     23  C   UNL     1      -4.284   2.344  25.292  0.00  0.00    +0.126 C 
ATOM     24  C   UNL     1      -1.940   3.193  23.800  0.00  0.00    +0.126 C 
ATOM     25  C   UNL     1      -3.124   3.077  25.963  0.00  0.00    +0.126 C 
ATOM     27  C   UNL     1      -2.148   5.249  25.286  0.00  0.00    +0.213 C 
ATOM     29  C   UNL     1      -1.332   6.013  24.274  0.00  0.00    +0.109 C 
ENDBRANCH  16  21
ENDBRANCH  12  16
BRANCH  10  17
ATOM     17  C   UNL     1      -0.321  -1.031  23.182  0.00  0.00    +0.112 C 
BRANCH  17   5
ATOM      2  O   UNL     1       1.798  -0.256  21.406  0.00  0.00    -0.270 OA
ATOM      5  N   UNL     1       1.048  -0.811  23.531  0.00  0.00    -0.311 N 
ATOM     26  C   UNL     1       2.016  -0.435  22.601  0.00  0.00    +0.247 C 
ATOM     33  H   UNL     1       1.292  -0.861  24.514  0.00  0.00    +0.149 HD
BRANCH  26  28
ATOM      7  N   UNL     1       5.337  -1.188  24.213  0.00  0.00    -0.243 NA
ATOM      8  N   UNL     1       5.341   1.106  23.476  0.00  0.00    -0.243 NA
ATOM     28  C   UNL     1       3.399  -0.271  23.118  0.00  0.00    +0.073 A 
ATOM     30  C   UNL     1       4.081  -1.301  23.732  0.00  0.00    +0.127 A 
ATOM     31  C   UNL     1       4.085   0.922  23.017  0.00  0.00    +0.127 A 
ATOM     32  C   UNL     1       5.899   0.026  24.054  0.00  0.00    +0.221 A 
ENDBRANCH  26  28
ENDBRANCH  17   5
ENDBRANCH  10  17
TORSDOF 6
ENDMDL
MODEL 2
REMARK VINA RESULT:       1.9      1.651      4.988
REMARK  Name = 38026916
REMARK  10 active torsions:
REMARK  status: ('A' for Active; 'I' for Inactive)
REMARK    1  A    between atoms: N_5  and  C_17
REMARK    2  A    between atoms: C_9  and  C_13
REMARK    3  A    between atoms: C_10  and  C_17
REMARK    4  A    between atoms: C_12  and  C_16
REMARK    5  A    between atoms: C_13  and  C_18
REMARK    6  A    between atoms: C_13  and  C_19
REMARK    7  A    between atoms: C_14  and  C_20
REMARK    8  A    between atoms: C_16  and  C_21
REMARK    9  A    between atoms: C_26  and  C_28
REMARK   10  A    between atoms: C_27  and  C_29
REMARK                            x       y       z     vdW  Elec       q    Type
REMARK                         _______ _______ _______ _____ _____    ______ ____
ROOT
ATOM      9  C   UNL     1      -2.091   2.751  23.540  0.00  0.00    +0.000 C 
ATOM     10  C   UNL     1      -0.567   2.478  23.608  0.00  0.00    +0.032 C 
ATOM     11  C   UNL     1      -2.450   3.999  24.360  0.00  0.00    +0.012 C 
ATOM     12  C   UNL     1      -2.045   3.859  25.840  0.00  0.00    +0.023 C 
ATOM     14  C   UNL     1      -0.631   3.333  25.990  0.00  0.00    -0.073 C 
ATOM     15  C   UNL     1       0.017   2.732  24.977  0.00  0.00    -0.022 C 
ATOM     20  C   UNL     1       0.037   3.557  27.318  0.00  0.00    +0.039 C 
ENDROOT
BRANCH   9  13
ATOM     13  C   UNL     1      -2.573   2.923  22.096  0.00  0.00    -0.013 C 
ATOM     18  C   UNL     1      -2.545   1.586  21.362  0.00  0.00    +0.007 C 
ATOM     19  C   UNL     1      -3.975   3.523  22.071  0.00  0.00    +0.007 C 
ENDBRANCH   9  13
BRANCH  12  16
ATOM     16  C   UNL     1      -3.041   2.980  26.604  0.00  0.00    +0.103 C 
BRANCH  16  21
ATOM      1  O   UNL     1      -5.066   3.010  25.374  0.00  0.00    -0.276 OA
ATOM      3  O   UNL     1      -2.324  -3.539  24.545  0.00  0.00    -0.276 OA
ATOM      4  N   UNL     1      -3.725   1.131  25.116  0.00  0.00    -0.298 N 
ATOM      6  N   UNL     1      -3.695  -1.690  24.854  0.00  0.00    -0.299 N 
ATOM     21  C   UNL     1      -4.039   2.383  25.643  0.00  0.00    +0.216 C 
ATOM     22  C   UNL     1      -4.644   0.482  24.178  0.00  0.00    +0.126 C 
ATOM     23  C   UNL     1      -2.478   0.394  25.359  0.00  0.00    +0.126 C 
ATOM     24  C   UNL     1      -4.942  -0.952  24.611  0.00  0.00    +0.126 C 
ATOM     25  C   UNL     1      -2.776  -1.040  25.792  0.00  0.00    +0.126 C 
ATOM     27  C   UNL     1      -3.380  -2.941  24.324  0.00  0.00    +0.213 C 
ATOM     29  C   UNL     1      -4.414  -3.573  23.429  0.00  0.00    +0.109 C 
ENDBRANCH  16  21
ENDBRANCH  12  16
BRANCH  10  17
ATOM     17  C   UNL     1      -0.242   1.046  23.170  0.00  0.00    +0.112 C 
BRANCH  17   5
ATOM      2  O   UNL     1       1.628  -0.292  21.450  0.00  0.00    -0.270 OA
ATOM      5  N   UNL     1       1.116   0.718  23.476  0.00  0.00    -0.311 N 
ATOM     26  C   UNL     1       1.959   0.064  22.578  0.00  0.00    +0.247 C 
ATOM     33  H   UNL     1       1.489   1.050  24.359  0.00  0.00    +0.149 HD
BRANCH  26  28
ATOM      7  N   UNL     1       5.613   0.466  23.401  0.00  0.00    -0.243 NA
ATOM      8  N   UNL     1       4.915  -1.746  24.055  0.00  0.00    -0.243 NA
ATOM     28  C   UNL     1       3.334  -0.229  23.057  0.00  0.00    +0.073 A 
ATOM     30  C   UNL     1       4.353   0.697  22.976  0.00  0.00    +0.127 A 
ATOM     31  C   UNL     1       3.676  -1.446  23.611  0.00  0.00    +0.127 A 
ATOM     32  C   UNL     1       5.820  -0.759  23.922  0.00  0.00    +0.221 A 
ENDBRANCH  26  28
ENDBRANCH  17   5
ENDBRANCH  10  17
TORSDOF 6
ENDMDL
MODEL 3
REMARK VINA RESULT:       2.8      2.219      6.834
REMARK  Name = 38026916
REMARK  10 active torsions:
REMARK  status: ('A' for Active; 'I' for Inactive)
REMARK    1  A    between atoms: N_5  and  C_17
REMARK    2  A    between atoms: C_9  and  C_13
REMARK    3  A    between atoms: C_10  and  C_17
REMARK    4  A    between atoms: C_12  and  C_16
REMARK    5  A    between atoms: C_13  and  C_18
REMARK    6  A    between atoms: C_13  and  C_19
REMARK    7  A    between atoms: C_14  and  C_20
REMARK    8  A    between atoms: C_16  and  C_21
REMARK    9  A    between atoms: C_26  and  C_28
REMARK   10  A    between atoms: C_27  and  C_29
REMARK                            x       y       z     vdW  Elec       q    Type
REMARK                         _______ _______ _______ _____ _____    ______ ____
ROOT
ATOM      9  C   UNL     1      -3.918   3.485  25.792  0.00  0.00    +0.000 C 
ATOM     10  C   UNL     1      -3.921   4.000  24.331  0.00  0.00    +0.032 C 
ATOM     11  C   UNL     1      -2.982   4.338  26.660  0.00  0.00    +0.012 C 
ATOM     12  C   UNL     1      -1.533   4.329  26.137  0.00  0.00    +0.023 C 
ATOM     14  C   UNL     1      -1.473   4.565  24.641  0.00  0.00    -0.073 C 
ATOM     15  C   UNL     1      -2.553   4.427  23.853  0.00  0.00    -0.022 C 
ATOM     20  C   UNL     1      -0.151   5.010  24.079  0.00  0.00    +0.039 C 
ENDROOT
BRANCH   9  13
ATOM     13  C   UNL     1      -5.327   3.482  26.396  0.00  0.00    -0.013 C 
ATOM     18  C   UNL     1      -6.269   4.337  25.554  0.00  0.00    +0.007 C 
ATOM     19  C   UNL     1      -5.852   2.056  26.512  0.00  0.00    +0.007 C 
ENDBRANCH   9  13
BRANCH  12  16
ATOM     16  C   UNL     1      -0.818   3.028  26.516  0.00  0.00    +0.103 C 
BRANCH  16  21
ATOM      1  O   UNL     1      -2.388   1.332  25.989  0.00  0.00    -0.276 OA
ATOM      3  O   UNL     1       3.125   0.405  21.535  0.00  0.00    -0.276 OA
ATOM      4  N   UNL     1      -0.571   1.544  24.557  0.00  0.00    -0.298 N 
ATOM      6  N   UNL     1       1.344   0.150  23.004  0.00  0.00    -0.299 N 
ATOM     21  C   UNL     1      -1.337   1.893  25.669  0.00  0.00    +0.216 C 
ATOM     22  C   UNL     1      -1.005   0.450  23.685  0.00  0.00    +0.126 C 
ATOM     23  C   UNL     1       0.643   2.239  24.109  0.00  0.00    +0.126 C 
ATOM     24  C   UNL     1       0.130  -0.544  23.453  0.00  0.00    +0.126 C 
ATOM     25  C   UNL     1       1.778   1.244  23.877  0.00  0.00    +0.126 C 
ATOM     27  C   UNL     1       2.109  -0.196  21.890  0.00  0.00    +0.213 C 
ATOM     29  C   UNL     1       1.634  -1.382  21.090  0.00  0.00    +0.109 C 
ENDBRANCH  16  21
ENDBRANCH  12  16
BRANCH  10  17
ATOM     17  C   UNL     1      -4.490   2.947  23.374  0.00  0.00    +0.112 C 
BRANCH  17   5
ATOM      2  O   UNL     1      -6.127   0.750  24.236  0.00  0.00    -0.270 OA
ATOM      5  N   UNL     1      -4.042   1.638  23.735  0.00  0.00    -0.311 N 
ATOM     26  C   UNL     1      -4.909   0.625  24.144  0.00  0.00    +0.247 C 
ATOM     33  H   UNL     1      -3.057   1.431  23.608  0.00  0.00    +0.149 HD
BRANCH  26  28
ATOM      7  N   UNL     1      -3.206  -2.080  26.138  0.00  0.00    -0.243 NA
ATOM      8  N   UNL     1      -3.604  -2.901  23.908  0.00  0.00    -0.243 NA
ATOM     28  C   UNL     1      -4.283  -0.672  24.510  0.00  0.00    +0.073 A 
ATOM     30  C   UNL     1      -3.781  -0.915  25.771  0.00  0.00    +0.127 A 
ATOM     31  C   UNL     1      -4.167  -1.711  23.610  0.00  0.00    +0.127 A 
ATOM     32  C   UNL     1      -3.151  -3.015  25.170  0.00  0.00    +0.221 A 
ENDBRANCH  26  28
ENDBRANCH  17   5
ENDBRANCH  10  17
TORSDOF 6
ENDMDL
MODEL 4
REMARK VINA RESULT:       2.9      3.379      6.026
REMARK  Name = 38026916
REMARK  10 active torsions:
REMARK  status: ('A' for Active; 'I' for Inactive)
REMARK    1  A    between atoms: N_5  and  C_17
REMARK    2  A    between atoms: C_9  and  C_13
REMARK    3  A    between atoms: C_10  and  C_17
REMARK    4  A    between atoms: C_12  and  C_16
REMARK    5  A    between atoms: C_13  and  C_18
REMARK    6  A    between atoms: C_13  and  C_19
REMARK    7  A    between atoms: C_14  and  C_20
REMARK    8  A    between atoms: C_16  and  C_21
REMARK    9  A    between atoms: C_26  and  C_28
REMARK   10  A    between atoms: C_27  and  C_29
REMARK                            x       y       z     vdW  Elec       q    Type
REMARK                         _______ _______ _______ _____ _____    ______ ____
ROOT
ATOM      9  C   UNL     1      -3.010   3.086  23.656  0.00  0.00    +0.000 C 
ATOM     10  C   UNL     1      -1.826   3.890  24.249  0.00  0.00    +0.032 C 
ATOM     11  C   UNL     1      -4.347   3.735  24.042  0.00  0.00    +0.012 C 
ATOM     12  C   UNL     1      -4.533   3.821  25.569  0.00  0.00    +0.023 C 
ATOM     14  C   UNL     1      -3.294   4.359  26.257  0.00  0.00    -0.073 C 
ATOM     15  C   UNL     1      -2.097   4.394  25.647  0.00  0.00    -0.022 C 
ATOM     20  C   UNL     1      -3.474   4.900  27.649  0.00  0.00    +0.039 C 
ENDROOT
BRANCH   9  13
ATOM     13  C   UNL     1      -2.910   2.970  22.131  0.00  0.00    -0.013 C 
ATOM     18  C   UNL     1      -2.500   1.557  21.730  0.00  0.00    +0.007 C 
ATOM     19  C   UNL     1      -4.236   3.352  21.481  0.00  0.00    +0.007 C 
ENDBRANCH   9  13
BRANCH  12  16
ATOM     16  C   UNL     1      -4.939   2.464  26.152  0.00  0.00    +0.103 C 
BRANCH  16  21
ATOM      1  O   UNL     1      -6.350   1.590  24.462  0.00  0.00    -0.276 OA
ATOM      3  O   UNL     1      -0.822  -2.913  24.974  0.00  0.00    -0.276 OA
ATOM      4  N   UNL     1      -4.288   0.555  24.727  0.00  0.00    -0.298 N 
ATOM      6  N   UNL     1      -2.911  -1.920  24.754  0.00  0.00    -0.299 N 
ATOM     21  C   UNL     1      -5.263   1.502  25.037  0.00  0.00    +0.216 C 
ATOM     22  C   UNL     1      -4.526  -0.417  23.658  0.00  0.00    +0.126 C 
ATOM     23  C   UNL     1      -2.956   0.473  25.342  0.00  0.00    +0.126 C 
ATOM     24  C   UNL     1      -4.243  -1.838  24.139  0.00  0.00    +0.126 C 
ATOM     25  C   UNL     1      -2.673  -0.948  25.823  0.00  0.00    +0.126 C 
ATOM     27  C   UNL     1      -1.934  -2.866  24.442  0.00  0.00    +0.213 C 
ATOM     29  C   UNL     1      -2.290  -3.878  23.383  0.00  0.00    +0.109 C 
ENDBRANCH  16  21
ENDBRANCH  12  16
BRANCH  10  17
ATOM     17  C   UNL     1      -0.537   3.060  24.246  0.00  0.00    +0.112 C 
BRANCH  17   5
ATOM      2  O   UNL     1      -0.366   1.059  26.299  0.00  0.00    -0.270 OA
ATOM      5  N   UNL     1       0.144   3.177  25.498  0.00  0.00    -0.311 N 
ATOM     26  C   UNL     1       0.177   2.150  26.442  0.00  0.00    +0.247 C 
ATOM     33  H   UNL     1       0.686   4.019  25.657  0.00  0.00    +0.149 HD
BRANCH  26  28
ATOM      7  N   UNL     1       0.950   2.540  30.108  0.00  0.00    -0.243 NA
ATOM      8  N   UNL     1       2.908   3.145  28.840  0.00  0.00    -0.243 NA
ATOM     28  C   UNL     1       0.906   2.438  27.704  0.00  0.00    +0.073 A 
ATOM     30  C   UNL     1       0.319   2.288  28.943  0.00  0.00    +0.127 A 
ATOM     31  C   UNL     1       2.216   2.874  27.713  0.00  0.00    +0.127 A 
ATOM     32  C   UNL     1       2.224   2.959  29.985  0.00  0.00    +0.221 A 
ENDBRANCH  26  28
ENDBRANCH  17   5
ENDBRANCH  10  17
TORSDOF 6
ENDMDL
MODEL 5
REMARK VINA RESULT:       3.6      2.172      5.320
REMARK  Name = 38026916
REMARK  10 active torsions:
REMARK  status: ('A' for Active; 'I' for Inactive)
REMARK    1  A    between atoms: N_5  and  C_17
REMARK    2  A    between atoms: C_9  and  C_13
REMARK    3  A    between atoms: C_10  and  C_17
REMARK    4  A    between atoms: C_12  and  C_16
REMARK    5  A    between atoms: C_13  and  C_18
REMARK    6  A    between atoms: C_13  and  C_19
REMARK    7  A    between atoms: C_14  and  C_20
REMARK    8  A    between atoms: C_16  and  C_21
REMARK    9  A    between atoms: C_26  and  C_28
REMARK   10  A    between atoms: C_27  and  C_29
REMARK                            x       y       z     vdW  Elec       q    Type
REMARK                         _______ _______ _______ _____ _____    ______ ____
ROOT
ATOM      9  C   UNL     1      -3.168   2.827  23.701  0.00  0.00    +0.000 C 
ATOM     10  C   UNL     1      -2.714   4.202  24.252  0.00  0.00    +0.032 C 
ATOM     11  C   UNL     1      -4.686   2.815  23.470  0.00  0.00    +0.012 C 
ATOM     12  C   UNL     1      -5.474   3.107  24.762  0.00  0.00    +0.023 C 
ATOM     14  C   UNL     1      -4.911   4.300  25.508  0.00  0.00    -0.073 C 
ATOM     15  C   UNL     1      -3.682   4.783  25.257  0.00  0.00    -0.022 C 
ATOM     20  C   UNL     1      -5.813   4.954  26.517  0.00  0.00    +0.039 C 
ENDROOT
BRANCH   9  13
ATOM     13  C   UNL     1      -2.442   2.470  22.399  0.00  0.00    -0.013 C 
ATOM     18  C   UNL     1      -2.336   0.956  22.247  0.00  0.00    +0.007 C 
ATOM     19  C   UNL     1      -3.163   3.084  21.203  0.00  0.00    +0.007 C 
ENDBRANCH   9  13
BRANCH  12  16
ATOM     16  C   UNL     1      -5.527   1.870  25.665  0.00  0.00    +0.103 C 
BRANCH  16  21
ATOM      1  O   UNL     1      -6.566   0.229  24.308  0.00  0.00    -0.276 OA
ATOM      3  O   UNL     1       0.080  -2.102  25.525  0.00  0.00    -0.276 OA
ATOM      4  N   UNL     1      -4.289  -0.028  24.685  0.00  0.00    -0.298 N 
ATOM      6  N   UNL     1      -2.210  -1.881  25.204  0.00  0.00    -0.299 N 
ATOM     21  C   UNL     1      -5.516   0.619  24.823  0.00  0.00    +0.216 C 
ATOM     22  C   UNL     1      -4.194  -1.252  23.886  0.00  0.00    +0.126 C 
ATOM     23  C   UNL     1      -3.009   0.451  25.223  0.00  0.00    +0.126 C 
ATOM     24  C   UNL     1      -3.490  -2.359  24.666  0.00  0.00    +0.126 C 
ATOM     25  C   UNL     1      -2.305  -0.657  26.003  0.00  0.00    +0.126 C 
ATOM     27  C   UNL     1      -0.981  -2.526  25.063  0.00  0.00    +0.213 C 
ATOM     29  C   UNL     1      -0.985  -3.820  24.289  0.00  0.00    +0.109 C 
ENDBRANCH  16  21
ENDBRANCH  12  16
BRANCH  10  17
ATOM     17  C   UNL     1      -1.319   4.114  24.880  0.00  0.00    +0.112 C 
BRANCH  17   5
ATOM      2  O   UNL     1       0.182   1.904  25.932  0.00  0.00    -0.270 OA
ATOM      5  N   UNL     1      -0.485   3.218  24.140  0.00  0.00    -0.311 N 
ATOM     26  C   UNL     1       0.211   2.166  24.734  0.00  0.00    +0.247 C 
ATOM     33  H   UNL     1      -0.472   3.319  23.131  0.00  0.00    +0.149 HD
BRANCH  26  28
ATOM      7  N   UNL     1       1.308  -0.556  22.372  0.00  0.00    -0.243 NA
ATOM      8  N   UNL     1       3.170   0.923  22.760  0.00  0.00    -0.243 NA
ATOM     28  C   UNL     1       1.055   1.341  23.831  0.00  0.00    +0.073 A 
ATOM     30  C   UNL     1       0.571   0.215  23.197  0.00  0.00    +0.127 A 
ATOM     31  C   UNL     1       2.375   1.650  23.573  0.00  0.00    +0.127 A 
ATOM     32  C   UNL     1       2.581  -0.150  22.201  0.00  0.00    +0.221 A 
ENDBRANCH  26  28
ENDBRANCH  17   5
ENDBRANCH  10  17
TORSDOF 6
ENDMDL
MODEL 6
REMARK VINA RESULT:       4.3      1.697      2.153
REMARK  Name = 38026916
REMARK  10 active torsions:
REMARK  status: ('A' for Active; 'I' for Inactive)
REMARK    1  A    between atoms: N_5  and  C_17
REMARK    2  A    between atoms: C_9  and  C_13
REMARK    3  A    between atoms: C_10  and  C_17
REMARK    4  A    between atoms: C_12  and  C_16
REMARK    5  A    between atoms: C_13  and  C_18
REMARK    6  A    between atoms: C_13  and  C_19
REMARK    7  A    between atoms: C_14  and  C_20
REMARK    8  A    between atoms: C_16  and  C_21
REMARK    9  A    between atoms: C_26  and  C_28
REMARK   10  A    between atoms: C_27  and  C_29
REMARK                            x       y       z     vdW  Elec       q    Type
REMARK                         _______ _______ _______ _____ _____    ______ ____
ROOT
ATOM      9  C   UNL     1      -1.685   0.621  24.986  0.00  0.00    +0.000 C 
ATOM     10  C   UNL     1      -0.514  -0.364  24.750  0.00  0.00    +0.032 C 
ATOM     11  C   UNL     1      -2.666   0.051  26.021  0.00  0.00    +0.012 C 
ATOM     12  C   UNL     1      -3.251  -1.305  25.585  0.00  0.00    +0.023 C 
ATOM     14  C   UNL     1      -2.175  -2.246  25.080  0.00  0.00    -0.073 C 
ATOM     15  C   UNL     1      -0.954  -1.809  24.725  0.00  0.00    -0.022 C 
ATOM     20  C   UNL     1      -2.520  -3.709  25.038  0.00  0.00    +0.039 C 
ENDROOT
BRANCH   9  13
ATOM     13  C   UNL     1      -1.187   1.996  25.445  0.00  0.00    -0.013 C 
ATOM     18  C   UNL     1      -0.034   1.842  26.432  0.00  0.00    +0.007 C 
ATOM     19  C   UNL     1      -0.762   2.835  24.245  0.00  0.00    +0.007 C 
ENDBRANCH   9  13
BRANCH  12  16
ATOM     16  C   UNL     1      -4.352  -1.119  24.536  0.00  0.00    +0.103 C 
BRANCH  16  21
ATOM      1  O   UNL     1      -3.197  -0.113  22.728  0.00  0.00    -0.276 OA
ATOM      3  O   UNL     1      -6.590   5.183  26.124  0.00  0.00    -0.276 OA
ATOM      4  N   UNL     1      -4.660   1.250  23.909  0.00  0.00    -0.298 N 
ATOM      6  N   UNL     1      -5.077   3.837  24.985  0.00  0.00    -0.299 N 
ATOM     21  C   UNL     1      -4.013   0.045  23.638  0.00  0.00    +0.216 C 
ATOM     22  C   UNL     1      -4.384   2.429  23.085  0.00  0.00    +0.126 C 
ATOM     23  C   UNL     1      -5.690   1.450  24.937  0.00  0.00    +0.126 C 
ATOM     24  C   UNL     1      -4.047   3.637  23.957  0.00  0.00    +0.126 C 
ATOM     25  C   UNL     1      -5.353   2.658  25.809  0.00  0.00    +0.126 C 
ATOM     27  C   UNL     1      -5.727   5.042  25.254  0.00  0.00    +0.213 C 
ATOM     29  C   UNL     1      -5.328   6.225  24.410  0.00  0.00    +0.109 C 
ENDBRANCH  16  21
ENDBRANCH  12  16
BRANCH  10  17
ATOM     17  C   UNL     1       0.233  -0.036  23.452  0.00  0.00    +0.112 C 
BRANCH  17   5
ATOM      2  O   UNL     1       2.476   1.728  23.135  0.00  0.00    -0.270 OA
ATOM      5  N   UNL     1       1.615  -0.385  23.558  0.00  0.00    -0.311 N 
ATOM     26  C   UNL     1       2.646   0.539  23.389  0.00  0.00    +0.247 C 
ATOM     33  H   UNL     1       1.836  -1.332  23.846  0.00  0.00    +0.149 HD
BRANCH  26  28
ATOM      7  N   UNL     1       6.408   0.383  23.500  0.00  0.00    -0.243 NA
ATOM      8  N   UNL     1       5.535  -1.837  23.838  0.00  0.00    -0.243 NA
ATOM     28  C   UNL     1       4.030   0.012  23.505  0.00  0.00    +0.073 A 
ATOM     30  C   UNL     1       5.138   0.827  23.399  0.00  0.00    +0.127 A 
ATOM     31  C   UNL     1       4.291  -1.325  23.727  0.00  0.00    +0.127 A 
ATOM     32  C   UNL     1       6.531  -0.941  23.716  0.00  0.00    +0.221 A 
ENDBRANCH  26  28
ENDBRANCH  17   5
ENDBRANCH  10  17
TORSDOF 6
ENDMDL
MODEL 7
REMARK VINA RESULT:       4.5      1.858      5.047
REMARK  Name = 38026916
REMARK  10 active torsions:
REMARK  status: ('A' for Active; 'I' for Inactive)
REMARK    1  A    between atoms: N_5  and  C_17
REMARK    2  A    between atoms: C_9  and  C_13
REMARK    3  A    between atoms: C_10  and  C_17
REMARK    4  A    between atoms: C_12  and  C_16
REMARK    5  A    between atoms: C_13  and  C_18
REMARK    6  A    between atoms: C_13  and  C_19
REMARK    7  A    between atoms: C_14  and  C_20
REMARK    8  A    between atoms: C_16  and  C_21
REMARK    9  A    between atoms: C_26  and  C_28
REMARK   10  A    between atoms: C_27  and  C_29
REMARK                            x       y       z     vdW  Elec       q    Type
REMARK                         _______ _______ _______ _____ _____    ______ ____
ROOT
ATOM      9  C   UNL     1      -2.765   2.642  23.090  0.00  0.00    +0.000 C 
ATOM     10  C   UNL     1      -1.549   2.595  24.048  0.00  0.00    +0.032 C 
ATOM     11  C   UNL     1      -3.472   4.002  23.184  0.00  0.00    +0.012 C 
ATOM     12  C   UNL     1      -3.964   4.306  24.612  0.00  0.00    +0.023 C 
ATOM     14  C   UNL     1      -2.894   4.024  25.648  0.00  0.00    -0.073 C 
ATOM     15  C   UNL     1      -1.816   3.269  25.373  0.00  0.00    -0.022 C 
ATOM     20  C   UNL     1      -3.069   4.670  26.994  0.00  0.00    +0.039 C 
ENDROOT
BRANCH   9  13
ATOM     13  C   UNL     1      -2.356   2.369  21.639  0.00  0.00    -0.013 C 
ATOM     18  C   UNL     1      -2.326   0.868  21.368  0.00  0.00    +0.007 C 
ATOM     19  C   UNL     1      -3.307   3.072  20.677  0.00  0.00    +0.007 C 
ENDBRANCH   9  13
BRANCH  12  16
ATOM     16  C   UNL     1      -5.250   3.534  24.928  0.00  0.00    +0.103 C 
BRANCH  16  21
ATOM      1  O   UNL     1      -4.803   2.833  27.147  0.00  0.00    -0.276 OA
ATOM      3  O   UNL     1      -4.002  -2.952  23.026  0.00  0.00    -0.276 OA
ATOM      4  N   UNL     1      -4.926   1.163  25.537  0.00  0.00    -0.298 N 
ATOM      6  N   UNL     1      -3.812  -1.276  24.623  0.00  0.00    -0.299 N 
ATOM     21  C   UNL     1      -4.974   2.485  25.976  0.00  0.00    +0.216 C 
ATOM     22  C   UNL     1      -4.661   0.085  26.493  0.00  0.00    +0.126 C 
ATOM     23  C   UNL     1      -5.199   0.710  24.167  0.00  0.00    +0.126 C 
ATOM     24  C   UNL     1      -3.540  -0.823  25.993  0.00  0.00    +0.126 C 
ATOM     25  C   UNL     1      -4.078  -0.198  23.667  0.00  0.00    +0.126 C 
ATOM     27  C   UNL     1      -3.768  -2.599  24.184  0.00  0.00    +0.213 C 
ATOM     29  C   UNL     1      -3.412  -3.639  25.216  0.00  0.00    +0.109 C 
ENDBRANCH  16  21
ENDBRANCH  12  16
BRANCH  10  17
ATOM     17  C   UNL     1      -1.091   1.153  24.292  0.00  0.00    +0.112 C 
BRANCH  17   5
ATOM      2  O   UNL     1       0.309  -0.641  22.542  0.00  0.00    -0.270 OA
ATOM      5  N   UNL     1       0.326   1.038  24.143  0.00  0.00    -0.311 N 
ATOM     26  C   UNL     1       0.925   0.135  23.265  0.00  0.00    +0.247 C 
ATOM     33  H   UNL     1       0.903   1.702  24.647  0.00  0.00    +0.149 HD
BRANCH  26  28
ATOM      7  N   UNL     1       4.488  -1.047  23.587  0.00  0.00    -0.243 NA
ATOM      8  N   UNL     1       4.502   1.249  22.855  0.00  0.00    -0.243 NA
ATOM     28  C   UNL     1       2.411   0.121  23.246  0.00  0.00    +0.073 A 
ATOM     30  C   UNL     1       3.139  -0.999  23.592  0.00  0.00    +0.127 A 
ATOM     31  C   UNL     1       3.152   1.227  22.883  0.00  0.00    +0.127 A 
ATOM     32  C   UNL     1       5.096   0.095  23.213  0.00  0.00    +0.221 A 
ENDBRANCH  26  28
ENDBRANCH  17   5
ENDBRANCH  10  17
TORSDOF 6
ENDMDL
