MODEL 1
REMARK VINA RESULT:      -1.5      0.000      0.000
REMARK  Name = 26743108
REMARK  8 active torsions:
REMARK  status: ('A' for Active; 'I' for Inactive)
REMARK    1  A    between atoms: S_1  and  C_24
REMARK    2  A    between atoms: S_1  and  C_25
REMARK    3  A    between atoms: N_6  and  C_22
REMARK    4  A    between atoms: C_8  and  C_12
REMARK    5  A    between atoms: C_9  and  C_14
REMARK    6  A    between atoms: C_12  and  C_15
REMARK    7  A    between atoms: C_14  and  C_16
REMARK    8  A    between atoms: C_23  and  C_24
REMARK                            x       y       z     vdW  Elec       q    Type
REMARK                         _______ _______ _______ _____ _____    ______ ____
ROOT
ATOM      4  N   UNL     1      -1.893  -3.222  25.382  0.00  0.00    -0.316 NA
ATOM      8  C   UNL     1      -0.942  -0.575  24.490  0.00  0.00    +0.004 C 
ATOM      9  C   UNL     1      -2.417  -1.022  24.357  0.00  0.00    +0.012 C 
ATOM     10  C   UNL     1      -0.277  -1.369  25.626  0.00  0.00    +0.019 C 
ATOM     11  C   UNL     1      -2.541  -2.551  24.254  0.00  0.00    +0.085 C 
ATOM     13  C   UNL     1      -0.475  -2.877  25.478  0.00  0.00    +0.081 C 
ATOM     31  H   UNL     1      -1.987  -4.231  25.275  0.00  0.00    +0.122 HD
ENDROOT
BRANCH   8  12
ATOM     12  C   UNL     1      -0.134  -0.698  23.192  0.00  0.00    +0.100 C 
BRANCH  12  15
ATOM      2  O   UNL     1       0.326   1.625  23.092  0.00  0.00    -0.276 OA
ATOM      5  N   UNL     1       2.146   0.196  22.873  0.00  0.00    -0.299 N 
ATOM      6  N   UNL     1       4.942  -0.266  23.291  0.00  0.00    -0.302 NA
ATOM     15  C   UNL     1       0.792   0.482  23.048  0.00  0.00    +0.216 C 
ATOM     17  C   UNL     1       3.108   1.287  22.729  0.00  0.00    +0.123 C 
ATOM     18  C   UNL     1       2.711  -1.143  22.683  0.00  0.00    +0.123 C 
ATOM     19  C   UNL     1       4.351   1.047  23.587  0.00  0.00    +0.103 C 
ATOM     20  C   UNL     1       3.965  -1.337  23.537  0.00  0.00    +0.103 C 
ATOM     22  C   UNL     1       6.149  -0.477  24.088  0.00  0.00    +0.105 C 
ENDBRANCH  12  15
ENDBRANCH   8  12
BRANCH   9  14
ATOM     14  C   UNL     1      -3.146  -0.345  23.196  0.00  0.00    +0.064 C 
BRANCH  14  16
ATOM      3  O   UNL     1      -3.830   3.184  23.402  0.00  0.00    -0.359 OA
ATOM      7  N   UNL     1      -3.266   2.074  22.784  0.00  0.00    -0.083 NA
ATOM     16  C   UNL     1      -3.594   1.040  23.564  0.00  0.00    +0.084 A 
ATOM     21  C   UNL     1      -4.358   1.432  24.676  0.00  0.00    +0.071 A 
ATOM     23  C   UNL     1      -4.478   2.788  24.528  0.00  0.00    +0.148 A 
BRANCH  23  24
ATOM     24  C   UNL     1      -5.138   3.842  25.309  0.00  0.00    +0.151 C 
BRANCH  24   1
ATOM      1  S   UNL     1      -4.117   4.457  26.696  0.00  0.00    -0.117 S 
BRANCH   1  25
ATOM     25  C   UNL     1      -2.471   4.206  26.046  0.00  0.00    +0.008 A 
ATOM     26  C   UNL     1      -1.762   3.049  26.371  0.00  0.00    +0.015 A 
ATOM     27  C   UNL     1      -1.895   5.167  25.216  0.00  0.00    +0.015 A 
ATOM     28  C   UNL     1      -0.478   2.853  25.865  0.00  0.00    +0.001 A 
ATOM     29  C   UNL     1      -0.610   4.972  24.709  0.00  0.00    +0.001 A 
ATOM     30  C   UNL     1       0.098   3.815  25.034  0.00  0.00    +0.000 A 
ENDBRANCH   1  25
ENDBRANCH  24   1
ENDBRANCH  23  24
ENDBRANCH  14  16
ENDBRANCH   9  14
TORSDOF 7
ENDMDL
MODEL 2
REMARK VINA RESULT:      -1.0      1.447      1.868
REMARK  Name = 26743108
REMARK  8 active torsions:
REMARK  status: ('A' for Active; 'I' for Inactive)
REMARK    1  A    between atoms: S_1  and  C_24
REMARK    2  A    between atoms: S_1  and  C_25
REMARK    3  A    between atoms: N_6  and  C_22
REMARK    4  A    between atoms: C_8  and  C_12
REMARK    5  A    between atoms: C_9  and  C_14
REMARK    6  A    between atoms: C_12  and  C_15
REMARK    7  A    between atoms: C_14  and  C_16
REMARK    8  A    between atoms: C_23  and  C_24
REMARK                            x       y       z     vdW  Elec       q    Type
REMARK                         _______ _______ _______ _____ _____    ______ ____
ROOT
ATOM      4  N   UNL     1      -4.498  -3.452  23.986  0.00  0.00    -0.316 NA
ATOM      8  C   UNL     1      -2.784  -1.301  25.056  0.00  0.00    +0.004 C 
ATOM      9  C   UNL     1      -3.799  -1.071  23.910  0.00  0.00    +0.012 C 
ATOM     10  C   UNL     1      -3.236  -2.511  25.890  0.00  0.00    +0.019 C 
ATOM     11  C   UNL     1      -4.061  -2.361  23.115  0.00  0.00    +0.085 C 
ATOM     13  C   UNL     1      -3.515  -3.743  25.029  0.00  0.00    +0.081 C 
ATOM     31  H   UNL     1      -4.653  -4.290  23.427  0.00  0.00    +0.122 HD
ENDROOT
BRANCH   8  12
ATOM     12  C   UNL     1      -1.336  -1.475  24.581  0.00  0.00    +0.100 C 
BRANCH  12  15
ATOM      2  O   UNL     1      -0.737   0.418  25.875  0.00  0.00    -0.276 OA
ATOM      5  N   UNL     1       0.335   0.180  23.827  0.00  0.00    -0.299 N 
ATOM      6  N   UNL     1       2.684   0.608  22.245  0.00  0.00    -0.302 NA
ATOM     15  C   UNL     1      -0.558  -0.208  24.826  0.00  0.00    +0.216 C 
ATOM     17  C   UNL     1       1.129   1.396  23.992  0.00  0.00    +0.123 C 
ATOM     18  C   UNL     1       0.473  -0.465  22.518  0.00  0.00    +0.123 C 
ATOM     19  C   UNL     1       2.589   1.162  23.604  0.00  0.00    +0.103 C 
ATOM     20  C   UNL     1       1.945  -0.660  22.153  0.00  0.00    +0.103 C 
ATOM     22  C   UNL     1       4.083   0.418  21.865  0.00  0.00    +0.105 C 
ENDBRANCH  12  15
ENDBRANCH   8  12
BRANCH   9  14
ATOM     14  C   UNL     1      -3.394   0.066  22.971  0.00  0.00    +0.064 C 
BRANCH  14  16
ATOM      3  O   UNL     1      -4.085   3.546  23.587  0.00  0.00    -0.359 OA
ATOM      7  N   UNL     1      -3.567   2.512  22.815  0.00  0.00    -0.083 NA
ATOM     16  C   UNL     1      -3.819   1.400  23.513  0.00  0.00    +0.084 A 
ATOM     21  C   UNL     1      -4.485   1.668  24.720  0.00  0.00    +0.071 A 
ATOM     23  C   UNL     1      -4.629   3.030  24.719  0.00  0.00    +0.148 A 
BRANCH  23  24
ATOM     24  C   UNL     1      -5.226   3.991  25.655  0.00  0.00    +0.151 C 
BRANCH  24   1
ATOM      1  S   UNL     1      -4.069   4.540  26.960  0.00  0.00    -0.117 S 
BRANCH   1  25
ATOM     25  C   UNL     1      -2.523   4.553  26.063  0.00  0.00    +0.008 A 
ATOM     26  C   UNL     1      -1.664   3.456  26.139  0.00  0.00    +0.015 A 
ATOM     27  C   UNL     1      -2.176   5.658  25.287  0.00  0.00    +0.015 A 
ATOM     28  C   UNL     1      -0.457   3.466  25.439  0.00  0.00    +0.001 A 
ATOM     29  C   UNL     1      -0.970   5.669  24.587  0.00  0.00    +0.001 A 
ATOM     30  C   UNL     1      -0.110   4.573  24.663  0.00  0.00    +0.000 A 
ENDBRANCH   1  25
ENDBRANCH  24   1
ENDBRANCH  23  24
ENDBRANCH  14  16
ENDBRANCH   9  14
TORSDOF 7
ENDMDL
MODEL 3
REMARK VINA RESULT:      -0.6      2.608      6.568
REMARK  Name = 26743108
REMARK  8 active torsions:
REMARK  status: ('A' for Active; 'I' for Inactive)
REMARK    1  A    between atoms: S_1  and  C_24
REMARK    2  A    between atoms: S_1  and  C_25
REMARK    3  A    between atoms: N_6  and  C_22
REMARK    4  A    between atoms: C_8  and  C_12
REMARK    5  A    between atoms: C_9  and  C_14
REMARK    6  A    between atoms: C_12  and  C_15
REMARK    7  A    between atoms: C_14  and  C_16
REMARK    8  A    between atoms: C_23  and  C_24
REMARK                            x       y       z     vdW  Elec       q    Type
REMARK                         _______ _______ _______ _____ _____    ______ ____
ROOT
ATOM      4  N   UNL     1      -3.735  -3.456  24.327  0.00  0.00    -0.316 NA
ATOM      8  C   UNL     1      -3.637  -0.507  24.333  0.00  0.00    +0.004 C 
ATOM      9  C   UNL     1      -2.497  -1.383  24.906  0.00  0.00    +0.012 C 
ATOM     10  C   UNL     1      -4.420  -1.321  23.290  0.00  0.00    +0.019 C 
ATOM     11  C   UNL     1      -3.016  -2.748  25.387  0.00  0.00    +0.085 C 
ATOM     13  C   UNL     1      -4.869  -2.680  23.827  0.00  0.00    +0.081 C 
ATOM     31  H   UNL     1      -4.070  -4.350  24.685  0.00  0.00    +0.122 HD
ENDROOT
BRANCH   8  12
ATOM     12  C   UNL     1      -4.579   0.064  25.400  0.00  0.00    +0.100 C 
BRANCH  12  15
ATOM      2  O   UNL     1      -6.377   1.527  24.904  0.00  0.00    -0.276 OA
ATOM      5  N   UNL     1      -4.236   2.359  24.553  0.00  0.00    -0.299 N 
ATOM      6  N   UNL     1      -2.480   4.621  24.514  0.00  0.00    -0.302 NA
ATOM     15  C   UNL     1      -5.152   1.377  24.931  0.00  0.00    +0.216 C 
ATOM     17  C   UNL     1      -4.713   3.661  24.090  0.00  0.00    +0.123 C 
ATOM     18  C   UNL     1      -2.787   2.168  24.448  0.00  0.00    +0.123 C 
ATOM     19  C   UNL     1      -3.922   4.801  24.732  0.00  0.00    +0.103 C 
ATOM     20  C   UNL     1      -2.031   3.339  25.077  0.00  0.00    +0.103 C 
ATOM     22  C   UNL     1      -1.730   5.731  25.100  0.00  0.00    +0.105 C 
ENDBRANCH  12  15
ENDBRANCH   8  12
BRANCH   9  14
ATOM     14  C   UNL     1      -1.706  -0.688  26.014  0.00  0.00    +0.064 C 
BRANCH  14  16
ATOM      3  O   UNL     1       0.682   1.926  25.358  0.00  0.00    -0.359 OA
ATOM      7  N   UNL     1      -0.262   1.294  26.160  0.00  0.00    -0.083 NA
ATOM     16  C   UNL     1      -0.671   0.240  25.448  0.00  0.00    +0.084 A 
ATOM     21  C   UNL     1      -0.027   0.157  24.202  0.00  0.00    +0.071 A 
ATOM     23  C   UNL     1       0.813   1.239  24.195  0.00  0.00    +0.148 A 
BRANCH  23  24
ATOM     24  C   UNL     1       1.777   1.772  23.224  0.00  0.00    +0.151 C 
BRANCH  24   1
ATOM      1  S   UNL     1       2.425   0.503  22.080  0.00  0.00    -0.117 S 
BRANCH   1  25
ATOM     25  C   UNL     1       3.856  -0.072  22.982  0.00  0.00    +0.008 A 
ATOM     26  C   UNL     1       3.897  -1.381  23.465  0.00  0.00    +0.015 A 
ATOM     27  C   UNL     1       4.932   0.787  23.205  0.00  0.00    +0.015 A 
ATOM     28  C   UNL     1       5.013  -1.830  24.170  0.00  0.00    +0.001 A 
ATOM     29  C   UNL     1       6.049   0.338  23.909  0.00  0.00    +0.001 A 
ATOM     30  C   UNL     1       6.089  -0.970  24.392  0.00  0.00    +0.000 A 
ENDBRANCH   1  25
ENDBRANCH  24   1
ENDBRANCH  23  24
ENDBRANCH  14  16
ENDBRANCH   9  14
TORSDOF 7
ENDMDL
MODEL 4
REMARK VINA RESULT:      -0.0      1.943      5.374
REMARK  Name = 26743108
REMARK  8 active torsions:
REMARK  status: ('A' for Active; 'I' for Inactive)
REMARK    1  A    between atoms: S_1  and  C_24
REMARK    2  A    between atoms: S_1  and  C_25
REMARK    3  A    between atoms: N_6  and  C_22
REMARK    4  A    between atoms: C_8  and  C_12
REMARK    5  A    between atoms: C_9  and  C_14
REMARK    6  A    between atoms: C_12  and  C_15
REMARK    7  A    between atoms: C_14  and  C_16
REMARK    8  A    between atoms: C_23  and  C_24
REMARK                            x       y       z     vdW  Elec       q    Type
REMARK                         _______ _______ _______ _____ _____    ______ ____
ROOT
ATOM      4  N   UNL     1       2.554   0.759  22.191  0.00  0.00    -0.316 NA
ATOM      8  C   UNL     1       0.068   0.366  23.733  0.00  0.00    +0.004 C 
ATOM      9  C   UNL     1       0.954   1.627  23.881  0.00  0.00    +0.012 C 
ATOM     10  C   UNL     1       0.306  -0.254  22.346  0.00  0.00    +0.019 C 
ATOM     11  C   UNL     1       2.422   1.334  23.531  0.00  0.00    +0.085 C 
ATOM     13  C   UNL     1       1.789  -0.479  22.053  0.00  0.00    +0.081 C 
ATOM     31  H   UNL     1       3.537   0.571  21.999  0.00  0.00    +0.122 HD
ENDROOT
BRANCH   8  12
ATOM     12  C   UNL     1       0.276  -0.675  24.840  0.00  0.00    +0.100 C 
BRANCH  12  15
ATOM      2  O   UNL     1      -1.124  -0.034  26.642  0.00  0.00    -0.276 OA
ATOM      5  N   UNL     1      -1.891  -1.766  25.297  0.00  0.00    -0.299 N 
ATOM      6  N   UNL     1      -4.121  -3.158  24.156  0.00  0.00    -0.302 NA
ATOM     15  C   UNL     1      -0.971  -0.791  25.679  0.00  0.00    +0.216 C 
ATOM     17  C   UNL     1      -3.128  -1.938  26.058  0.00  0.00    +0.123 C 
ATOM     18  C   UNL     1      -1.680  -2.765  24.245  0.00  0.00    +0.123 C 
ATOM     19  C   UNL     1      -4.335  -2.078  25.131  0.00  0.00    +0.103 C 
ATOM     20  C   UNL     1      -2.916  -2.895  23.354  0.00  0.00    +0.103 C 
ATOM     22  C   UNL     1      -5.291  -3.310  23.293  0.00  0.00    +0.105 C 
ENDBRANCH  12  15
ENDBRANCH   8  12
BRANCH   9  14
ATOM     14  C   UNL     1       0.850   2.273  25.263  0.00  0.00    +0.064 C 
BRANCH  14  16
ATOM      3  O   UNL     1      -1.642   4.855  24.965  0.00  0.00    -0.359 OA
ATOM      7  N   UNL     1      -0.415   4.287  24.644  0.00  0.00    -0.083 NA
ATOM     16  C   UNL     1      -0.357   3.161  25.362  0.00  0.00    +0.084 A 
ATOM     21  C   UNL     1      -1.507   2.969  26.145  0.00  0.00    +0.071 A 
ATOM     23  C   UNL     1      -2.283   4.060  25.859  0.00  0.00    +0.148 A 
BRANCH  23  24
ATOM     24  C   UNL     1      -3.605   4.514  26.309  0.00  0.00    +0.151 C 
BRANCH  24   1
ATOM      1  S   UNL     1      -4.980   3.527  25.619  0.00  0.00    -0.117 S 
BRANCH   1  25
ATOM     25  C   UNL     1      -4.154   2.683  24.277  0.00  0.00    +0.008 A 
ATOM     26  C   UNL     1      -3.703   3.404  23.172  0.00  0.00    +0.015 A 
ATOM     27  C   UNL     1      -3.962   1.302  24.336  0.00  0.00    +0.015 A 
ATOM     28  C   UNL     1      -3.059   2.745  22.125  0.00  0.00    +0.001 A 
ATOM     29  C   UNL     1      -3.318   0.643  23.289  0.00  0.00    +0.001 A 
ATOM     30  C   UNL     1      -2.866   1.365  22.183  0.00  0.00    +0.000 A 
ENDBRANCH   1  25
ENDBRANCH  24   1
ENDBRANCH  23  24
ENDBRANCH  14  16
ENDBRANCH   9  14
TORSDOF 7
ENDMDL
MODEL 5
REMARK VINA RESULT:       1.1      1.541      2.998
REMARK  Name = 26743108
REMARK  8 active torsions:
REMARK  status: ('A' for Active; 'I' for Inactive)
REMARK    1  A    between atoms: S_1  and  C_24
REMARK    2  A    between atoms: S_1  and  C_25
REMARK    3  A    between atoms: N_6  and  C_22
REMARK    4  A    between atoms: C_8  and  C_12
REMARK    5  A    between atoms: C_9  and  C_14
REMARK    6  A    between atoms: C_12  and  C_15
REMARK    7  A    between atoms: C_14  and  C_16
REMARK    8  A    between atoms: C_23  and  C_24
REMARK                            x       y       z     vdW  Elec       q    Type
REMARK                         _______ _______ _______ _____ _____    ______ ____
ROOT
ATOM      4  N   UNL     1      -2.840  -1.052  25.564  0.00  0.00    -0.316 NA
ATOM      8  C   UNL     1      -0.053  -1.369  24.649  0.00  0.00    +0.004 C 
ATOM      9  C   UNL     1      -0.550  -0.108  25.395  0.00  0.00    +0.012 C 
ATOM     10  C   UNL     1      -0.960  -2.556  25.010  0.00  0.00    +0.019 C 
ATOM     11  C   UNL     1      -2.055   0.122  25.182  0.00  0.00    +0.085 C 
ATOM     13  C   UNL     1      -2.442  -2.240  24.810  0.00  0.00    +0.081 C 
ATOM     31  H   UNL     1      -3.829  -0.865  25.401  0.00  0.00    +0.122 HD
ENDROOT
BRANCH   8  12
ATOM     12  C   UNL     1       0.041  -1.196  23.127  0.00  0.00    +0.100 C 
BRANCH  12  15
ATOM      2  O   UNL     1       0.356   1.091  22.592  0.00  0.00    -0.276 OA
ATOM      5  N   UNL     1       2.274  -0.211  22.750  0.00  0.00    -0.299 N 
ATOM      6  N   UNL     1       5.062  -0.369  23.388  0.00  0.00    -0.302 NA
ATOM     15  C   UNL     1       0.896   0.001  22.797  0.00  0.00    +0.216 C 
ATOM     17  C   UNL     1       3.171   0.902  22.440  0.00  0.00    +0.123 C 
ATOM     18  C   UNL     1       2.935  -1.514  22.858  0.00  0.00    +0.123 C 
ATOM     19  C   UNL     1       4.370   0.928  23.388  0.00  0.00    +0.103 C 
ATOM     20  C   UNL     1       4.143  -1.443  23.793  0.00  0.00    +0.103 C 
ATOM     22  C   UNL     1       6.228  -0.329  24.270  0.00  0.00    +0.105 C 
ENDBRANCH  12  15
ENDBRANCH   8  12
BRANCH   9  14
ATOM     14  C   UNL     1       0.242   1.150  25.039  0.00  0.00    +0.064 C 
BRANCH  14  16
ATOM      3  O   UNL     1      -1.620   3.842  26.538  0.00  0.00    -0.359 OA
ATOM      7  N   UNL     1      -0.942   2.630  26.602  0.00  0.00    -0.083 NA
ATOM     16  C   UNL     1      -0.538   2.395  25.350  0.00  0.00    +0.084 A 
ATOM     21  C   UNL     1      -0.927   3.412  24.463  0.00  0.00    +0.071 A 
ATOM     23  C   UNL     1      -1.604   4.298  25.259  0.00  0.00    +0.148 A 
BRANCH  23  24
ATOM     24  C   UNL     1      -2.280   5.577  25.012  0.00  0.00    +0.151 C 
BRANCH  24   1
ATOM      1  S   UNL     1      -3.725   5.425  23.902  0.00  0.00    -0.117 S 
BRANCH   1  25
ATOM     25  C   UNL     1      -4.426   3.880  24.463  0.00  0.00    +0.008 A 
ATOM     26  C   UNL     1      -4.209   2.710  23.734  0.00  0.00    +0.015 A 
ATOM     27  C   UNL     1      -5.190   3.843  25.629  0.00  0.00    +0.015 A 
ATOM     28  C   UNL     1      -4.756   1.504  24.171  0.00  0.00    +0.001 A 
ATOM     29  C   UNL     1      -5.738   2.637  26.066  0.00  0.00    +0.001 A 
ATOM     30  C   UNL     1      -5.521   1.468  25.337  0.00  0.00    +0.000 A 
ENDBRANCH   1  25
ENDBRANCH  24   1
ENDBRANCH  23  24
ENDBRANCH  14  16
ENDBRANCH   9  14
TORSDOF 7
ENDMDL
MODEL 6
REMARK VINA RESULT:       1.3      1.858      3.354
REMARK  Name = 26743108
REMARK  8 active torsions:
REMARK  status: ('A' for Active; 'I' for Inactive)
REMARK    1  A    between atoms: S_1  and  C_24
REMARK    2  A    between atoms: S_1  and  C_25
REMARK    3  A    between atoms: N_6  and  C_22
REMARK    4  A    between atoms: C_8  and  C_12
REMARK    5  A    between atoms: C_9  and  C_14
REMARK    6  A    between atoms: C_12  and  C_15
REMARK    7  A    between atoms: C_14  and  C_16
REMARK    8  A    between atoms: C_23  and  C_24
REMARK                            x       y       z     vdW  Elec       q    Type
REMARK                         _______ _______ _______ _____ _____    ______ ____
ROOT
ATOM      4  N   UNL     1      -4.681  -0.759  24.341  0.00  0.00    -0.316 NA
ATOM      8  C   UNL     1      -2.319  -2.374  25.061  0.00  0.00    +0.004 C 
ATOM      9  C   UNL     1      -2.632  -1.010  25.721  0.00  0.00    +0.012 C 
ATOM     10  C   UNL     1      -3.625  -2.984  24.527  0.00  0.00    +0.019 C 
ATOM     11  C   UNL     1      -3.452  -0.103  24.789  0.00  0.00    +0.085 C 
ATOM     13  C   UNL     1      -4.404  -2.012  23.641  0.00  0.00    +0.081 C 
ATOM     31  H   UNL     1      -5.192  -0.132  23.720  0.00  0.00    +0.122 HD
ENDROOT
BRANCH   8  12
ATOM     12  C   UNL     1      -1.257  -2.304  23.957  0.00  0.00    +0.100 C 
BRANCH  12  15
ATOM      2  O   UNL     1       0.441  -2.671  25.568  0.00  0.00    -0.276 OA
ATOM      5  N   UNL     1       0.894  -1.091  23.927  0.00  0.00    -0.299 N 
ATOM      6  N   UNL     1       2.838   0.226  22.285  0.00  0.00    -0.302 NA
ATOM     15  C   UNL     1       0.099  -2.044  24.562  0.00  0.00    +0.216 C 
ATOM     17  C   UNL     1       2.224  -0.785  24.451  0.00  0.00    +0.123 C 
ATOM     18  C   UNL     1       0.467  -0.237  22.815  0.00  0.00    +0.123 C 
ATOM     19  C   UNL     1       3.260  -0.718  23.330  0.00  0.00    +0.103 C 
ATOM     20  C   UNL     1       1.538  -0.174  21.726  0.00  0.00    +0.103 C 
ATOM     22  C   UNL     1       3.848   0.312  21.232  0.00  0.00    +0.105 C 
ENDBRANCH  12  15
ENDBRANCH   8  12
BRANCH   9  14
ATOM     14  C   UNL     1      -1.381  -0.282  26.215  0.00  0.00    +0.064 C 
BRANCH  14  16
ATOM      3  O   UNL     1      -1.207   2.464  23.894  0.00  0.00    -0.359 OA
ATOM      7  N   UNL     1      -1.473   1.137  24.212  0.00  0.00    -0.083 NA
ATOM     16  C   UNL     1      -1.202   1.034  25.517  0.00  0.00    +0.084 A 
ATOM     21  C   UNL     1      -0.766   2.251  26.069  0.00  0.00    +0.071 A 
ATOM     23  C   UNL     1      -0.787   3.117  25.008  0.00  0.00    +0.148 A 
BRANCH  23  24
ATOM     24  C   UNL     1      -0.461   4.539  24.849  0.00  0.00    +0.151 C 
BRANCH  24   1
ATOM      1  S   UNL     1      -1.901   5.640  25.087  0.00  0.00    -0.117 S 
BRANCH   1  25
ATOM     25  C   UNL     1      -3.244   4.463  25.030  0.00  0.00    +0.008 A 
ATOM     26  C   UNL     1      -3.850   4.038  26.212  0.00  0.00    +0.015 A 
ATOM     27  C   UNL     1      -3.686   3.968  23.803  0.00  0.00    +0.015 A 
ATOM     28  C   UNL     1      -4.898   3.119  26.167  0.00  0.00    +0.001 A 
ATOM     29  C   UNL     1      -4.734   3.049  23.757  0.00  0.00    +0.001 A 
ATOM     30  C   UNL     1      -5.340   2.624  24.940  0.00  0.00    +0.000 A 
ENDBRANCH   1  25
ENDBRANCH  24   1
ENDBRANCH  23  24
ENDBRANCH  14  16
ENDBRANCH   9  14
TORSDOF 7
ENDMDL
