MODEL 1
REMARK VINA RESULT:      -3.9      0.000      0.000
REMARK  Name = 45783447
REMARK  9 active torsions:
REMARK  status: ('A' for Active; 'I' for Inactive)
REMARK    1  A    between atoms: O_2  and  C_23
REMARK    2  A    between atoms: O_2  and  C_26
REMARK    3  A    between atoms: O_3  and  C_27
REMARK    4  A    between atoms: O_3  and  C_28
REMARK    5  A    between atoms: N_4  and  C_9
REMARK    6  A    between atoms: N_5  and  C_19
REMARK    7  A    between atoms: C_10  and  C_18
REMARK    8  A    between atoms: C_20  and  C_21
REMARK    9  A    between atoms: C_26  and  C_27
REMARK                            x       y       z     vdW  Elec       q    Type
REMARK                         _______ _______ _______ _____ _____    ______ ____
ROOT
ATOM      1  O   UNL     1      -8.913  -9.952  12.167  0.00  0.00    -0.336 OA
ATOM      6  N   UNL     1      -6.987  -9.840  13.306  0.00  0.00    -0.189 NA
ATOM      7  N   UNL     1      -7.892 -10.045  11.214  0.00  0.00    -0.054 NA
ATOM     18  C   UNL     1      -8.295  -9.833  13.372  0.00  0.00    +0.245 A 
ATOM     20  C   UNL     1      -6.787  -9.971  11.962  0.00  0.00    +0.221 A 
ENDROOT
BRANCH  20  21
ATOM      8  N   UNL     1      -5.382  -9.730  10.083  0.00  0.00    -0.252 NA
ATOM     21  C   UNL     1      -5.469 -10.026  11.400  0.00  0.00    +0.115 A 
ATOM     22  C   UNL     1      -4.384 -10.363  12.192  0.00  0.00    +0.077 A 
ATOM     23  C   UNL     1      -3.128 -10.400  11.595  0.00  0.00    +0.124 A 
ATOM     24  C   UNL     1      -4.146  -9.777   9.537  0.00  0.00    +0.115 A 
ATOM     25  C   UNL     1      -2.998 -10.103  10.243  0.00  0.00    +0.065 A 
BRANCH  23   2
ATOM      2  O   UNL     1      -2.031 -10.726  12.331  0.00  0.00    -0.490 OA
BRANCH   2  26
ATOM     26  C   UNL     1      -1.624  -9.799  13.337  0.00  0.00    +0.257 C 
BRANCH  26  27
ATOM     27  C   UNL     1      -1.371 -10.553  14.629  0.00  0.00    +0.200 C 
BRANCH  27   3
ATOM      3  O   UNL     1      -2.510 -10.424  15.472  0.00  0.00    -0.380 OA
ATOM     28  C   UNL     1      -2.191 -10.716  16.825  0.00  0.00    +0.194 C 
ENDBRANCH  27   3
ENDBRANCH  26  27
ENDBRANCH   2  26
ENDBRANCH  23   2
ENDBRANCH  20  21
BRANCH  18  10
ATOM      4  N   UNL     1      -8.563  -8.966  15.689  0.00  0.00    -0.288 NA
ATOM     10  C   UNL     1      -9.194  -9.715  14.584  0.00  0.00    +0.146 C 
ATOM     11  C   UNL     1      -9.651  -8.328  16.430  0.00  0.00    +0.085 C 
ATOM     14  C   UNL     1     -10.497  -8.951  14.287  0.00  0.00    +0.030 C 
ATOM     15  C   UNL     1     -10.542  -7.826  15.311  0.00  0.00    +0.017 C 
BRANCH   4   9
ATOM      5  N   UNL     1      -5.936 -10.050  18.849  0.00  0.00    -0.305 NA
ATOM      9  C   UNL     1      -7.727  -9.801  16.548  0.00  0.00    +0.060 C 
ATOM     12  C   UNL     1      -8.239  -9.757  17.990  0.00  0.00    +0.034 C 
ATOM     13  C   UNL     1      -6.265  -9.347  16.498  0.00  0.00    +0.034 C 
ATOM     16  C   UNL     1      -7.318 -10.546  18.924  0.00  0.00    +0.085 C 
ATOM     17  C   UNL     1      -5.409 -10.149  17.481  0.00  0.00    +0.085 C 
ATOM     19  C   UNL     1      -5.079 -10.780  19.782  0.00  0.00    +0.104 C 
ENDBRANCH   4   9
ENDBRANCH  18  10
TORSDOF 7
ENDMDL
MODEL 2
REMARK VINA RESULT:      -2.2      1.540      2.259
REMARK  Name = 45783447
REMARK  9 active torsions:
REMARK  status: ('A' for Active; 'I' for Inactive)
REMARK    1  A    between atoms: O_2  and  C_23
REMARK    2  A    between atoms: O_2  and  C_26
REMARK    3  A    between atoms: O_3  and  C_27
REMARK    4  A    between atoms: O_3  and  C_28
REMARK    5  A    between atoms: N_4  and  C_9
REMARK    6  A    between atoms: N_5  and  C_19
REMARK    7  A    between atoms: C_10  and  C_18
REMARK    8  A    between atoms: C_20  and  C_21
REMARK    9  A    between atoms: C_26  and  C_27
REMARK                            x       y       z     vdW  Elec       q    Type
REMARK                         _______ _______ _______ _____ _____    ______ ____
ROOT
ATOM      1  O   UNL     1      -7.128  -8.706  11.130  0.00  0.00    -0.336 OA
ATOM      6  N   UNL     1      -6.093 -10.303  12.311  0.00  0.00    -0.189 NA
ATOM      7  N   UNL     1      -5.757  -8.538  10.895  0.00  0.00    -0.054 NA
ATOM     18  C   UNL     1      -7.238  -9.766  11.973  0.00  0.00    +0.245 A 
ATOM     20  C   UNL     1      -5.214  -9.516  11.626  0.00  0.00    +0.221 A 
ENDROOT
BRANCH  20  21
ATOM      8  N   UNL     1      -3.120  -9.528  10.541  0.00  0.00    -0.252 NA
ATOM     21  C   UNL     1      -3.798  -9.734  11.693  0.00  0.00    +0.115 A 
ATOM     22  C   UNL     1      -3.206 -10.128  12.882  0.00  0.00    +0.077 A 
ATOM     23  C   UNL     1      -1.830 -10.324  12.890  0.00  0.00    +0.124 A 
ATOM     24  C   UNL     1      -1.784  -9.729  10.587  0.00  0.00    +0.115 A 
ATOM     25  C   UNL     1      -1.097 -10.123  11.726  0.00  0.00    +0.065 A 
BRANCH  23   2
ATOM      2  O   UNL     1      -1.201 -10.711  14.033  0.00  0.00    -0.490 OA
BRANCH   2  26
ATOM     26  C   UNL     1      -1.567 -10.036  15.237  0.00  0.00    +0.257 C 
BRANCH  26  27
ATOM     27  C   UNL     1      -2.714 -10.781  15.892  0.00  0.00    +0.200 C 
BRANCH  27   3
ATOM      3  O   UNL     1      -2.973 -10.204  17.166  0.00  0.00    -0.380 OA
ATOM     28  C   UNL     1      -4.121 -10.781  17.774  0.00  0.00    +0.194 C 
ENDBRANCH  27   3
ENDBRANCH  26  27
ENDBRANCH   2  26
ENDBRANCH  23   2
ENDBRANCH  20  21
BRANCH  18  10
ATOM      4  N   UNL     1      -9.075  -9.492  13.630  0.00  0.00    -0.288 NA
ATOM     10  C   UNL     1      -8.641 -10.158  12.385  0.00  0.00    +0.146 C 
ATOM     11  C   UNL     1     -10.529  -9.360  13.542  0.00  0.00    +0.085 C 
ATOM     14  C   UNL     1      -9.701  -9.763  11.340  0.00  0.00    +0.030 C 
ATOM     15  C   UNL     1     -10.720  -8.928  12.102  0.00  0.00    +0.017 C 
BRANCH   4   9
ATOM      5  N   UNL     1      -8.027 -10.155  17.694  0.00  0.00    -0.305 NA
ATOM      9  C   UNL     1      -8.659 -10.200  14.838  0.00  0.00    +0.060 C 
ATOM     12  C   UNL     1      -9.744 -10.098  15.913  0.00  0.00    +0.034 C 
ATOM     13  C   UNL     1      -7.338  -9.641  15.373  0.00  0.00    +0.034 C 
ATOM     16  C   UNL     1      -9.285 -10.749  17.220  0.00  0.00    +0.085 C 
ATOM     17  C   UNL     1      -6.957 -10.307  16.698  0.00  0.00    +0.085 C 
ATOM     19  C   UNL     1      -7.628 -10.752  18.968  0.00  0.00    +0.104 C 
ENDBRANCH   4   9
ENDBRANCH  18  10
TORSDOF 7
ENDMDL
MODEL 3
REMARK VINA RESULT:      -0.7     13.468     15.551
REMARK  Name = 45783447
REMARK  9 active torsions:
REMARK  status: ('A' for Active; 'I' for Inactive)
REMARK    1  A    between atoms: O_2  and  C_23
REMARK    2  A    between atoms: O_2  and  C_26
REMARK    3  A    between atoms: O_3  and  C_27
REMARK    4  A    between atoms: O_3  and  C_28
REMARK    5  A    between atoms: N_4  and  C_9
REMARK    6  A    between atoms: N_5  and  C_19
REMARK    7  A    between atoms: C_10  and  C_18
REMARK    8  A    between atoms: C_20  and  C_21
REMARK    9  A    between atoms: C_26  and  C_27
REMARK                            x       y       z     vdW  Elec       q    Type
REMARK                         _______ _______ _______ _____ _____    ______ ____
ROOT
ATOM      1  O   UNL     1      -1.630   3.134  24.688  0.00  0.00    -0.336 OA
ATOM      6  N   UNL     1      -1.602   1.280  23.431  0.00  0.00    -0.189 NA
ATOM      7  N   UNL     1      -0.284   2.884  24.393  0.00  0.00    -0.054 NA
ATOM     18  C   UNL     1      -2.338   2.144  24.084  0.00  0.00    +0.245 A 
ATOM     20  C   UNL     1      -0.349   1.775  23.650  0.00  0.00    +0.221 A 
ENDROOT
BRANCH  20  21
ATOM      8  N   UNL     1       0.586   0.048  22.343  0.00  0.00    -0.252 NA
ATOM     21  C   UNL     1       0.817   1.138  23.110  0.00  0.00    +0.115 A 
ATOM     22  C   UNL     1       2.078   1.642  23.382  0.00  0.00    +0.077 A 
ATOM     23  C   UNL     1       3.174   0.985  22.832  0.00  0.00    +0.124 A 
ATOM     24  C   UNL     1       1.675  -0.564  21.826  0.00  0.00    +0.115 A 
ATOM     25  C   UNL     1       2.977  -0.139  22.039  0.00  0.00    +0.065 A 
BRANCH  23   2
ATOM      2  O   UNL     1       4.434   1.441  23.070  0.00  0.00    -0.490 OA
BRANCH   2  26
ATOM     26  C   UNL     1       5.477   0.468  23.127  0.00  0.00    +0.257 C 
BRANCH  26  27
ATOM     27  C   UNL     1       5.702   0.069  24.573  0.00  0.00    +0.200 C 
BRANCH  27   3
ATOM      3  O   UNL     1       5.702  -1.350  24.668  0.00  0.00    -0.380 OA
ATOM     28  C   UNL     1       4.646  -1.922  23.909  0.00  0.00    +0.194 C 
ENDBRANCH  27   3
ENDBRANCH  26  27
ENDBRANCH   2  26
ENDBRANCH  23   2
ENDBRANCH  20  21
BRANCH  18  10
ATOM      4  N   UNL     1      -4.295   1.518  25.488  0.00  0.00    -0.288 NA
ATOM     10  C   UNL     1      -3.842   2.189  24.253  0.00  0.00    +0.146 C 
ATOM     11  C   UNL     1      -5.527   2.193  25.896  0.00  0.00    +0.085 C 
ATOM     14  C   UNL     1      -4.386   3.625  24.365  0.00  0.00    +0.030 C 
ATOM     15  C   UNL     1      -5.180   3.650  25.663  0.00  0.00    +0.017 C 
BRANCH   4   9
ATOM      5  N   UNL     1      -3.500  -2.499  24.354  0.00  0.00    -0.305 NA
ATOM      9  C   UNL     1      -4.484   0.079  25.327  0.00  0.00    +0.060 C 
ATOM     12  C   UNL     1      -3.362  -0.686  26.032  0.00  0.00    +0.034 C 
ATOM     13  C   UNL     1      -4.527  -0.305  23.845  0.00  0.00    +0.034 C 
ATOM     16  C   UNL     1      -3.488  -2.192  25.791  0.00  0.00    +0.085 C 
ATOM     17  C   UNL     1      -4.615  -1.824  23.675  0.00  0.00    +0.085 C 
ATOM     19  C   UNL     1      -3.571  -3.944  24.140  0.00  0.00    +0.104 C 
ENDBRANCH   4   9
ENDBRANCH  18  10
TORSDOF 7
ENDMDL
MODEL 4
REMARK VINA RESULT:      -0.3     13.541     15.652
REMARK  Name = 45783447
REMARK  9 active torsions:
REMARK  status: ('A' for Active; 'I' for Inactive)
REMARK    1  A    between atoms: O_2  and  C_23
REMARK    2  A    between atoms: O_2  and  C_26
REMARK    3  A    between atoms: O_3  and  C_27
REMARK    4  A    between atoms: O_3  and  C_28
REMARK    5  A    between atoms: N_4  and  C_9
REMARK    6  A    between atoms: N_5  and  C_19
REMARK    7  A    between atoms: C_10  and  C_18
REMARK    8  A    between atoms: C_20  and  C_21
REMARK    9  A    between atoms: C_26  and  C_27
REMARK                            x       y       z     vdW  Elec       q    Type
REMARK                         _______ _______ _______ _____ _____    ______ ____
ROOT
ATOM      1  O   UNL     1      -1.173   0.802  25.506  0.00  0.00    -0.336 OA
ATOM      6  N   UNL     1      -0.735  -0.578  23.796  0.00  0.00    -0.189 NA
ATOM      7  N   UNL     1       0.071   1.194  24.998  0.00  0.00    -0.054 NA
ATOM     18  C   UNL     1      -1.578  -0.247  24.742  0.00  0.00    +0.245 A 
ATOM     20  C   UNL     1       0.261   0.334  23.993  0.00  0.00    +0.221 A 
ENDROOT
BRANCH  20  21
ATOM      8  N   UNL     1       1.332  -0.297  21.988  0.00  0.00    -0.252 NA
ATOM     21  C   UNL     1       1.433   0.359  23.167  0.00  0.00    +0.115 A 
ATOM     22  C   UNL     1       2.572   1.025  23.588  0.00  0.00    +0.077 A 
ATOM     23  C   UNL     1       3.680   1.018  22.748  0.00  0.00    +0.124 A 
ATOM     24  C   UNL     1       2.429  -0.282  21.198  0.00  0.00    +0.115 A 
ATOM     25  C   UNL     1       3.615   0.354  21.528  0.00  0.00    +0.065 A 
BRANCH  23   2
ATOM      2  O   UNL     1       4.822   1.658  23.117  0.00  0.00    -0.490 OA
BRANCH   2  26
ATOM     26  C   UNL     1       5.673   0.985  24.045  0.00  0.00    +0.257 C 
BRANCH  26  27
ATOM     27  C   UNL     1       5.953  -0.415  23.533  0.00  0.00    +0.200 C 
BRANCH  27   3
ATOM      3  O   UNL     1       5.437  -1.360  24.462  0.00  0.00    -0.380 OA
ATOM     28  C   UNL     1       4.353  -2.095  23.910  0.00  0.00    +0.194 C 
ENDBRANCH  27   3
ENDBRANCH  26  27
ENDBRANCH   2  26
ENDBRANCH  23   2
ENDBRANCH  20  21
BRANCH  18  10
ATOM      4  N   UNL     1      -3.929  -0.659  24.036  0.00  0.00    -0.288 NA
ATOM     10  C   UNL     1      -2.916  -0.861  25.092  0.00  0.00    +0.146 C 
ATOM     11  C   UNL     1      -4.843  -1.798  24.116  0.00  0.00    +0.085 C 
ATOM     14  C   UNL     1      -2.841  -2.389  25.275  0.00  0.00    +0.030 C 
ATOM     15  C   UNL     1      -3.886  -2.955  24.325  0.00  0.00    +0.017 C 
BRANCH   4   9
ATOM      5  N   UNL     1      -4.872   3.263  25.371  0.00  0.00    -0.305 NA
ATOM      9  C   UNL     1      -4.630   0.617  24.145  0.00  0.00    +0.060 C 
ATOM     12  C   UNL     1      -3.690   1.772  23.789  0.00  0.00    +0.034 C 
ATOM     13  C   UNL     1      -5.189   0.815  25.557  0.00  0.00    +0.034 C 
ATOM     16  C   UNL     1      -4.378   3.123  23.994  0.00  0.00    +0.085 C 
ATOM     17  C   UNL     1      -5.829   2.198  25.704  0.00  0.00    +0.085 C 
ATOM     19  C   UNL     1      -5.482   4.578  25.565  0.00  0.00    +0.104 C 
ENDBRANCH   4   9
ENDBRANCH  18  10
TORSDOF 7
ENDMDL
