MODEL 1
REMARK VINA RESULT:      -3.7      0.000      0.000
REMARK  Name = 11912772
REMARK  5 active torsions:
REMARK  status: ('A' for Active; 'I' for Inactive)
REMARK    1  A    between atoms: O_3  and  C_14
REMARK    2  A    between atoms: O_3  and  C_23
REMARK    3  A    between atoms: N_7  and  C_13
REMARK    4  A    between atoms: N_8  and  C_17
REMARK    5  A    between atoms: C_25  and  C_28
REMARK                            x       y       z     vdW  Elec       q    Type
REMARK                         _______ _______ _______ _____ _____    ______ ____
ROOT
ATOM      1  O   UNL     1      -1.898   2.449  26.037  0.00  0.00    -0.368 OA
ATOM      2  O   UNL     1      -0.747   4.986  24.753  0.00  0.00    -0.368 OA
ATOM     11  C   UNL     1      -2.058   4.389  24.683  0.00  0.00    +0.173 C 
ATOM     12  C   UNL     1      -1.856   2.887  24.669  0.00  0.00    +0.192 C 
ATOM     13  C   UNL     1      -2.813   4.644  25.966  0.00  0.00    +0.130 C 
ATOM     14  C   UNL     1      -0.473   2.749  24.079  0.00  0.00    +0.235 C 
ATOM     15  C   UNL     1      -2.285   3.547  26.876  0.00  0.00    +0.185 C 
ATOM     16  C   UNL     1       0.242   3.950  24.657  0.00  0.00    +0.207 C 
ENDROOT
BRANCH  13   7
ATOM      7  N   UNL     1      -4.235   4.480  25.754  0.00  0.00    -0.306 N 
ATOM      9  N   UNL     1      -4.006   2.208  25.333  0.00  0.00    -0.214 NA
ATOM     10  N   UNL     1      -6.164   3.279  25.277  0.00  0.00    -0.223 NA
ATOM     24  C   UNL     1      -4.828   3.270  25.442  0.00  0.00    +0.216 A 
ATOM     25  C   UNL     1      -4.617   1.044  25.026  0.00  0.00    +0.076 A 
ATOM     26  C   UNL     1      -6.708   2.082  24.972  0.00  0.00    +0.116 A 
ATOM     27  C   UNL     1      -5.977   0.921  24.832  0.00  0.00    +0.048 A 
ATOM     35  H   UNL     1      -4.853   5.272  25.889  0.00  0.00    +0.149 HD
BRANCH  25  28
ATOM      5  O   UNL     1      -0.402  -1.307  25.831  0.00  0.00    -0.453 OA
ATOM      6  O   UNL     1      -1.150  -3.270  24.650  0.00  0.00    -0.453 OA
ATOM     28  C   UNL     1      -3.740  -0.096  24.910  0.00  0.00    +0.004 A 
ATOM     29  C   UNL     1      -2.467  -0.053  25.483  0.00  0.00    +0.059 A 
ATOM     30  C   UNL     1      -4.176  -1.241  24.221  0.00  0.00    +0.014 A 
ATOM     31  C   UNL     1      -1.665  -1.167  25.345  0.00  0.00    +0.167 A 
ATOM     32  C   UNL     1      -2.092  -2.288  24.670  0.00  0.00    +0.166 A 
ATOM     33  C   UNL     1      -3.344  -2.356  24.096  0.00  0.00    +0.050 A 
ATOM     34  C   UNL     1      -0.081  -2.641  25.388  0.00  0.00    +0.466 C 
ENDBRANCH  25  28
ENDBRANCH  13   7
BRANCH  14   3
ATOM      3  O   UNL     1       0.165   1.538  24.420  0.00  0.00    -0.442 OA
BRANCH   3  23
ATOM      4  O   UNL     1       0.164   0.140  22.598  0.00  0.00    -0.226 OA
ATOM      8  N   UNL     1       2.132   1.071  23.400  0.00  0.00    -0.278 N 
ATOM     23  C   UNL     1       0.771   0.849  23.394  0.00  0.00    +0.401 C 
ATOM     36  H   UNL     1       2.508   1.646  24.148  0.00  0.00    +0.152 HD
BRANCH   8  17
ATOM     17  C   UNL     1       3.045   0.484  22.445  0.00  0.00    +0.076 C 
ATOM     18  C   UNL     1       4.425   1.146  22.523  0.00  0.00    +0.022 C 
ATOM     19  C   UNL     1       3.145  -1.033  22.640  0.00  0.00    +0.022 C 
ATOM     20  C   UNL     1       5.186   0.765  23.793  0.00  0.00    +0.002 C 
ATOM     21  C   UNL     1       3.908  -1.411  23.909  0.00  0.00    +0.002 C 
ATOM     22  C   UNL     1       5.283  -0.748  23.959  0.00  0.00    +0.000 C 
ENDBRANCH   8  17
ENDBRANCH   3  23
ENDBRANCH  14   3
TORSDOF 5
ENDMDL
