MODEL 1
REMARK VINA RESULT:      -5.2      0.000      0.000
REMARK  Name = 56775704
REMARK  6 active torsions:
REMARK  status: ('A' for Active; 'I' for Inactive)
REMARK    1  A    between atoms: N_4  and  C_7
REMARK    2  A    between atoms: N_4  and  C_12
REMARK    3  A    between atoms: C_7  and  C_10
REMARK    4  A    between atoms: C_10  and  C_11
REMARK    5  A    between atoms: C_12  and  C_14
REMARK    6  A    between atoms: C_15  and  C_17
REMARK                            x       y       z     vdW  Elec       q    Type
REMARK                         _______ _______ _______ _____ _____    ______ ____
ROOT
ATOM      1  O   UNL     1      -5.560   4.160  25.262  0.00  0.00    -0.376 OA
ATOM      7  C   UNL     1      -3.753   3.024  25.221  0.00  0.00    +0.072 C 
ATOM      8  C   UNL     1      -5.007   3.106  26.083  0.00  0.00    +0.184 C 
ATOM      9  C   UNL     1      -4.358   4.199  24.461  0.00  0.00    +0.184 C 
ENDROOT
BRANCH   7   4
ATOM      4  N   UNL     1      -3.834   1.834  24.386  0.00  0.00    -0.300 NA
ATOM     24  H   UNL     1      -2.939   1.394  24.177  0.00  0.00    +0.123 HD
BRANCH   4  12
ATOM     12  C   UNL     1      -4.729   0.858  25.003  0.00  0.00    +0.156 C 
BRANCH  12  14
ATOM      3  O   UNL     1      -3.648  -1.109  25.949  0.00  0.00    -0.467 OA
ATOM     14  C   UNL     1      -4.216  -0.549  24.848  0.00  0.00    +0.119 A 
ATOM     16  C   UNL     1      -4.194  -1.432  23.792  0.00  0.00    +0.046 A 
ATOM     18  C   UNL     1      -3.574  -2.608  24.275  0.00  0.00    +0.041 A 
ATOM     19  C   UNL     1      -3.261  -2.361  25.591  0.00  0.00    +0.195 A 
ENDBRANCH  12  14
ENDBRANCH   4  12
ENDBRANCH   7   4
BRANCH   7  10
ATOM     10  C   UNL     1      -2.381   3.195  25.886  0.00  0.00    +0.085 C 
BRANCH  10  11
ATOM      2  O   UNL     1      -0.335   0.415  24.969  0.00  0.00    -0.353 OA
ATOM      5  N   UNL     1      -1.369   0.992  25.696  0.00  0.00    -0.083 NA
ATOM     11  C   UNL     1      -1.392   2.271  25.310  0.00  0.00    +0.086 A 
ATOM     13  C   UNL     1      -0.404   2.556  24.351  0.00  0.00    +0.077 A 
ATOM     15  C   UNL     1       0.231   1.355  24.172  0.00  0.00    +0.186 A 
BRANCH  15  17
ATOM      6  N   UNL     1       2.505   1.510  23.602  0.00  0.00    -0.252 NA
ATOM     17  C   UNL     1       1.324   0.903  23.352  0.00  0.00    +0.109 A 
ATOM     20  C   UNL     1       1.144  -0.080  22.391  0.00  0.00    +0.031 A 
ATOM     21  C   UNL     1       2.249  -0.463  21.638  0.00  0.00    +0.004 A 
ATOM     22  C   UNL     1       3.556   1.111  22.851  0.00  0.00    +0.111 A 
ATOM     23  C   UNL     1       3.482   0.138  21.867  0.00  0.00    +0.020 A 
ENDBRANCH  15  17
ENDBRANCH  10  11
ENDBRANCH   7  10
TORSDOF 6
ENDMDL
MODEL 2
REMARK VINA RESULT:      -4.8      1.566      1.964
REMARK  Name = 56775704
REMARK  6 active torsions:
REMARK  status: ('A' for Active; 'I' for Inactive)
REMARK    1  A    between atoms: N_4  and  C_7
REMARK    2  A    between atoms: N_4  and  C_12
REMARK    3  A    between atoms: C_7  and  C_10
REMARK    4  A    between atoms: C_10  and  C_11
REMARK    5  A    between atoms: C_12  and  C_14
REMARK    6  A    between atoms: C_15  and  C_17
REMARK                            x       y       z     vdW  Elec       q    Type
REMARK                         _______ _______ _______ _____ _____    ______ ____
ROOT
ATOM      1  O   UNL     1      -2.150   4.361  25.544  0.00  0.00    -0.376 OA
ATOM      7  C   UNL     1      -2.458   2.456  24.633  0.00  0.00    +0.072 C 
ATOM      8  C   UNL     1      -1.392   3.131  25.489  0.00  0.00    +0.184 C 
ATOM      9  C   UNL     1      -3.151   3.813  24.658  0.00  0.00    +0.184 C 
ENDROOT
BRANCH   7   4
ATOM      4  N   UNL     1      -3.211   1.528  25.466  0.00  0.00    -0.300 NA
ATOM     24  H   UNL     1      -3.666   1.950  26.275  0.00  0.00    +0.123 HD
BRANCH   4  12
ATOM     12  C   UNL     1      -4.202   0.828  24.654  0.00  0.00    +0.156 C 
BRANCH  12  14
ATOM      3  O   UNL     1      -3.370  -1.171  25.768  0.00  0.00    -0.467 OA
ATOM     14  C   UNL     1      -3.987  -0.662  24.668  0.00  0.00    +0.119 A 
ATOM     16  C   UNL     1      -4.290  -1.666  23.776  0.00  0.00    +0.046 A 
ATOM     18  C   UNL     1      -3.830  -2.867  24.365  0.00  0.00    +0.041 A 
ATOM     19  C   UNL     1      -3.279  -2.513  25.575  0.00  0.00    +0.195 A 
ENDBRANCH  12  14
ENDBRANCH   4  12
ENDBRANCH   7   4
BRANCH   7  10
ATOM     10  C   UNL     1      -2.053   1.852  23.282  0.00  0.00    +0.085 C 
BRANCH  10  11
ATOM      2  O   UNL     1       0.459  -0.644  23.749  0.00  0.00    -0.353 OA
ATOM      5  N   UNL     1      -0.865  -0.223  23.727  0.00  0.00    -0.083 NA
ATOM     11  C   UNL     1      -0.812   1.071  23.399  0.00  0.00    +0.086 A 
ATOM     13  C   UNL     1       0.507   1.517  23.204  0.00  0.00    +0.077 A 
ATOM     15  C   UNL     1       1.266   0.400  23.436  0.00  0.00    +0.186 A 
BRANCH  15  17
ATOM      6  N   UNL     1       3.459   1.168  23.088  0.00  0.00    -0.252 NA
ATOM     17  C   UNL     1       2.676   0.115  23.416  0.00  0.00    +0.109 A 
ATOM     20  C   UNL     1       3.160  -1.149  23.713  0.00  0.00    +0.031 A 
ATOM     21  C   UNL     1       4.536  -1.345  23.672  0.00  0.00    +0.004 A 
ATOM     22  C   UNL     1       4.791   0.939  23.060  0.00  0.00    +0.111 A 
ATOM     23  C   UNL     1       5.375  -0.286  23.341  0.00  0.00    +0.020 A 
ENDBRANCH  15  17
ENDBRANCH  10  11
ENDBRANCH   7  10
TORSDOF 6
ENDMDL
MODEL 3
REMARK VINA RESULT:      -4.7      1.816      5.914
REMARK  Name = 56775704
REMARK  6 active torsions:
REMARK  status: ('A' for Active; 'I' for Inactive)
REMARK    1  A    between atoms: N_4  and  C_7
REMARK    2  A    between atoms: N_4  and  C_12
REMARK    3  A    between atoms: C_7  and  C_10
REMARK    4  A    between atoms: C_10  and  C_11
REMARK    5  A    between atoms: C_12  and  C_14
REMARK    6  A    between atoms: C_15  and  C_17
REMARK                            x       y       z     vdW  Elec       q    Type
REMARK                         _______ _______ _______ _____ _____    ______ ____
ROOT
ATOM      1  O   UNL     1       2.047  -0.562  21.636  0.00  0.00    -0.376 OA
ATOM      7  C   UNL     1       1.222   0.437  23.332  0.00  0.00    +0.072 C 
ATOM      8  C   UNL     1       0.746  -0.020  21.957  0.00  0.00    +0.184 C 
ATOM      9  C   UNL     1       2.587  -0.072  22.884  0.00  0.00    +0.184 C 
ENDROOT
BRANCH   7   4
ATOM      4  N   UNL     1       0.690  -0.472  24.338  0.00  0.00    -0.300 NA
ATOM     24  H   UNL     1       0.324  -0.019  25.175  0.00  0.00    +0.123 HD
BRANCH   4  12
ATOM     12  C   UNL     1      -0.344  -1.316  23.744  0.00  0.00    +0.156 C 
BRANCH  12  14
ATOM      3  O   UNL     1      -2.553  -2.238  24.191  0.00  0.00    -0.467 OA
ATOM     14  C   UNL     1      -1.547  -1.443  24.641  0.00  0.00    +0.119 A 
ATOM     16  C   UNL     1      -1.866  -0.909  25.869  0.00  0.00    +0.046 A 
ATOM     18  C   UNL     1      -3.149  -1.408  26.193  0.00  0.00    +0.041 A 
ATOM     19  C   UNL     1      -3.523  -2.211  25.141  0.00  0.00    +0.195 A 
ENDBRANCH  12  14
ENDBRANCH   4  12
ENDBRANCH   7   4
BRANCH   7  10
ATOM     10  C   UNL     1       1.069   1.914  23.719  0.00  0.00    +0.085 C 
BRANCH  10  11
ATOM      2  O   UNL     1      -1.557   2.598  26.041  0.00  0.00    -0.353 OA
ATOM      5  N   UNL     1      -0.216   2.435  25.717  0.00  0.00    -0.083 NA
ATOM     11  C   UNL     1      -0.207   2.152  24.411  0.00  0.00    +0.086 A 
ATOM     13  C   UNL     1      -1.502   2.122  23.864  0.00  0.00    +0.077 A 
ATOM     15  C   UNL     1      -2.312   2.410  24.931  0.00  0.00    +0.186 A 
BRANCH  15  17
ATOM      6  N   UNL     1      -4.125   3.751  25.592  0.00  0.00    -0.252 NA
ATOM     17  C   UNL     1      -3.733   2.549  25.111  0.00  0.00    +0.109 A 
ATOM     20  C   UNL     1      -4.603   1.514  24.805  0.00  0.00    +0.031 A 
ATOM     21  C   UNL     1      -5.962   1.727  25.007  0.00  0.00    +0.004 A 
ATOM     22  C   UNL     1      -5.454   3.920  25.773  0.00  0.00    +0.111 A 
ATOM     23  C   UNL     1      -6.405   2.950  25.499  0.00  0.00    +0.020 A 
ENDBRANCH  15  17
ENDBRANCH  10  11
ENDBRANCH   7  10
TORSDOF 6
ENDMDL
MODEL 4
REMARK VINA RESULT:      -3.8      2.621      4.779
REMARK  Name = 56775704
REMARK  6 active torsions:
REMARK  status: ('A' for Active; 'I' for Inactive)
REMARK    1  A    between atoms: N_4  and  C_7
REMARK    2  A    between atoms: N_4  and  C_12
REMARK    3  A    between atoms: C_7  and  C_10
REMARK    4  A    between atoms: C_10  and  C_11
REMARK    5  A    between atoms: C_12  and  C_14
REMARK    6  A    between atoms: C_15  and  C_17
REMARK                            x       y       z     vdW  Elec       q    Type
REMARK                         _______ _______ _______ _____ _____    ______ ____
ROOT
ATOM      1  O   UNL     1      -6.442   4.260  26.087  0.00  0.00    -0.376 OA
ATOM      7  C   UNL     1      -4.513   4.265  25.174  0.00  0.00    +0.072 C 
ATOM      8  C   UNL     1      -5.642   5.260  25.417  0.00  0.00    +0.184 C 
ATOM      9  C   UNL     1      -5.453   3.245  25.806  0.00  0.00    +0.184 C 
ENDROOT
BRANCH   7   4
ATOM      4  N   UNL     1      -3.430   4.547  26.106  0.00  0.00    -0.300 NA
ATOM     24  H   UNL     1      -3.231   3.800  26.771  0.00  0.00    +0.123 HD
BRANCH   4  12
ATOM     12  C   UNL     1      -2.216   4.883  25.366  0.00  0.00    +0.156 C 
BRANCH  12  14
ATOM      3  O   UNL     1      -0.482   3.598  24.239  0.00  0.00    -0.467 OA
ATOM     14  C   UNL     1      -1.228   3.747  25.365  0.00  0.00    +0.119 A 
ATOM     16  C   UNL     1      -0.899   2.785  26.293  0.00  0.00    +0.046 A 
ATOM     18  C   UNL     1       0.113   1.996  25.699  0.00  0.00    +0.041 A 
ATOM     19  C   UNL     1       0.331   2.531  24.450  0.00  0.00    +0.195 A 
ENDBRANCH  12  14
ENDBRANCH   4  12
ENDBRANCH   7   4
BRANCH   7  10
ATOM     10  C   UNL     1      -4.021   4.035  23.738  0.00  0.00    +0.085 C 
BRANCH  10  11
ATOM      2  O   UNL     1      -2.674   0.936  22.579  0.00  0.00    -0.353 OA
ATOM      5  N   UNL     1      -2.898   2.302  22.454  0.00  0.00    -0.083 NA
ATOM     11  C   UNL     1      -3.602   2.639  23.538  0.00  0.00    +0.086 A 
ATOM     13  C   UNL     1      -3.850   1.537  24.376  0.00  0.00    +0.077 A 
ATOM     15  C   UNL     1      -3.246   0.493  23.727  0.00  0.00    +0.186 A 
BRANCH  15  17
ATOM      6  N   UNL     1      -1.844  -1.288  24.347  0.00  0.00    -0.252 NA
ATOM     17  C   UNL     1      -3.095  -0.913  23.997  0.00  0.00    +0.109 A 
ATOM     20  C   UNL     1      -4.167  -1.785  23.897  0.00  0.00    +0.031 A 
ATOM     21  C   UNL     1      -3.941  -3.128  24.174  0.00  0.00    +0.004 A 
ATOM     22  C   UNL     1      -1.663  -2.602  24.609  0.00  0.00    +0.111 A 
ATOM     23  C   UNL     1      -2.668  -3.553  24.538  0.00  0.00    +0.020 A 
ENDBRANCH  15  17
ENDBRANCH  10  11
ENDBRANCH   7  10
TORSDOF 6
ENDMDL
MODEL 5
REMARK VINA RESULT:      -3.5      1.588      3.922
REMARK  Name = 56775704
REMARK  6 active torsions:
REMARK  status: ('A' for Active; 'I' for Inactive)
REMARK    1  A    between atoms: N_4  and  C_7
REMARK    2  A    between atoms: N_4  and  C_12
REMARK    3  A    between atoms: C_7  and  C_10
REMARK    4  A    between atoms: C_10  and  C_11
REMARK    5  A    between atoms: C_12  and  C_14
REMARK    6  A    between atoms: C_15  and  C_17
REMARK                            x       y       z     vdW  Elec       q    Type
REMARK                         _______ _______ _______ _____ _____    ______ ____
ROOT
ATOM      1  O   UNL     1      -3.036  -2.428  25.048  0.00  0.00    -0.376 OA
ATOM      7  C   UNL     1      -3.239  -0.388  24.456  0.00  0.00    +0.072 C 
ATOM      8  C   UNL     1      -3.899  -1.722  24.128  0.00  0.00    +0.184 C 
ATOM      9  C   UNL     1      -2.306  -1.214  25.333  0.00  0.00    +0.184 C 
ENDROOT
BRANCH   7   4
ATOM      4  N   UNL     1      -4.133   0.379  25.313  0.00  0.00    -0.300 NA
ATOM     24  H   UNL     1      -3.714   0.712  26.181  0.00  0.00    +0.123 HD
BRANCH   4  12
ATOM     12  C   UNL     1      -4.683   1.509  24.568  0.00  0.00    +0.156 C 
BRANCH  12  14
ATOM      3  O   UNL     1      -3.421   2.911  26.107  0.00  0.00    -0.467 OA
ATOM     14  C   UNL     1      -3.941   2.786  24.857  0.00  0.00    +0.119 A 
ATOM     16  C   UNL     1      -3.660   3.903  24.104  0.00  0.00    +0.046 A 
ATOM     18  C   UNL     1      -2.920   4.768  24.943  0.00  0.00    +0.041 A 
ATOM     19  C   UNL     1      -2.802   4.119  26.151  0.00  0.00    +0.195 A 
ENDBRANCH  12  14
ENDBRANCH   4  12
ENDBRANCH   7   4
BRANCH   7  10
ATOM     10  C   UNL     1      -2.643   0.447  23.315  0.00  0.00    +0.085 C 
BRANCH  10  11
ATOM      2  O   UNL     1       0.627   1.578  24.199  0.00  0.00    -0.353 OA
ATOM      5  N   UNL     1      -0.758   1.685  24.224  0.00  0.00    -0.083 NA
ATOM     11  C   UNL     1      -1.199   0.650  23.504  0.00  0.00    +0.086 A 
ATOM     13  C   UNL     1      -0.146  -0.137  23.004  0.00  0.00    +0.077 A 
ATOM     15  C   UNL     1       0.979   0.490  23.471  0.00  0.00    +0.186 A 
BRANCH  15  17
ATOM      6  N   UNL     1       2.784  -0.988  23.747  0.00  0.00    -0.252 NA
ATOM     17  C   UNL     1       2.393   0.245  23.356  0.00  0.00    +0.109 A 
ATOM     20  C   UNL     1       3.256   1.219  22.879  0.00  0.00    +0.031 A 
ATOM     21  C   UNL     1       4.608   0.906  22.798  0.00  0.00    +0.004 A 
ATOM     22  C   UNL     1       4.106  -1.256  23.654  0.00  0.00    +0.111 A 
ATOM     23  C   UNL     1       5.050  -0.354  23.191  0.00  0.00    +0.020 A 
ENDBRANCH  15  17
ENDBRANCH  10  11
ENDBRANCH   7  10
TORSDOF 6
ENDMDL
MODEL 6
REMARK VINA RESULT:      -3.3      2.210      5.138
REMARK  Name = 56775704
REMARK  6 active torsions:
REMARK  status: ('A' for Active; 'I' for Inactive)
REMARK    1  A    between atoms: N_4  and  C_7
REMARK    2  A    between atoms: N_4  and  C_12
REMARK    3  A    between atoms: C_7  and  C_10
REMARK    4  A    between atoms: C_10  and  C_11
REMARK    5  A    between atoms: C_12  and  C_14
REMARK    6  A    between atoms: C_15  and  C_17
REMARK                            x       y       z     vdW  Elec       q    Type
REMARK                         _______ _______ _______ _____ _____    ______ ____
ROOT
ATOM      1  O   UNL     1      -0.594   5.842  24.530  0.00  0.00    -0.376 OA
ATOM      7  C   UNL     1      -2.059   4.340  24.922  0.00  0.00    +0.072 C 
ATOM      8  C   UNL     1      -0.869   4.530  23.989  0.00  0.00    +0.184 C 
ATOM      9  C   UNL     1      -1.765   5.766  25.375  0.00  0.00    +0.184 C 
ENDROOT
BRANCH   7   4
ATOM      4  N   UNL     1      -1.678   3.422  25.987  0.00  0.00    -0.300 NA
ATOM     24  H   UNL     1      -2.298   2.622  26.105  0.00  0.00    +0.123 HD
BRANCH   4  12
ATOM     12  C   UNL     1      -0.310   2.957  25.772  0.00  0.00    +0.156 C 
BRANCH  12  14
ATOM      3  O   UNL     1       0.269   1.362  24.026  0.00  0.00    -0.467 OA
ATOM     14  C   UNL     1      -0.274   1.542  25.259  0.00  0.00    +0.119 A 
ATOM     16  C   UNL     1      -0.685   0.339  25.786  0.00  0.00    +0.046 A 
ATOM     18  C   UNL     1      -0.376  -0.642  24.815  0.00  0.00    +0.041 A 
ATOM     19  C   UNL     1       0.202   0.031  23.763  0.00  0.00    +0.195 A 
ENDBRANCH  12  14
ENDBRANCH   4  12
ENDBRANCH   7   4
BRANCH   7  10
ATOM     10  C   UNL     1      -3.433   4.019  24.319  0.00  0.00    +0.085 C 
BRANCH  10  11
ATOM      2  O   UNL     1      -4.911   0.967  25.439  0.00  0.00    -0.353 OA
ATOM      5  N   UNL     1      -4.819   2.353  25.422  0.00  0.00    -0.083 NA
ATOM     11  C   UNL     1      -3.816   2.624  24.583  0.00  0.00    +0.086 A 
ATOM     13  C   UNL     1      -3.242   1.458  24.045  0.00  0.00    +0.077 A 
ATOM     15  C   UNL     1      -3.968   0.445  24.615  0.00  0.00    +0.186 A 
BRANCH  15  17
ATOM      6  N   UNL     1      -4.416  -1.492  23.364  0.00  0.00    -0.252 NA
ATOM     17  C   UNL     1      -3.941  -0.991  24.526  0.00  0.00    +0.109 A 
ATOM     20  C   UNL     1      -3.461  -1.768  25.568  0.00  0.00    +0.031 A 
ATOM     21  C   UNL     1      -3.468  -3.149  25.405  0.00  0.00    +0.004 A 
ATOM     22  C   UNL     1      -4.407  -2.838  23.242  0.00  0.00    +0.111 A 
ATOM     23  C   UNL     1      -3.948  -3.703  24.223  0.00  0.00    +0.020 A 
ENDBRANCH  15  17
ENDBRANCH  10  11
ENDBRANCH   7  10
TORSDOF 6
ENDMDL
MODEL 7
REMARK VINA RESULT:      -3.3      2.048      3.745
REMARK  Name = 56775704
REMARK  6 active torsions:
REMARK  status: ('A' for Active; 'I' for Inactive)
REMARK    1  A    between atoms: N_4  and  C_7
REMARK    2  A    between atoms: N_4  and  C_12
REMARK    3  A    between atoms: C_7  and  C_10
REMARK    4  A    between atoms: C_10  and  C_11
REMARK    5  A    between atoms: C_12  and  C_14
REMARK    6  A    between atoms: C_15  and  C_17
REMARK                            x       y       z     vdW  Elec       q    Type
REMARK                         _______ _______ _______ _____ _____    ______ ____
ROOT
ATOM      1  O   UNL     1      -7.141   2.004  25.822  0.00  0.00    -0.376 OA
ATOM      7  C   UNL     1      -5.120   1.628  25.249  0.00  0.00    +0.072 C 
ATOM      8  C   UNL     1      -6.499   1.574  24.601  0.00  0.00    +0.184 C 
ATOM      9  C   UNL     1      -5.877   1.986  26.523  0.00  0.00    +0.184 C 
ENDROOT
BRANCH   7   4
ATOM      4  N   UNL     1      -4.423   2.813  24.769  0.00  0.00    -0.300 NA
ATOM     24  H   UNL     1      -4.997   3.462  24.232  0.00  0.00    +0.123 HD
BRANCH   4  12
ATOM     12  C   UNL     1      -3.809   3.515  25.894  0.00  0.00    +0.156 C 
BRANCH  12  14
ATOM      3  O   UNL     1      -1.401   3.160  25.927  0.00  0.00    -0.467 OA
ATOM     14  C   UNL     1      -2.418   3.987  25.568  0.00  0.00    +0.119 A 
ATOM     16  C   UNL     1      -1.926   5.120  24.959  0.00  0.00    +0.046 A 
ATOM     18  C   UNL     1      -0.519   4.979  24.943  0.00  0.00    +0.041 A 
ATOM     19  C   UNL     1      -0.249   3.771  25.544  0.00  0.00    +0.195 A 
ENDBRANCH  12  14
ENDBRANCH   4  12
ENDBRANCH   7   4
BRANCH   7  10
ATOM     10  C   UNL     1      -4.241   0.371  25.234  0.00  0.00    +0.085 C 
BRANCH  10  11
ATOM      2  O   UNL     1      -1.831   1.228  22.741  0.00  0.00    -0.353 OA
ATOM      5  N   UNL     1      -3.127   1.212  23.243  0.00  0.00    -0.083 NA
ATOM     11  C   UNL     1      -3.037   0.573  24.413  0.00  0.00    +0.086 A 
ATOM     13  C   UNL     1      -1.722   0.167  24.699  0.00  0.00    +0.077 A 
ATOM     15  C   UNL     1      -1.004   0.603  23.617  0.00  0.00    +0.186 A 
BRANCH  15  17
ATOM      6  N   UNL     1       0.660  -0.367  22.271  0.00  0.00    -0.252 NA
ATOM     17  C   UNL     1       0.381   0.542  23.233  0.00  0.00    +0.109 A 
ATOM     20  C   UNL     1       1.329   1.363  23.821  0.00  0.00    +0.031 A 
ATOM     21  C   UNL     1       2.647   1.244  23.396  0.00  0.00    +0.004 A 
ATOM     22  C   UNL     1       1.952  -0.454  21.883  0.00  0.00    +0.111 A 
ATOM     23  C   UNL     1       2.974   0.321  22.408  0.00  0.00    +0.020 A 
ENDBRANCH  15  17
ENDBRANCH  10  11
ENDBRANCH   7  10
TORSDOF 6
ENDMDL
MODEL 8
REMARK VINA RESULT:      -2.9      2.538      5.047
REMARK  Name = 56775704
REMARK  6 active torsions:
REMARK  status: ('A' for Active; 'I' for Inactive)
REMARK    1  A    between atoms: N_4  and  C_7
REMARK    2  A    between atoms: N_4  and  C_12
REMARK    3  A    between atoms: C_7  and  C_10
REMARK    4  A    between atoms: C_10  and  C_11
REMARK    5  A    between atoms: C_12  and  C_14
REMARK    6  A    between atoms: C_15  and  C_17
REMARK                            x       y       z     vdW  Elec       q    Type
REMARK                         _______ _______ _______ _____ _____    ______ ____
ROOT
ATOM      1  O   UNL     1      -3.898  -3.751  24.262  0.00  0.00    -0.376 OA
ATOM      7  C   UNL     1      -2.742  -2.126  25.023  0.00  0.00    +0.072 C 
ATOM      8  C   UNL     1      -3.328  -2.555  23.683  0.00  0.00    +0.184 C 
ATOM      9  C   UNL     1      -3.291  -3.451  25.539  0.00  0.00    +0.184 C 
ENDROOT
BRANCH   7   4
ATOM      4  N   UNL     1      -3.550  -1.042  25.563  0.00  0.00    -0.300 NA
ATOM     24  H   UNL     1      -3.020  -0.269  25.964  0.00  0.00    +0.123 HD
BRANCH   4  12
ATOM     12  C   UNL     1      -4.451  -0.536  24.531  0.00  0.00    +0.156 C 
BRANCH  12  14
ATOM      3  O   UNL     1      -4.277   1.801  23.869  0.00  0.00    -0.467 OA
ATOM     14  C   UNL     1      -4.801   0.912  24.753  0.00  0.00    +0.119 A 
ATOM     16  C   UNL     1      -5.568   1.561  25.694  0.00  0.00    +0.046 A 
ATOM     18  C   UNL     1      -5.511   2.936  25.367  0.00  0.00    +0.041 A 
ATOM     19  C   UNL     1      -4.714   3.030  24.249  0.00  0.00    +0.195 A 
ENDBRANCH  12  14
ENDBRANCH   4  12
ENDBRANCH   7   4
BRANCH   7  10
ATOM     10  C   UNL     1      -1.235  -1.856  25.123  0.00  0.00    +0.085 C 
BRANCH  10  11
ATOM      2  O   UNL     1       0.066   1.242  23.911  0.00  0.00    -0.353 OA
ATOM      5  N   UNL     1       0.041  -0.147  23.956  0.00  0.00    -0.083 NA
ATOM     11  C   UNL     1      -0.927  -0.449  24.825  0.00  0.00    +0.086 A 
ATOM     13  C   UNL     1      -1.543   0.699  25.356  0.00  0.00    +0.077 A 
ATOM     15  C   UNL     1      -0.881   1.733  24.749  0.00  0.00    +0.186 A 
BRANCH  15  17
ATOM      6  N   UNL     1      -1.935   3.633  25.644  0.00  0.00    -0.252 NA
ATOM     17  C   UNL     1      -0.979   3.168  24.809  0.00  0.00    +0.109 A 
ATOM     20  C   UNL     1      -0.143   3.979  24.057  0.00  0.00    +0.031 A 
ATOM     21  C   UNL     1      -0.299   5.356  24.170  0.00  0.00    +0.004 A 
ATOM     22  C   UNL     1      -2.056   4.977  25.728  0.00  0.00    +0.111 A 
ATOM     23  C   UNL     1      -1.271   5.873  25.020  0.00  0.00    +0.020 A 
ENDBRANCH  15  17
ENDBRANCH  10  11
ENDBRANCH   7  10
TORSDOF 6
ENDMDL
MODEL 9
REMARK VINA RESULT:      -2.9      2.194      7.112
REMARK  Name = 56775704
REMARK  6 active torsions:
REMARK  status: ('A' for Active; 'I' for Inactive)
REMARK    1  A    between atoms: N_4  and  C_7
REMARK    2  A    between atoms: N_4  and  C_12
REMARK    3  A    between atoms: C_7  and  C_10
REMARK    4  A    between atoms: C_10  and  C_11
REMARK    5  A    between atoms: C_12  and  C_14
REMARK    6  A    between atoms: C_15  and  C_17
REMARK                            x       y       z     vdW  Elec       q    Type
REMARK                         _______ _______ _______ _____ _____    ______ ____
ROOT
ATOM      1  O   UNL     1      -0.743  -1.627  24.066  0.00  0.00    -0.376 OA
ATOM      7  C   UNL     1       0.635  -0.102  23.493  0.00  0.00    +0.072 C 
ATOM      8  C   UNL     1       0.535  -1.176  24.570  0.00  0.00    +0.184 C 
ATOM      9  C   UNL     1      -0.755  -0.571  23.080  0.00  0.00    +0.184 C 
ENDROOT
BRANCH   7   4
ATOM      4  N   UNL     1       1.594  -0.534  22.486  0.00  0.00    -0.300 NA
ATOM     24  H   UNL     1       1.194  -0.736  21.571  0.00  0.00    +0.123 HD
BRANCH   4  12
ATOM     12  C   UNL     1       2.652   0.464  22.351  0.00  0.00    +0.156 C 
BRANCH  12  14
ATOM      3  O   UNL     1       3.953  -1.240  23.505  0.00  0.00    -0.467 OA
ATOM     14  C   UNL     1       3.913   0.042  23.057  0.00  0.00    +0.119 A 
ATOM     16  C   UNL     1       5.085   0.697  23.362  0.00  0.00    +0.046 A 
ATOM     18  C   UNL     1       5.896  -0.243  24.039  0.00  0.00    +0.041 A 
ATOM     19  C   UNL     1       5.163  -1.406  24.101  0.00  0.00    +0.195 A 
ENDBRANCH  12  14
ENDBRANCH   4  12
ENDBRANCH   7   4
BRANCH   7  10
ATOM     10  C   UNL     1       0.832   1.360  23.917  0.00  0.00    +0.085 C 
BRANCH  10  11
ATOM      2  O   UNL     1      -1.641   3.105  25.814  0.00  0.00    -0.353 OA
ATOM      5  N   UNL     1      -0.322   2.797  25.504  0.00  0.00    -0.083 NA
ATOM     11  C   UNL     1      -0.398   1.913  24.505  0.00  0.00    +0.086 A 
ATOM     13  C   UNL     1      -1.727   1.628  24.146  0.00  0.00    +0.077 A 
ATOM     15  C   UNL     1      -2.468   2.403  24.999  0.00  0.00    +0.186 A 
BRANCH  15  17
ATOM      6  N   UNL     1      -4.208   3.889  25.535  0.00  0.00    -0.252 NA
ATOM     17  C   UNL     1      -3.876   2.621  25.201  0.00  0.00    +0.109 A 
ATOM     20  C   UNL     1      -4.792   1.592  25.056  0.00  0.00    +0.031 A 
ATOM     21  C   UNL     1      -6.135   1.882  25.268  0.00  0.00    +0.004 A 
ATOM     22  C   UNL     1      -5.523   4.132  25.732  0.00  0.00    +0.111 A 
ATOM     23  C   UNL     1      -6.517   3.174  25.612  0.00  0.00    +0.020 A 
ENDBRANCH  15  17
ENDBRANCH  10  11
ENDBRANCH   7  10
TORSDOF 6
ENDMDL
MODEL 10
REMARK VINA RESULT:      -2.0      2.022      6.636
REMARK  Name = 56775704
REMARK  6 active torsions:
REMARK  status: ('A' for Active; 'I' for Inactive)
REMARK    1  A    between atoms: N_4  and  C_7
REMARK    2  A    between atoms: N_4  and  C_12
REMARK    3  A    between atoms: C_7  and  C_10
REMARK    4  A    between atoms: C_10  and  C_11
REMARK    5  A    between atoms: C_12  and  C_14
REMARK    6  A    between atoms: C_15  and  C_17
REMARK                            x       y       z     vdW  Elec       q    Type
REMARK                         _______ _______ _______ _____ _____    ______ ____
ROOT
ATOM      1  O   UNL     1       2.531  -0.195  21.854  0.00  0.00    -0.376 OA
ATOM      7  C   UNL     1       1.075  -0.216  23.414  0.00  0.00    +0.072 C 
ATOM      8  C   UNL     1       2.527  -0.641  23.229  0.00  0.00    +0.184 C 
ATOM      9  C   UNL     1       1.128   0.143  21.934  0.00  0.00    +0.184 C 
ENDROOT
BRANCH   7   4
ATOM      4  N   UNL     1       1.042   1.013  24.195  0.00  0.00    -0.300 NA
ATOM     24  H   UNL     1       1.945   1.315  24.558  0.00  0.00    +0.123 HD
BRANCH   4  12
ATOM     12  C   UNL     1       0.447   2.086  23.401  0.00  0.00    +0.156 C 
BRANCH  12  14
ATOM      3  O   UNL     1      -0.510   2.721  25.548  0.00  0.00    -0.467 OA
ATOM     14  C   UNL     1      -0.260   3.095  24.265  0.00  0.00    +0.119 A 
ATOM     16  C   UNL     1      -0.729   4.368  24.033  0.00  0.00    +0.046 A 
ATOM     18  C   UNL     1      -1.303   4.804  25.251  0.00  0.00    +0.041 A 
ATOM     19  C   UNL     1      -1.144   3.766  26.140  0.00  0.00    +0.195 A 
ENDBRANCH  12  14
ENDBRANCH   4  12
ENDBRANCH   7   4
BRANCH   7  10
ATOM     10  C   UNL     1       0.052  -1.255  23.892  0.00  0.00    +0.085 C 
BRANCH  10  11
ATOM      2  O   UNL     1      -2.434  -0.014  26.137  0.00  0.00    -0.353 OA
ATOM      5  N   UNL     1      -1.278  -0.735  25.860  0.00  0.00    -0.083 NA
ATOM     11  C   UNL     1      -1.098  -0.608  24.543  0.00  0.00    +0.086 A 
ATOM     13  C   UNL     1      -2.100   0.174  23.940  0.00  0.00    +0.077 A 
ATOM     15  C   UNL     1      -2.913   0.522  24.986  0.00  0.00    +0.186 A 
BRANCH  15  17
ATOM      6  N   UNL     1      -3.908   2.621  25.340  0.00  0.00    -0.252 NA
ATOM     17  C   UNL     1      -4.114   1.304  25.115  0.00  0.00    +0.109 A 
ATOM     20  C   UNL     1      -5.367   0.722  25.010  0.00  0.00    +0.031 A 
ATOM     21  C   UNL     1      -6.480   1.545  25.145  0.00  0.00    +0.004 A 
ATOM     22  C   UNL     1      -5.013   3.389  25.466  0.00  0.00    +0.111 A 
ATOM     23  C   UNL     1      -6.309   2.905  25.377  0.00  0.00    +0.020 A 
ENDBRANCH  15  17
ENDBRANCH  10  11
ENDBRANCH   7  10
TORSDOF 6
ENDMDL
