MODEL 1
REMARK VINA RESULT:      -4.7      0.000      0.000
REMARK  Name = 75367823
REMARK  5 active torsions:
REMARK  status: ('A' for Active; 'I' for Inactive)
REMARK    1  A    between atoms: O_1  and  C_5
REMARK    2  A    between atoms: O_1  and  C_10
REMARK    3  A    between atoms: O_3  and  C_11
REMARK    4  A    between atoms: O_3  and  C_12
REMARK    5  A    between atoms: C_10  and  C_11
REMARK                            x       y       z     vdW  Elec       q    Type
REMARK                         _______ _______ _______ _____ _____    ______ ____
ROOT
ATOM      2  O   UNL     1      -0.921  -0.174  24.334  0.00  0.00    -0.376 OA
ATOM      4  N   UNL     1      -3.391  -1.798  25.346  0.00  0.00    -0.311 NA
ATOM      5  C   UNL     1      -3.258   0.423  24.060  0.00  0.00    +0.158 C 
ATOM      6  C   UNL     1      -4.086  -0.639  24.794  0.00  0.00    +0.114 C 
ATOM      7  C   UNL     1      -1.929   0.750  24.733  0.00  0.00    +0.192 C 
ATOM      8  C   UNL     1      -2.233  -2.244  24.584  0.00  0.00    +0.109 C 
ATOM      9  C   UNL     1      -0.996  -1.441  24.976  0.00  0.00    +0.175 C 
ATOM     13  H   UNL     1      -4.056  -2.563  25.449  0.00  0.00    +0.122 HD
ENDROOT
BRANCH   5   1
ATOM      1  O   UNL     1      -4.056   1.606  24.000  0.00  0.00    -0.371 OA
BRANCH   1  10
ATOM     10  C   UNL     1      -4.956   1.676  25.094  0.00  0.00    +0.188 C 
BRANCH  10  11
ATOM     11  C   UNL     1      -5.000   3.103  25.606  0.00  0.00    +0.187 C 
BRANCH  11   3
ATOM      3  O   UNL     1      -3.883   3.816  25.091  0.00  0.00    -0.381 OA
ATOM     12  C   UNL     1      -2.930   4.096  26.106  0.00  0.00    +0.194 C 
ENDBRANCH  11   3
ENDBRANCH  10  11
ENDBRANCH   1  10
ENDBRANCH   5   1
TORSDOF 4
ENDMDL
MODEL 2
REMARK VINA RESULT:      -4.7      2.071      4.674
REMARK  Name = 75367823
REMARK  5 active torsions:
REMARK  status: ('A' for Active; 'I' for Inactive)
REMARK    1  A    between atoms: O_1  and  C_5
REMARK    2  A    between atoms: O_1  and  C_10
REMARK    3  A    between atoms: O_3  and  C_11
REMARK    4  A    between atoms: O_3  and  C_12
REMARK    5  A    between atoms: C_10  and  C_11
REMARK                            x       y       z     vdW  Elec       q    Type
REMARK                         _______ _______ _______ _____ _____    ______ ____
ROOT
ATOM      2  O   UNL     1      -2.762   2.685  24.288  0.00  0.00    -0.376 OA
ATOM      4  N   UNL     1      -5.685   2.918  25.364  0.00  0.00    -0.311 NA
ATOM      5  C   UNL     1      -4.194   0.858  24.999  0.00  0.00    +0.158 C 
ATOM      6  C   UNL     1      -5.555   1.465  25.363  0.00  0.00    +0.114 C 
ATOM      7  C   UNL     1      -3.496   1.551  23.833  0.00  0.00    +0.192 C 
ATOM      8  C   UNL     1      -4.487   3.646  25.759  0.00  0.00    +0.109 C 
ATOM      9  C   UNL     1      -3.557   3.830  24.563  0.00  0.00    +0.175 C 
ATOM     13  H   UNL     1      -6.466   3.180  25.965  0.00  0.00    +0.122 HD
ENDROOT
BRANCH   5   1
ATOM      1  O   UNL     1      -4.425  -0.510  24.659  0.00  0.00    -0.371 OA
BRANCH   1  10
ATOM     10  C   UNL     1      -3.563  -1.373  25.382  0.00  0.00    +0.188 C 
BRANCH  10  11
ATOM     11  C   UNL     1      -3.215  -2.566  24.513  0.00  0.00    +0.187 C 
BRANCH  11   3
ATOM      3  O   UNL     1      -1.815  -2.565  24.263  0.00  0.00    -0.381 OA
ATOM     12  C   UNL     1      -1.157  -1.535  24.988  0.00  0.00    +0.194 C 
ENDBRANCH  11   3
ENDBRANCH  10  11
ENDBRANCH   1  10
ENDBRANCH   5   1
TORSDOF 4
ENDMDL
MODEL 3
REMARK VINA RESULT:      -4.7      1.732      2.433
REMARK  Name = 75367823
REMARK  5 active torsions:
REMARK  status: ('A' for Active; 'I' for Inactive)
REMARK    1  A    between atoms: O_1  and  C_5
REMARK    2  A    between atoms: O_1  and  C_10
REMARK    3  A    between atoms: O_3  and  C_11
REMARK    4  A    between atoms: O_3  and  C_12
REMARK    5  A    between atoms: C_10  and  C_11
REMARK                            x       y       z     vdW  Elec       q    Type
REMARK                         _______ _______ _______ _____ _____    ______ ____
ROOT
ATOM      2  O   UNL     1      -3.024  -1.055  24.913  0.00  0.00    -0.376 OA
ATOM      4  N   UNL     1      -0.016  -0.423  24.357  0.00  0.00    -0.311 NA
ATOM      5  C   UNL     1      -1.960   1.125  25.008  0.00  0.00    +0.158 C 
ATOM      6  C   UNL     1      -0.500   0.935  24.578  0.00  0.00    +0.114 C 
ATOM      7  C   UNL     1      -2.946   0.218  24.279  0.00  0.00    +0.192 C 
ATOM      8  C   UNL     1      -0.610  -1.439  25.215  0.00  0.00    +0.109 C 
ATOM      9  C   UNL     1      -1.934  -1.922  24.630  0.00  0.00    +0.175 C 
ATOM     13  H   UNL     1       0.999  -0.433  24.457  0.00  0.00    +0.122 HD
ENDROOT
BRANCH   5   1
ATOM      1  O   UNL     1      -2.298   2.488  24.749  0.00  0.00    -0.371 OA
BRANCH   1  10
ATOM     10  C   UNL     1      -3.693   2.645  24.550  0.00  0.00    +0.188 C 
BRANCH  10  11
ATOM     11  C   UNL     1      -4.241   3.588  25.603  0.00  0.00    +0.187 C 
BRANCH  11   3
ATOM      3  O   UNL     1      -5.461   3.061  26.108  0.00  0.00    -0.381 OA
ATOM     12  C   UNL     1      -5.959   2.017  25.283  0.00  0.00    +0.194 C 
ENDBRANCH  11   3
ENDBRANCH  10  11
ENDBRANCH   1  10
ENDBRANCH   5   1
TORSDOF 4
ENDMDL
MODEL 4
REMARK VINA RESULT:      -4.6      2.105      4.844
REMARK  Name = 75367823
REMARK  5 active torsions:
REMARK  status: ('A' for Active; 'I' for Inactive)
REMARK    1  A    between atoms: O_1  and  C_5
REMARK    2  A    between atoms: O_1  and  C_10
REMARK    3  A    between atoms: O_3  and  C_11
REMARK    4  A    between atoms: O_3  and  C_12
REMARK    5  A    between atoms: C_10  and  C_11
REMARK                            x       y       z     vdW  Elec       q    Type
REMARK                         _______ _______ _______ _____ _____    ______ ____
ROOT
ATOM      2  O   UNL     1      -5.291   1.379  24.677  0.00  0.00    -0.376 OA
ATOM      4  N   UNL     1      -3.579   3.741  25.795  0.00  0.00    -0.311 NA
ATOM      5  C   UNL     1      -3.143   2.137  23.836  0.00  0.00    +0.158 C 
ATOM      6  C   UNL     1      -2.667   3.264  24.761  0.00  0.00    +0.114 C 
ATOM      7  C   UNL     1      -3.915   1.032  24.549  0.00  0.00    +0.192 C 
ATOM      8  C   UNL     1      -4.991   3.702  25.440  0.00  0.00    +0.109 C 
ATOM      9  C   UNL     1      -5.569   2.315  25.710  0.00  0.00    +0.175 C 
ATOM     13  H   UNL     1      -3.312   4.689  26.059  0.00  0.00    +0.122 HD
ENDROOT
BRANCH   5   1
ATOM      1  O   UNL     1      -1.978   1.577  23.228  0.00  0.00    -0.371 OA
BRANCH   1  10
ATOM     10  C   UNL     1      -0.909   1.479  24.155  0.00  0.00    +0.188 C 
BRANCH  10  11
ATOM     11  C   UNL     1      -0.282   0.103  24.042  0.00  0.00    +0.187 C 
BRANCH  11   3
ATOM      3  O   UNL     1      -0.725  -0.700  25.129  0.00  0.00    -0.381 OA
ATOM     12  C   UNL     1      -1.469  -1.823  24.677  0.00  0.00    +0.194 C 
ENDBRANCH  11   3
ENDBRANCH  10  11
ENDBRANCH   1  10
ENDBRANCH   5   1
TORSDOF 4
ENDMDL
MODEL 5
REMARK VINA RESULT:      -4.5      1.578      2.722
REMARK  Name = 75367823
REMARK  5 active torsions:
REMARK  status: ('A' for Active; 'I' for Inactive)
REMARK    1  A    between atoms: O_1  and  C_5
REMARK    2  A    between atoms: O_1  and  C_10
REMARK    3  A    between atoms: O_3  and  C_11
REMARK    4  A    between atoms: O_3  and  C_12
REMARK    5  A    between atoms: C_10  and  C_11
REMARK                            x       y       z     vdW  Elec       q    Type
REMARK                         _______ _______ _______ _____ _____    ______ ____
ROOT
ATOM      2  O   UNL     1      -4.215  -0.337  24.382  0.00  0.00    -0.376 OA
ATOM      4  N   UNL     1      -1.918  -2.455  24.395  0.00  0.00    -0.311 NA
ATOM      5  C   UNL     1      -1.993  -0.058  25.319  0.00  0.00    +0.158 C 
ATOM      6  C   UNL     1      -1.207  -1.338  25.008  0.00  0.00    +0.114 C 
ATOM      7  C   UNL     1      -2.976   0.348  24.226  0.00  0.00    +0.192 C 
ATOM      8  C   UNL     1      -3.313  -2.592  24.793  0.00  0.00    +0.109 C 
ATOM      9  C   UNL     1      -4.201  -1.689  23.941  0.00  0.00    +0.175 C 
ATOM     13  H   UNL     1      -1.413  -3.317  24.594  0.00  0.00    +0.122 HD
ENDROOT
BRANCH   5   1
ATOM      1  O   UNL     1      -1.036   0.986  25.500  0.00  0.00    -0.371 OA
BRANCH   1  10
ATOM     10  C   UNL     1      -1.041   1.885  24.402  0.00  0.00    +0.188 C 
BRANCH  10  11
ATOM     11  C   UNL     1      -0.900   3.302  24.923  0.00  0.00    +0.187 C 
BRANCH  11   3
ATOM      3  O   UNL     1      -2.152   3.966  24.803  0.00  0.00    -0.381 OA
ATOM     12  C   UNL     1      -2.826   4.036  26.052  0.00  0.00    +0.194 C 
ENDBRANCH  11   3
ENDBRANCH  10  11
ENDBRANCH   1  10
ENDBRANCH   5   1
TORSDOF 4
ENDMDL
MODEL 6
REMARK VINA RESULT:      -4.5      1.906      4.603
REMARK  Name = 75367823
REMARK  5 active torsions:
REMARK  status: ('A' for Active; 'I' for Inactive)
REMARK    1  A    between atoms: O_1  and  C_5
REMARK    2  A    between atoms: O_1  and  C_10
REMARK    3  A    between atoms: O_3  and  C_11
REMARK    4  A    between atoms: O_3  and  C_12
REMARK    5  A    between atoms: C_10  and  C_11
REMARK                            x       y       z     vdW  Elec       q    Type
REMARK                         _______ _______ _______ _____ _____    ______ ____
ROOT
ATOM      2  O   UNL     1      -3.806   3.741  25.142  0.00  0.00    -0.376 OA
ATOM      4  N   UNL     1      -1.071   2.316  25.649  0.00  0.00    -0.311 NA
ATOM      5  C   UNL     1      -2.985   1.744  24.031  0.00  0.00    +0.158 C 
ATOM      6  C   UNL     1      -1.639   1.388  24.676  0.00  0.00    +0.114 C 
ATOM      7  C   UNL     1      -4.002   2.337  25.001  0.00  0.00    +0.192 C 
ATOM      8  C   UNL     1      -1.356   3.723  25.399  0.00  0.00    +0.109 C 
ATOM      9  C   UNL     1      -2.715   4.102  25.980  0.00  0.00    +0.175 C 
ATOM     13  H   UNL     1      -0.064   2.168  25.698  0.00  0.00    +0.122 HD
ENDROOT
BRANCH   5   1
ATOM      1  O   UNL     1      -3.513   0.539  23.477  0.00  0.00    -0.371 OA
BRANCH   1  10
ATOM     10  C   UNL     1      -4.206  -0.218  24.456  0.00  0.00    +0.188 C 
BRANCH  10  11
ATOM     11  C   UNL     1      -4.117  -1.689  24.098  0.00  0.00    +0.187 C 
BRANCH  11   3
ATOM      3  O   UNL     1      -3.253  -2.340  25.020  0.00  0.00    -0.381 OA
ATOM     12  C   UNL     1      -1.932  -2.449  24.509  0.00  0.00    +0.194 C 
ENDBRANCH  11   3
ENDBRANCH  10  11
ENDBRANCH   1  10
ENDBRANCH   5   1
TORSDOF 4
ENDMDL
MODEL 7
REMARK VINA RESULT:      -4.5      2.235      4.790
REMARK  Name = 75367823
REMARK  5 active torsions:
REMARK  status: ('A' for Active; 'I' for Inactive)
REMARK    1  A    between atoms: O_1  and  C_5
REMARK    2  A    between atoms: O_1  and  C_10
REMARK    3  A    between atoms: O_3  and  C_11
REMARK    4  A    between atoms: O_3  and  C_12
REMARK    5  A    between atoms: C_10  and  C_11
REMARK                            x       y       z     vdW  Elec       q    Type
REMARK                         _______ _______ _______ _____ _____    ______ ____
ROOT
ATOM      2  O   UNL     1      -0.588   3.635  25.314  0.00  0.00    -0.376 OA
ATOM      4  N   UNL     1      -3.633   3.191  24.775  0.00  0.00    -0.311 NA
ATOM      5  C   UNL     1      -1.697   1.509  24.936  0.00  0.00    +0.158 C 
ATOM      6  C   UNL     1      -3.170   1.813  24.638  0.00  0.00    +0.114 C 
ATOM      7  C   UNL     1      -0.725   2.553  24.397  0.00  0.00    +0.192 C 
ATOM      8  C   UNL     1      -2.976   3.962  25.822  0.00  0.00    +0.109 C 
ATOM      9  C   UNL     1      -1.669   4.557  25.303  0.00  0.00    +0.175 C 
ATOM     13  H   UNL     1      -4.641   3.187  24.926  0.00  0.00    +0.122 HD
ENDROOT
BRANCH   5   1
ATOM      1  O   UNL     1      -1.403   0.245  24.340  0.00  0.00    -0.371 OA
BRANCH   1  10
ATOM     10  C   UNL     1      -1.391  -0.792  25.308  0.00  0.00    +0.188 C 
BRANCH  10  11
ATOM     11  C   UNL     1      -1.941  -2.059  24.684  0.00  0.00    +0.187 C 
BRANCH  11   3
ATOM      3  O   UNL     1      -3.319  -2.179  25.015  0.00  0.00    -0.381 OA
ATOM     12  C   UNL     1      -4.150  -1.750  23.945  0.00  0.00    +0.194 C 
ENDBRANCH  11   3
ENDBRANCH  10  11
ENDBRANCH   1  10
ENDBRANCH   5   1
TORSDOF 4
ENDMDL
MODEL 8
REMARK VINA RESULT:      -4.2      1.908      4.596
REMARK  Name = 75367823
REMARK  5 active torsions:
REMARK  status: ('A' for Active; 'I' for Inactive)
REMARK    1  A    between atoms: O_1  and  C_5
REMARK    2  A    between atoms: O_1  and  C_10
REMARK    3  A    between atoms: O_3  and  C_11
REMARK    4  A    between atoms: O_3  and  C_12
REMARK    5  A    between atoms: C_10  and  C_11
REMARK                            x       y       z     vdW  Elec       q    Type
REMARK                         _______ _______ _______ _____ _____    ______ ____
ROOT
ATOM      2  O   UNL     1      -3.434   3.733  25.079  0.00  0.00    -0.376 OA
ATOM      4  N   UNL     1      -5.839   1.742  24.961  0.00  0.00    -0.311 NA
ATOM      5  C   UNL     1      -3.315   1.339  24.691  0.00  0.00    +0.158 C 
ATOM      6  C   UNL     1      -4.757   0.817  24.642  0.00  0.00    +0.114 C 
ATOM      7  C   UNL     1      -3.140   2.736  24.104  0.00  0.00    +0.192 C 
ATOM      8  C   UNL     1      -5.514   2.752  25.960  0.00  0.00    +0.109 C 
ATOM      9  C   UNL     1      -4.822   3.944  25.306  0.00  0.00    +0.175 C 
ATOM     13  H   UNL     1      -6.654   1.208  25.258  0.00  0.00    +0.122 HD
ENDROOT
BRANCH   5   1
ATOM      1  O   UNL     1      -2.512   0.417  23.954  0.00  0.00    -0.371 OA
BRANCH   1  10
ATOM     10  C   UNL     1      -2.067  -0.650  24.775  0.00  0.00    +0.188 C 
BRANCH  10  11
ATOM     11  C   UNL     1      -0.552  -0.632  24.832  0.00  0.00    +0.187 C 
BRANCH  11   3
ATOM      3  O   UNL     1      -0.067   0.375  23.953  0.00  0.00    -0.381 OA
ATOM     12  C   UNL     1       0.901  -0.144  23.051  0.00  0.00    +0.194 C 
ENDBRANCH  11   3
ENDBRANCH  10  11
ENDBRANCH   1  10
ENDBRANCH   5   1
TORSDOF 4
ENDMDL
MODEL 9
REMARK VINA RESULT:      -4.0      2.303      4.752
REMARK  Name = 75367823
REMARK  5 active torsions:
REMARK  status: ('A' for Active; 'I' for Inactive)
REMARK    1  A    between atoms: O_1  and  C_5
REMARK    2  A    between atoms: O_1  and  C_10
REMARK    3  A    between atoms: O_3  and  C_11
REMARK    4  A    between atoms: O_3  and  C_12
REMARK    5  A    between atoms: C_10  and  C_11
REMARK                            x       y       z     vdW  Elec       q    Type
REMARK                         _______ _______ _______ _____ _____    ______ ____
ROOT
ATOM      2  O   UNL     1      -0.844   3.496  24.976  0.00  0.00    -0.376 OA
ATOM      4  N   UNL     1      -3.951   3.736  25.201  0.00  0.00    -0.311 NA
ATOM      5  C   UNL     1      -2.452   1.685  24.810  0.00  0.00    +0.158 C 
ATOM      6  C   UNL     1      -3.850   2.311  24.903  0.00  0.00    +0.114 C 
ATOM      7  C   UNL     1      -1.430   2.553  24.084  0.00  0.00    +0.192 C 
ATOM      8  C   UNL     1      -2.911   4.259  26.078  0.00  0.00    +0.109 C 
ATOM      9  C   UNL     1      -1.666   4.618  25.271  0.00  0.00    +0.175 C 
ATOM     13  H   UNL     1      -4.870   3.925  25.600  0.00  0.00    +0.122 HD
ENDROOT
BRANCH   5   1
ATOM      1  O   UNL     1      -2.595   0.447  24.113  0.00  0.00    -0.371 OA
BRANCH   1  10
ATOM     10  C   UNL     1      -2.285  -0.655  24.951  0.00  0.00    +0.188 C 
BRANCH  10  11
ATOM     11  C   UNL     1      -1.064  -1.366  24.401  0.00  0.00    +0.187 C 
BRANCH  11   3
ATOM      3  O   UNL     1       0.047  -0.478  24.441  0.00  0.00    -0.381 OA
ATOM     12  C   UNL     1       0.646  -0.335  23.161  0.00  0.00    +0.194 C 
ENDBRANCH  11   3
ENDBRANCH  10  11
ENDBRANCH   1  10
ENDBRANCH   5   1
TORSDOF 4
ENDMDL
MODEL 10
REMARK VINA RESULT:      -3.9      2.284      3.871
REMARK  Name = 75367823
REMARK  5 active torsions:
REMARK  status: ('A' for Active; 'I' for Inactive)
REMARK    1  A    between atoms: O_1  and  C_5
REMARK    2  A    between atoms: O_1  and  C_10
REMARK    3  A    between atoms: O_3  and  C_11
REMARK    4  A    between atoms: O_3  and  C_12
REMARK    5  A    between atoms: C_10  and  C_11
REMARK                            x       y       z     vdW  Elec       q    Type
REMARK                         _______ _______ _______ _____ _____    ______ ____
ROOT
ATOM      2  O   UNL     1      -4.509  -0.543  24.107  0.00  0.00    -0.376 OA
ATOM      4  N   UNL     1      -1.966  -2.278  24.636  0.00  0.00    -0.311 NA
ATOM      5  C   UNL     1      -2.474   0.172  25.220  0.00  0.00    +0.158 C 
ATOM      6  C   UNL     1      -1.490  -1.004  25.164  0.00  0.00    +0.114 C 
ATOM      7  C   UNL     1      -3.364   0.296  23.988  0.00  0.00    +0.192 C 
ATOM      8  C   UNL     1      -3.366  -2.574  24.904  0.00  0.00    +0.109 C 
ATOM      9  C   UNL     1      -4.260  -1.920  23.854  0.00  0.00    +0.175 C 
ATOM     13  H   UNL     1      -1.376  -3.027  24.998  0.00  0.00    +0.122 HD
ENDROOT
BRANCH   5   1
ATOM      1  O   UNL     1      -1.695   1.361  25.356  0.00  0.00    -0.371 OA
BRANCH   1  10
ATOM     10  C   UNL     1      -0.308   1.084  25.246  0.00  0.00    +0.188 C 
BRANCH  10  11
ATOM     11  C   UNL     1       0.309   2.040  24.244  0.00  0.00    +0.187 C 
BRANCH  11   3
ATOM      3  O   UNL     1       1.491   1.456  23.712  0.00  0.00    -0.381 OA
ATOM     12  C   UNL     1       1.210   0.244  23.026  0.00  0.00    +0.194 C 
ENDBRANCH  11   3
ENDBRANCH  10  11
ENDBRANCH   1  10
ENDBRANCH   5   1
TORSDOF 4
ENDMDL
