MODEL 1
REMARK VINA RESULT:      -1.2      0.000      0.000
REMARK  Name = 45783473
REMARK  10 active torsions:
REMARK  status: ('A' for Active; 'I' for Inactive)
REMARK    1  A    between atoms: O_2  and  C_29
REMARK    2  A    between atoms: O_2  and  C_30
REMARK    3  A    between atoms: N_3  and  C_13
REMARK    4  A    between atoms: N_7  and  C_26
REMARK    5  A    between atoms: N_7  and  C_28
REMARK    6  A    between atoms: C_9  and  C_14
REMARK    7  A    between atoms: C_13  and  C_15
REMARK    8  A    between atoms: C_18  and  C_21
REMARK    9  A    between atoms: C_22  and  C_27
REMARK   10  A    between atoms: C_28  and  C_29
REMARK                            x       y       z     vdW  Elec       q    Type
REMARK                         _______ _______ _______ _____ _____    ______ ____
ROOT
ATOM      1  O   UNL     1      -2.502   3.167  25.693  0.00  0.00    -0.336 OA
ATOM      4  N   UNL     1      -2.352   2.059  23.753  0.00  0.00    -0.190 NA
ATOM      5  N   UNL     1      -1.170   2.748  25.586  0.00  0.00    -0.056 NA
ATOM     14  C   UNL     1      -3.128   2.720  24.574  0.00  0.00    +0.245 A 
ATOM     18  C   UNL     1      -1.160   2.103  24.416  0.00  0.00    +0.204 A 
ENDROOT
BRANCH  18  21
ATOM      6  N   UNL     1       2.396   1.612  23.449  0.00  0.00    -0.240 NA
ATOM     21  C   UNL     1       0.021   1.489  23.883  0.00  0.00    +0.041 A 
ATOM     23  C   UNL     1      -0.027   0.227  23.300  0.00  0.00    +0.016 A 
ATOM     24  C   UNL     1       1.246   2.133  23.933  0.00  0.00    +0.124 A 
ATOM     25  C   UNL     1       1.134  -0.342  22.791  0.00  0.00    +0.044 A 
ATOM     26  C   UNL     1       2.310   0.384  22.890  0.00  0.00    +0.119 A 
BRANCH  26   7
ATOM      7  N   UNL     1       3.486  -0.210  22.368  0.00  0.00    -0.327 N 
ATOM     31  H   UNL     1       3.376  -1.111  21.918  0.00  0.00    +0.148 HD
BRANCH   7  28
ATOM     28  C   UNL     1       4.769   0.409  22.466  0.00  0.00    +0.131 C 
BRANCH  28  29
ATOM     29  C   UNL     1       5.207   0.471  23.919  0.00  0.00    +0.178 C 
BRANCH  29   2
ATOM      2  O   UNL     1       5.720  -0.795  24.314  0.00  0.00    -0.381 OA
ATOM     30  C   UNL     1       4.819  -1.846  23.994  0.00  0.00    +0.194 C 
ENDBRANCH  29   2
ENDBRANCH  28  29
ENDBRANCH   7  28
ENDBRANCH  26   7
ENDBRANCH  18  21
BRANCH  14   9
ATOM      3  N   UNL     1      -5.430   2.342  25.443  0.00  0.00    -0.287 NA
ATOM      9  C   UNL     1      -4.602   3.050  24.447  0.00  0.00    +0.146 C 
ATOM     10  C   UNL     1      -4.899   4.542  24.681  0.00  0.00    +0.030 C 
ATOM     11  C   UNL     1      -5.948   4.570  25.784  0.00  0.00    +0.017 C 
ATOM     12  C   UNL     1      -6.586   3.198  25.704  0.00  0.00    +0.085 C 
BRANCH   3  13
ATOM     13  C   UNL     1      -5.823   1.005  25.018  0.00  0.00    +0.120 C 
BRANCH  13  15
ATOM     15  C   UNL     1      -4.654   0.056  24.995  0.00  0.00    -0.033 A 
ATOM     16  C   UNL     1      -4.376  -0.683  23.846  0.00  0.00    +0.006 A 
ATOM     17  C   UNL     1      -3.847  -0.083  26.126  0.00  0.00    +0.006 A 
ATOM     19  C   UNL     1      -3.293  -1.562  23.826  0.00  0.00    +0.019 A 
ATOM     20  C   UNL     1      -2.764  -0.962  26.106  0.00  0.00    +0.019 A 
ATOM     22  C   UNL     1      -2.487  -1.700  24.956  0.00  0.00    +0.052 A 
BRANCH  22  27
ATOM      8  N   UNL     1      -0.476  -3.331  24.918  0.00  0.00    -0.191 NA
ATOM     27  C   UNL     1      -1.377  -2.601  24.935  0.00  0.00    +0.099 C 
ENDBRANCH  22  27
ENDBRANCH  13  15
ENDBRANCH   3  13
ENDBRANCH  14   9
TORSDOF 9
ENDMDL
MODEL 2
REMARK VINA RESULT:       1.0      1.169      1.733
REMARK  Name = 45783473
REMARK  10 active torsions:
REMARK  status: ('A' for Active; 'I' for Inactive)
REMARK    1  A    between atoms: O_2  and  C_29
REMARK    2  A    between atoms: O_2  and  C_30
REMARK    3  A    between atoms: N_3  and  C_13
REMARK    4  A    between atoms: N_7  and  C_26
REMARK    5  A    between atoms: N_7  and  C_28
REMARK    6  A    between atoms: C_9  and  C_14
REMARK    7  A    between atoms: C_13  and  C_15
REMARK    8  A    between atoms: C_18  and  C_21
REMARK    9  A    between atoms: C_22  and  C_27
REMARK   10  A    between atoms: C_28  and  C_29
REMARK                            x       y       z     vdW  Elec       q    Type
REMARK                         _______ _______ _______ _____ _____    ______ ____
ROOT
ATOM      1  O   UNL     1      -3.604   2.485  22.297  0.00  0.00    -0.336 OA
ATOM      4  N   UNL     1      -2.425   2.050  24.151  0.00  0.00    -0.190 NA
ATOM      5  N   UNL     1      -2.361   2.006  21.865  0.00  0.00    -0.056 NA
ATOM     14  C   UNL     1      -3.558   2.480  23.655  0.00  0.00    +0.245 A 
ATOM     18  C   UNL     1      -1.722   1.771  23.015  0.00  0.00    +0.204 A 
ENDROOT
BRANCH  18  21
ATOM      6  N   UNL     1       1.206  -0.433  22.394  0.00  0.00    -0.240 NA
ATOM     21  C   UNL     1      -0.383   1.260  23.064  0.00  0.00    +0.041 A 
ATOM     23  C   UNL     1       0.607   1.912  23.791  0.00  0.00    +0.016 A 
ATOM     24  C   UNL     1      -0.035   0.102  22.389  0.00  0.00    +0.124 A 
ATOM     25  C   UNL     1       1.896   1.393  23.820  0.00  0.00    +0.044 A 
ATOM     26  C   UNL     1       2.143   0.228  23.112  0.00  0.00    +0.119 A 
BRANCH  26   7
ATOM      7  N   UNL     1       3.461  -0.288  23.150  0.00  0.00    -0.327 N 
ATOM     31  H   UNL     1       3.570  -1.224  23.524  0.00  0.00    +0.148 HD
BRANCH   7  28
ATOM     28  C   UNL     1       4.593   0.454  22.695  0.00  0.00    +0.131 C 
BRANCH  28  29
ATOM     29  C   UNL     1       5.624   0.562  23.805  0.00  0.00    +0.178 C 
BRANCH  29   2
ATOM      2  O   UNL     1       5.484  -0.542  24.690  0.00  0.00    -0.381 OA
ATOM     30  C   UNL     1       5.324  -1.762  23.981  0.00  0.00    +0.194 C 
ENDBRANCH  29   2
ENDBRANCH  28  29
ENDBRANCH   7  28
ENDBRANCH  26   7
ENDBRANCH  18  21
BRANCH  14   9
ATOM      3  N   UNL     1      -4.924   2.397  25.733  0.00  0.00    -0.287 NA
ATOM      9  C   UNL     1      -4.801   2.961  24.374  0.00  0.00    +0.146 C 
ATOM     10  C   UNL     1      -4.815   4.486  24.581  0.00  0.00    +0.030 C 
ATOM     11  C   UNL     1      -5.011   4.683  26.077  0.00  0.00    +0.017 C 
ATOM     12  C   UNL     1      -5.653   3.386  26.527  0.00  0.00    +0.085 C 
BRANCH   3  13
ATOM     13  C   UNL     1      -5.570   1.092  25.757  0.00  0.00    +0.120 C 
BRANCH  13  15
ATOM     15  C   UNL     1      -4.649  -0.000  25.282  0.00  0.00    -0.033 A 
ATOM     16  C   UNL     1      -3.538  -0.358  26.045  0.00  0.00    +0.006 A 
ATOM     17  C   UNL     1      -4.908  -0.655  24.077  0.00  0.00    +0.006 A 
ATOM     19  C   UNL     1      -2.685  -1.369  25.604  0.00  0.00    +0.019 A 
ATOM     20  C   UNL     1      -4.055  -1.667  23.636  0.00  0.00    +0.019 A 
ATOM     22  C   UNL     1      -2.944  -2.024  24.399  0.00  0.00    +0.052 A 
BRANCH  22  27
ATOM      8  N   UNL     1      -1.361  -3.903  23.581  0.00  0.00    -0.191 NA
ATOM     27  C   UNL     1      -2.070  -3.061  23.948  0.00  0.00    +0.099 C 
ENDBRANCH  22  27
ENDBRANCH  13  15
ENDBRANCH   3  13
ENDBRANCH  14   9
TORSDOF 9
ENDMDL
MODEL 3
REMARK VINA RESULT:       1.3      1.730      3.960
REMARK  Name = 45783473
REMARK  10 active torsions:
REMARK  status: ('A' for Active; 'I' for Inactive)
REMARK    1  A    between atoms: O_2  and  C_29
REMARK    2  A    between atoms: O_2  and  C_30
REMARK    3  A    between atoms: N_3  and  C_13
REMARK    4  A    between atoms: N_7  and  C_26
REMARK    5  A    between atoms: N_7  and  C_28
REMARK    6  A    between atoms: C_9  and  C_14
REMARK    7  A    between atoms: C_13  and  C_15
REMARK    8  A    between atoms: C_18  and  C_21
REMARK    9  A    between atoms: C_22  and  C_27
REMARK   10  A    between atoms: C_28  and  C_29
REMARK                            x       y       z     vdW  Elec       q    Type
REMARK                         _______ _______ _______ _____ _____    ______ ____
ROOT
ATOM      1  O   UNL     1      -2.184   0.232  25.933  0.00  0.00    -0.336 OA
ATOM      4  N   UNL     1      -1.449  -0.817  24.096  0.00  0.00    -0.190 NA
ATOM      5  N   UNL     1      -0.925   0.777  25.651  0.00  0.00    -0.056 NA
ATOM     14  C   UNL     1      -2.416  -0.698  24.970  0.00  0.00    +0.245 A 
ATOM     18  C   UNL     1      -0.556   0.108  24.555  0.00  0.00    +0.204 A 
ENDROOT
BRANCH  18  21
ATOM      6  N   UNL     1       2.589   1.791  23.507  0.00  0.00    -0.240 NA
ATOM     21  C   UNL     1       0.696   0.339  23.895  0.00  0.00    +0.041 A 
ATOM     23  C   UNL     1       1.236  -0.609  23.032  0.00  0.00    +0.016 A 
ATOM     24  C   UNL     1       1.405   1.511  24.097  0.00  0.00    +0.124 A 
ATOM     25  C   UNL     1       2.452  -0.358  22.406  0.00  0.00    +0.044 A 
ATOM     26  C   UNL     1       3.083   0.846  22.674  0.00  0.00    +0.119 A 
BRANCH  26   7
ATOM      7  N   UNL     1       4.322   1.087  22.031  0.00  0.00    -0.327 N 
ATOM     31  H   UNL     1       4.285   1.273  21.035  0.00  0.00    +0.148 HD
BRANCH   7  28
ATOM     28  C   UNL     1       5.568   1.070  22.727  0.00  0.00    +0.131 C 
BRANCH  28  29
ATOM     29  C   UNL     1       5.972  -0.362  23.034  0.00  0.00    +0.178 C 
BRANCH  29   2
ATOM      2  O   UNL     1       5.323  -0.793  24.223  0.00  0.00    -0.381 OA
ATOM     30  C   UNL     1       4.613  -2.007  24.019  0.00  0.00    +0.194 C 
ENDBRANCH  29   2
ENDBRANCH  28  29
ENDBRANCH   7  28
ENDBRANCH  26   7
ENDBRANCH  18  21
BRANCH  14   9
ATOM      3  N   UNL     1      -4.678  -1.041  23.991  0.00  0.00    -0.287 NA
ATOM      9  C   UNL     1      -3.734  -1.441  25.053  0.00  0.00    +0.146 C 
ATOM     10  C   UNL     1      -3.569  -2.961  24.878  0.00  0.00    +0.030 C 
ATOM     11  C   UNL     1      -4.505  -3.334  23.737  0.00  0.00    +0.017 C 
ATOM     12  C   UNL     1      -5.518  -2.208  23.724  0.00  0.00    +0.085 C 
BRANCH   3  13
ATOM     13  C   UNL     1      -5.465   0.135  24.335  0.00  0.00    +0.120 C 
BRANCH  13  15
ATOM     15  C   UNL     1      -4.605   1.359  24.500  0.00  0.00    -0.033 A 
ATOM     16  C   UNL     1      -3.687   1.706  23.509  0.00  0.00    +0.006 A 
ATOM     17  C   UNL     1      -4.727   2.148  25.644  0.00  0.00    +0.006 A 
ATOM     19  C   UNL     1      -2.890   2.841  23.662  0.00  0.00    +0.019 A 
ATOM     20  C   UNL     1      -3.930   3.282  25.798  0.00  0.00    +0.019 A 
ATOM     22  C   UNL     1      -3.013   3.629  24.807  0.00  0.00    +0.052 A 
BRANCH  22  27
ATOM      8  N   UNL     1      -1.534   5.736  25.091  0.00  0.00    -0.191 NA
ATOM     27  C   UNL     1      -2.196   4.792  24.964  0.00  0.00    +0.099 C 
ENDBRANCH  22  27
ENDBRANCH  13  15
ENDBRANCH   3  13
ENDBRANCH  14   9
TORSDOF 9
ENDMDL
