MODEL 1
REMARK VINA RESULT:       1.6      0.000      0.000
REMARK  Name = 51137136
REMARK  6 active torsions:
REMARK  status: ('A' for Active; 'I' for Inactive)
REMARK    1  A    between atoms: S_1  and  C_18
REMARK    2  A    between atoms: S_1  and  C_23
REMARK    3  A    between atoms: N_6  and  C_13
REMARK    4  A    between atoms: C_8  and  C_12
REMARK    5  A    between atoms: C_13  and  C_14
REMARK    6  A    between atoms: C_23  and  C_27
REMARK                            x       y       z     vdW  Elec       q    Type
REMARK                         _______ _______ _______ _____ _____    ______ ____
ROOT
ATOM      3  O   UNL     1      -0.608   1.121  23.270  0.00  0.00    -0.439 OA
ATOM      7  N   UNL     1       0.643   2.488  24.575  0.00  0.00    -0.213 NA
ATOM     12  C   UNL     1      -0.558   2.152  24.158  0.00  0.00    +0.201 A 
ATOM     15  C   UNL     1       1.466   1.609  23.911  0.00  0.00    +0.111 A 
ATOM     16  C   UNL     1       0.703   0.771  23.112  0.00  0.00    +0.155 A 
ATOM     17  C   UNL     1       2.858   1.450  23.925  0.00  0.00    +0.058 A 
ATOM     18  C   UNL     1       3.415   0.443  23.124  0.00  0.00    +0.090 A 
ATOM     21  C   UNL     1       1.217  -0.236  22.305  0.00  0.00    +0.050 A 
ATOM     22  C   UNL     1       2.608  -0.382  22.331  0.00  0.00    +0.030 A 
ENDROOT
BRANCH  12   8
ATOM      6  N   UNL     1      -4.140   2.240  24.927  0.00  0.00    -0.297 NA
ATOM      8  C   UNL     1      -1.888   2.763  24.537  0.00  0.00    +0.090 C 
ATOM      9  C   UNL     1      -2.740   3.242  23.349  0.00  0.00    +0.029 C 
ATOM     10  C   UNL     1      -2.797   1.792  25.301  0.00  0.00    +0.097 C 
ATOM     11  C   UNL     1      -4.063   2.500  23.490  0.00  0.00    +0.085 C 
BRANCH   6  13
ATOM     13  C   UNL     1      -5.164   1.260  25.259  0.00  0.00    +0.119 C 
BRANCH  13  14
ATOM      2  F   UNL     1      -3.336  -4.019  24.520  0.00  0.00    -0.205 F 
ATOM     14  C   UNL     1      -4.675  -0.151  25.062  0.00  0.00    -0.033 A 
ATOM     19  C   UNL     1      -5.020  -0.852  23.908  0.00  0.00    +0.008 A 
ATOM     20  C   UNL     1      -3.877  -0.755  26.034  0.00  0.00    +0.008 A 
ATOM     24  C   UNL     1      -4.568  -2.160  23.725  0.00  0.00    +0.038 A 
ATOM     25  C   UNL     1      -3.425  -2.062  25.851  0.00  0.00    +0.038 A 
ATOM     26  C   UNL     1      -3.770  -2.764  24.696  0.00  0.00    +0.123 A 
ENDBRANCH  13  14
ENDBRANCH   6  13
ENDBRANCH  12   8
BRANCH  18   1
ATOM      1  S   UNL     1       5.150   0.217  23.115  0.00  0.00    -0.003 S 
ATOM      4  O   UNL     1       5.559  -0.213  21.786  0.00  0.00    -0.169 OA
ATOM      5  O   UNL     1       5.755   1.396  23.715  0.00  0.00    -0.169 OA
BRANCH   1  23
ATOM     23  C   UNL     1       5.419  -1.156  24.211  0.00  0.00    +0.168 C 
ATOM     27  C   UNL     1       4.544  -2.335  23.850  0.00  0.00    +0.028 C 
ENDBRANCH   1  23
ENDBRANCH  18   1
TORSDOF 5
ENDMDL
MODEL 2
REMARK VINA RESULT:       2.0      2.664      4.129
REMARK  Name = 51137136
REMARK  6 active torsions:
REMARK  status: ('A' for Active; 'I' for Inactive)
REMARK    1  A    between atoms: S_1  and  C_18
REMARK    2  A    between atoms: S_1  and  C_23
REMARK    3  A    between atoms: N_6  and  C_13
REMARK    4  A    between atoms: C_8  and  C_12
REMARK    5  A    between atoms: C_13  and  C_14
REMARK    6  A    between atoms: C_23  and  C_27
REMARK                            x       y       z     vdW  Elec       q    Type
REMARK                         _______ _______ _______ _____ _____    ______ ____
ROOT
ATOM      3  O   UNL     1      -0.888   0.723  23.629  0.00  0.00    -0.439 OA
ATOM      7  N   UNL     1      -0.421  -1.477  23.912  0.00  0.00    -0.213 NA
ATOM     12  C   UNL     1      -1.343  -0.541  23.858  0.00  0.00    +0.201 A 
ATOM     15  C   UNL     1       0.747  -0.784  23.702  0.00  0.00    +0.111 A 
ATOM     16  C   UNL     1       0.465   0.563  23.528  0.00  0.00    +0.155 A 
ATOM     17  C   UNL     1       2.081  -1.209  23.642  0.00  0.00    +0.058 A 
ATOM     18  C   UNL     1       3.071  -0.244  23.407  0.00  0.00    +0.090 A 
ATOM     21  C   UNL     1       1.416   1.548  23.294  0.00  0.00    +0.050 A 
ATOM     22  C   UNL     1       2.743   1.107  23.237  0.00  0.00    +0.030 A 
ENDROOT
BRANCH  12   8
ATOM      6  N   UNL     1      -4.762   0.456  24.721  0.00  0.00    -0.297 NA
ATOM      8  C   UNL     1      -2.839  -0.686  24.017  0.00  0.00    +0.090 C 
ATOM      9  C   UNL     1      -3.293  -1.235  25.381  0.00  0.00    +0.029 C 
ATOM     10  C   UNL     1      -3.590   0.644  23.863  0.00  0.00    +0.097 C 
ATOM     11  C   UNL     1      -4.245  -0.181  25.932  0.00  0.00    +0.085 C 
BRANCH   6  13
ATOM     13  C   UNL     1      -5.448   1.708  25.003  0.00  0.00    +0.119 C 
BRANCH  13  14
ATOM      2  F   UNL     1      -1.859   6.041  25.324  0.00  0.00    -0.205 F 
ATOM     14  C   UNL     1      -4.489   2.867  25.088  0.00  0.00    -0.033 A 
ATOM     19  C   UNL     1      -4.066   3.330  26.333  0.00  0.00    +0.008 A 
ATOM     20  C   UNL     1      -4.023   3.475  23.923  0.00  0.00    +0.008 A 
ATOM     24  C   UNL     1      -3.177   4.403  26.413  0.00  0.00    +0.038 A 
ATOM     25  C   UNL     1      -3.135   4.547  24.002  0.00  0.00    +0.038 A 
ATOM     26  C   UNL     1      -2.712   5.012  25.248  0.00  0.00    +0.123 A 
ENDBRANCH  13  14
ENDBRANCH   6  13
ENDBRANCH  12   8
BRANCH  18   1
ATOM      1  S   UNL     1       4.747  -0.738  23.328  0.00  0.00    -0.003 S 
ATOM      4  O   UNL     1       4.829  -2.165  23.605  0.00  0.00    -0.169 OA
ATOM      5  O   UNL     1       5.311  -0.205  22.097  0.00  0.00    -0.169 OA
BRANCH   1  23
ATOM     23  C   UNL     1       5.517   0.101  24.694  0.00  0.00    +0.168 C 
ATOM     27  C   UNL     1       6.289   1.316  24.234  0.00  0.00    +0.028 C 
ENDBRANCH   1  23
ENDBRANCH  18   1
TORSDOF 5
ENDMDL
MODEL 3
REMARK VINA RESULT:       4.2      1.363      1.692
REMARK  Name = 51137136
REMARK  6 active torsions:
REMARK  status: ('A' for Active; 'I' for Inactive)
REMARK    1  A    between atoms: S_1  and  C_18
REMARK    2  A    between atoms: S_1  and  C_23
REMARK    3  A    between atoms: N_6  and  C_13
REMARK    4  A    between atoms: C_8  and  C_12
REMARK    5  A    between atoms: C_13  and  C_14
REMARK    6  A    between atoms: C_23  and  C_27
REMARK                            x       y       z     vdW  Elec       q    Type
REMARK                         _______ _______ _______ _____ _____    ______ ____
ROOT
ATOM      3  O   UNL     1      -1.162   1.819  24.345  0.00  0.00    -0.439 OA
ATOM      7  N   UNL     1       0.456   3.348  24.768  0.00  0.00    -0.213 NA
ATOM     12  C   UNL     1      -0.819   3.038  24.846  0.00  0.00    +0.201 A 
ATOM     15  C   UNL     1       1.014   2.245  24.165  0.00  0.00    +0.111 A 
ATOM     16  C   UNL     1       0.025   1.308  23.905  0.00  0.00    +0.155 A 
ATOM     17  C   UNL     1       2.336   1.954  23.803  0.00  0.00    +0.058 A 
ATOM     18  C   UNL     1       2.595   0.720  23.192  0.00  0.00    +0.090 A 
ATOM     21  C   UNL     1       0.243   0.076  23.301  0.00  0.00    +0.050 A 
ATOM     22  C   UNL     1       1.568  -0.200  22.947  0.00  0.00    +0.030 A 
ENDROOT
BRANCH  12   8
ATOM      6  N   UNL     1      -4.267   3.847  25.789  0.00  0.00    -0.297 NA
ATOM      8  C   UNL     1      -1.951   3.859  25.419  0.00  0.00    +0.090 C 
ATOM      9  C   UNL     1      -2.637   4.802  24.415  0.00  0.00    +0.029 C 
ATOM     10  C   UNL     1      -3.089   2.999  25.985  0.00  0.00    +0.097 C 
ATOM     11  C   UNL     1      -4.108   4.408  24.447  0.00  0.00    +0.085 C 
BRANCH   6  13
ATOM     13  C   UNL     1      -5.512   3.109  25.939  0.00  0.00    +0.119 C 
BRANCH  13  14
ATOM      2  F   UNL     1      -5.129  -2.104  23.832  0.00  0.00    -0.205 F 
ATOM     14  C   UNL     1      -5.409   1.716  25.376  0.00  0.00    -0.033 A 
ATOM     19  C   UNL     1      -6.459   1.189  24.625  0.00  0.00    +0.008 A 
ATOM     20  C   UNL     1      -4.265   0.953  25.606  0.00  0.00    +0.008 A 
ATOM     24  C   UNL     1      -6.365  -0.102  24.103  0.00  0.00    +0.038 A 
ATOM     25  C   UNL     1      -4.169  -0.337  25.085  0.00  0.00    +0.038 A 
ATOM     26  C   UNL     1      -5.220  -0.865  24.333  0.00  0.00    +0.123 A 
ENDBRANCH  13  14
ENDBRANCH   6  13
ENDBRANCH  12   8
BRANCH  18   1
ATOM      1  S   UNL     1       4.234   0.323  22.724  0.00  0.00    -0.003 S 
ATOM      4  O   UNL     1       4.278   0.134  21.282  0.00  0.00    -0.169 OA
ATOM      5  O   UNL     1       5.123   1.286  23.357  0.00  0.00    -0.169 OA
BRANCH   1  23
ATOM     23  C   UNL     1       4.530  -1.266  23.466  0.00  0.00    +0.168 C 
ATOM     27  C   UNL     1       5.707  -1.226  24.413  0.00  0.00    +0.028 C 
ENDBRANCH   1  23
ENDBRANCH  18   1
TORSDOF 5
ENDMDL
