MODEL 1
REMARK VINA RESULT:       8.9      0.000      0.000
REMARK  Name = 11885887
REMARK  5 active torsions:
REMARK  status: ('A' for Active; 'I' for Inactive)
REMARK    1  A    between atoms: O_5  and  C_30
REMARK    2  A    between atoms: O_5  and  C_35
REMARK    3  A    between atoms: N_8  and  C_20
REMARK    4  A    between atoms: N_9  and  C_29
REMARK    5  A    between atoms: C_19  and  C_22
REMARK                            x       y       z     vdW  Elec       q    Type
REMARK                         _______ _______ _______ _____ _____    ______ ____
ROOT
ATOM      2  O   UNL     1      -0.733   3.272  25.818  0.00  0.00    -0.266 OA
ATOM      3  O   UNL     1      -3.716  -0.666  27.358  0.00  0.00    -0.270 OA
ATOM      6  N   UNL     1      -4.891   0.516  25.715  0.00  0.00    -0.297 N 
ATOM      7  N   UNL     1      -2.786   2.723  24.846  0.00  0.00    -0.310 N 
ATOM     10  C   UNL     1      -5.016   2.974  26.083  0.00  0.00    +0.027 C 
ATOM     11  C   UNL     1      -4.981   2.080  23.789  0.00  0.00    +0.054 C 
ATOM     12  C   UNL     1      -5.607   3.145  24.689  0.00  0.00    +0.018 C 
ATOM     13  C   UNL     1      -5.328   1.570  26.631  0.00  0.00    +0.113 C 
ATOM     14  C   UNL     1      -3.507   3.244  26.016  0.00  0.00    +0.130 C 
ATOM     15  C   UNL     1      -5.338   0.679  24.323  0.00  0.00    +0.117 C 
ATOM     16  C   UNL     1      -3.473   2.235  23.729  0.00  0.00    +0.027 A 
ATOM     17  C   UNL     1      -2.798   1.871  22.626  0.00  0.00    +0.024 A 
ATOM     18  C   UNL     1      -1.381   2.834  24.867  0.00  0.00    +0.273 A 
ATOM     19  C   UNL     1      -4.092  -0.525  26.196  0.00  0.00    +0.247 C 
ATOM     20  C   UNL     1      -0.664   2.392  23.628  0.00  0.00    +0.100 A 
ATOM     21  C   UNL     1      -1.366   1.951  22.578  0.00  0.00    +0.030 A 
ENDROOT
BRANCH  19  22
ATOM      1  F   UNL     1      -2.353  -4.392  22.552  0.00  0.00    -0.205 F 
ATOM     22  C   UNL     1      -3.636  -1.538  25.239  0.00  0.00    +0.037 A 
ATOM     23  C   UNL     1      -2.289  -1.891  25.194  0.00  0.00    +0.016 A 
ATOM     24  C   UNL     1      -4.551  -2.144  24.383  0.00  0.00    +0.016 A 
ATOM     26  C   UNL     1      -1.856  -2.857  24.285  0.00  0.00    +0.039 A 
ATOM     27  C   UNL     1      -4.118  -3.109  23.474  0.00  0.00    +0.039 A 
ATOM     28  C   UNL     1      -2.769  -3.465  23.426  0.00  0.00    +0.123 A 
ENDBRANCH  19  22
BRANCH  20   8
ATOM      4  O   UNL     1       1.130   0.196  23.413  0.00  0.00    -0.252 OA
ATOM      8  N   UNL     1       0.697   2.466  23.616  0.00  0.00    -0.265 N 
ATOM      9  N   UNL     1       2.878   1.758  23.525  0.00  0.00    -0.266 N 
ATOM     25  C   UNL     1       1.540   1.352  23.508  0.00  0.00    +0.308 C 
ATOM     36  H   UNL     1       1.114   3.333  23.943  0.00  0.00    +0.157 HD
ATOM     37  H   UNL     1       3.050   2.757  23.611  0.00  0.00    +0.156 HD
BRANCH   9  29
ATOM     29  C   UNL     1       4.034   0.947  23.438  0.00  0.00    +0.077 A 
ATOM     30  C   UNL     1       4.328   0.283  22.257  0.00  0.00    +0.141 A 
ATOM     31  C   UNL     1       4.854   0.836  24.550  0.00  0.00    +0.027 A 
ATOM     32  C   UNL     1       5.472  -0.513  22.187  0.00  0.00    +0.047 A 
ATOM     33  C   UNL     1       5.998   0.040  24.479  0.00  0.00    +0.002 A 
ATOM     34  C   UNL     1       6.307  -0.634  23.298  0.00  0.00    +0.004 A 
BRANCH  30   5
ATOM      5  O   UNL     1       3.525   0.388  21.161  0.00  0.00    -0.493 OA
ATOM     35  C   UNL     1       2.346  -0.413  21.144  0.00  0.00    +0.277 C 
ENDBRANCH  30   5
ENDBRANCH   9  29
ENDBRANCH  20   8
TORSDOF 4
ENDMDL
MODEL 2
REMARK VINA RESULT:      11.2      1.075      1.534
REMARK  Name = 11885887
REMARK  5 active torsions:
REMARK  status: ('A' for Active; 'I' for Inactive)
REMARK    1  A    between atoms: O_5  and  C_30
REMARK    2  A    between atoms: O_5  and  C_35
REMARK    3  A    between atoms: N_8  and  C_20
REMARK    4  A    between atoms: N_9  and  C_29
REMARK    5  A    between atoms: C_19  and  C_22
REMARK                            x       y       z     vdW  Elec       q    Type
REMARK                         _______ _______ _______ _____ _____    ______ ____
ROOT
ATOM      2  O   UNL     1      -0.406   3.184  25.674  0.00  0.00    -0.266 OA
ATOM      3  O   UNL     1      -3.956  -0.214  27.293  0.00  0.00    -0.270 OA
ATOM      6  N   UNL     1      -4.922   1.066  25.588  0.00  0.00    -0.297 N 
ATOM      7  N   UNL     1      -2.503   2.906  24.683  0.00  0.00    -0.310 N 
ATOM     10  C   UNL     1      -4.688   3.527  25.868  0.00  0.00    +0.027 C 
ATOM     11  C   UNL     1      -4.754   2.554  23.608  0.00  0.00    +0.054 C 
ATOM     12  C   UNL     1      -5.229   3.732  24.458  0.00  0.00    +0.018 C 
ATOM     13  C   UNL     1      -5.212   2.205  26.459  0.00  0.00    +0.113 C 
ATOM     14  C   UNL     1      -3.156   3.571  25.820  0.00  0.00    +0.130 C 
ATOM     15  C   UNL     1      -5.321   1.241  24.183  0.00  0.00    +0.117 C 
ATOM     16  C   UNL     1      -3.240   2.483  23.571  0.00  0.00    +0.027 A 
ATOM     17  C   UNL     1      -2.610   1.984  22.494  0.00  0.00    +0.024 A 
ATOM     18  C   UNL     1      -1.097   2.811  24.727  0.00  0.00    +0.273 A 
ATOM     19  C   UNL     1      -4.291  -0.063  26.119  0.00  0.00    +0.247 C 
ATOM     20  C   UNL     1      -0.437   2.223  23.517  0.00  0.00    +0.100 A 
ATOM     21  C   UNL     1      -1.182   1.852  22.470  0.00  0.00    +0.030 A 
ENDROOT
BRANCH  19  22
ATOM      1  F   UNL     1      -3.092  -4.276  22.645  0.00  0.00    -0.205 F 
ATOM     22  C   UNL     1      -3.977  -1.167  25.207  0.00  0.00    +0.037 A 
ATOM     23  C   UNL     1      -2.832  -1.932  25.416  0.00  0.00    +0.016 A 
ATOM     24  C   UNL     1      -4.824  -1.446  24.138  0.00  0.00    +0.016 A 
ATOM     26  C   UNL     1      -2.533  -2.984  24.549  0.00  0.00    +0.039 A 
ATOM     27  C   UNL     1      -4.525  -2.497  23.272  0.00  0.00    +0.039 A 
ATOM     28  C   UNL     1      -3.379  -3.266  23.478  0.00  0.00    +0.123 A 
ENDBRANCH  19  22
BRANCH  20   8
ATOM      4  O   UNL     1       1.015  -0.220  23.617  0.00  0.00    -0.252 OA
ATOM      8  N   UNL     1       0.920   2.096  23.528  0.00  0.00    -0.265 N 
ATOM      9  N   UNL     1       2.974   1.073  23.577  0.00  0.00    -0.266 N 
ATOM     25  C   UNL     1       1.590   0.866  23.579  0.00  0.00    +0.308 C 
ATOM     36  H   UNL     1       1.459   2.927  23.757  0.00  0.00    +0.157 HD
ATOM     37  H   UNL     1       3.291   2.039  23.543  0.00  0.00    +0.156 HD
BRANCH   9  29
ATOM     29  C   UNL     1       3.998   0.098  23.618  0.00  0.00    +0.077 A 
ATOM     30  C   UNL     1       5.326   0.491  23.683  0.00  0.00    +0.141 A 
ATOM     31  C   UNL     1       3.644  -1.241  23.593  0.00  0.00    +0.027 A 
ATOM     32  C   UNL     1       6.326  -0.483  23.724  0.00  0.00    +0.047 A 
ATOM     33  C   UNL     1       4.643  -2.214  23.634  0.00  0.00    +0.002 A 
ATOM     34  C   UNL     1       5.984  -1.835  23.700  0.00  0.00    +0.004 A 
BRANCH  30   5
ATOM      5  O   UNL     1       5.681   1.806  23.707  0.00  0.00    -0.493 OA
ATOM     35  C   UNL     1       6.816   2.156  24.495  0.00  0.00    +0.277 C 
ENDBRANCH  30   5
ENDBRANCH   9  29
ENDBRANCH  20   8
TORSDOF 4
ENDMDL
