MODEL 1
REMARK VINA RESULT:      -0.9      0.000      0.000
REMARK  Name = 11913213
REMARK  8 active torsions:
REMARK  status: ('A' for Active; 'I' for Inactive)
REMARK    1  A    between atoms: S_1  and  N_7
REMARK    2  A    between atoms: S_1  and  C_18
REMARK    3  A    between atoms: O_6  and  C_29
REMARK    4  A    between atoms: O_6  and  C_34
REMARK    5  A    between atoms: N_7  and  C_13
REMARK    6  A    between atoms: N_8  and  C_14
REMARK    7  A    between atoms: C_18  and  C_19
REMARK    8  A    between atoms: C_20  and  C_25
REMARK                            x       y       z     vdW  Elec       q    Type
REMARK                         _______ _______ _______ _____ _____    ______ ____
ROOT
ATOM      2  O   UNL     1      -1.011  -0.817  26.241  0.00  0.00    -0.370 OA
ATOM      3  O   UNL     1      -2.604  -2.525  24.166  0.00  0.00    -0.370 OA
ATOM     11  C   UNL     1      -2.052  -1.198  24.136  0.00  0.00    +0.170 C 
ATOM     12  C   UNL     1      -2.235  -0.603  25.518  0.00  0.00    +0.171 C 
ATOM     13  C   UNL     1      -0.554  -1.260  23.955  0.00  0.00    +0.133 C 
ATOM     14  C   UNL     1      -3.351  -1.418  26.128  0.00  0.00    +0.130 C 
ATOM     15  C   UNL     1      -0.053  -1.442  25.375  0.00  0.00    +0.183 C 
ATOM     16  C   UNL     1      -3.184  -2.768  25.455  0.00  0.00    +0.185 C 
ENDROOT
BRANCH  14   8
ATOM      8  N   UNL     1      -4.632  -0.842  25.779  0.00  0.00    -0.306 N 
ATOM      9  N   UNL     1      -3.679   1.244  25.275  0.00  0.00    -0.214 NA
ATOM     10  N   UNL     1      -6.053   0.882  25.058  0.00  0.00    -0.223 NA
ATOM     17  C   UNL     1      -4.792   0.467  25.358  0.00  0.00    +0.216 A 
ATOM     20  C   UNL     1      -3.873   2.513  24.861  0.00  0.00    +0.080 A 
ATOM     23  C   UNL     1      -6.173   2.163  24.652  0.00  0.00    +0.116 A 
ATOM     24  C   UNL     1      -5.108   3.034  24.533  0.00  0.00    +0.048 A 
ATOM     36  H   UNL     1      -5.461  -1.426  25.787  0.00  0.00    +0.149 HD
BRANCH  20  25
ATOM     25  C   UNL     1      -2.678   3.319  24.779  0.00  0.00    +0.042 A 
ATOM     29  C   UNL     1      -1.666   3.018  23.863  0.00  0.00    +0.129 A 
ATOM     30  C   UNL     1      -2.534   4.419  25.629  0.00  0.00    +0.013 A 
ATOM     31  C   UNL     1      -0.519   3.809  23.798  0.00  0.00    +0.046 A 
ATOM     32  C   UNL     1      -1.388   5.211  25.565  0.00  0.00    +0.001 A 
ATOM     33  C   UNL     1      -0.381   4.906  24.650  0.00  0.00    +0.004 A 
BRANCH  29   6
ATOM      6  O   UNL     1      -1.776   1.952  23.019  0.00  0.00    -0.494 OA
ATOM     34  C   UNL     1      -2.546   2.141  21.835  0.00  0.00    +0.277 C 
ENDBRANCH  29   6
ENDBRANCH  20  25
ENDBRANCH  14   8
BRANCH  13   7
ATOM      7  N   UNL     1      -0.064   0.033  23.416  0.00  0.00    -0.186 NA
ATOM     35  H   UNL     1      -0.761   0.768  23.251  0.00  0.00    +0.148 HD
BRANCH   7   1
ATOM      1  S   UNL     1       1.396   0.060  22.542  0.00  0.00    +0.034 S 
ATOM      4  O   UNL     1       2.100   1.303  22.791  0.00  0.00    -0.158 OA
ATOM      5  O   UNL     1       1.122  -0.379  21.187  0.00  0.00    -0.158 OA
BRANCH   1  18
ATOM     18  C   UNL     1       2.290  -1.247  23.353  0.00  0.00    +0.220 C 
BRANCH  18  19
ATOM     19  C   UNL     1       3.710  -0.799  23.508  0.00  0.00    -0.025 A 
ATOM     21  C   UNL     1       4.080   0.481  23.107  0.00  0.00    +0.005 A 
ATOM     22  C   UNL     1       4.652  -1.666  24.056  0.00  0.00    +0.005 A 
ATOM     26  C   UNL     1       5.402   0.897  23.252  0.00  0.00    +0.000 A 
ATOM     27  C   UNL     1       5.975  -1.249  24.202  0.00  0.00    +0.000 A 
ATOM     28  C   UNL     1       6.350   0.033  23.799  0.00  0.00    +0.000 A 
ENDBRANCH  18  19
ENDBRANCH   1  18
ENDBRANCH   7   1
ENDBRANCH  13   7
TORSDOF 7
ENDMDL
MODEL 2
REMARK VINA RESULT:      -0.6      1.699      4.473
REMARK  Name = 11913213
REMARK  8 active torsions:
REMARK  status: ('A' for Active; 'I' for Inactive)
REMARK    1  A    between atoms: S_1  and  N_7
REMARK    2  A    between atoms: S_1  and  C_18
REMARK    3  A    between atoms: O_6  and  C_29
REMARK    4  A    between atoms: O_6  and  C_34
REMARK    5  A    between atoms: N_7  and  C_13
REMARK    6  A    between atoms: N_8  and  C_14
REMARK    7  A    between atoms: C_18  and  C_19
REMARK    8  A    between atoms: C_20  and  C_25
REMARK                            x       y       z     vdW  Elec       q    Type
REMARK                         _______ _______ _______ _____ _____    ______ ____
ROOT
ATOM      2  O   UNL     1      -1.211   2.581  22.947  0.00  0.00    -0.370 OA
ATOM      3  O   UNL     1      -0.795   4.366  25.478  0.00  0.00    -0.370 OA
ATOM     11  C   UNL     1      -1.031   2.960  25.289  0.00  0.00    +0.170 C 
ATOM     12  C   UNL     1      -1.995   2.817  24.128  0.00  0.00    +0.171 C 
ATOM     13  C   UNL     1       0.229   2.280  24.809  0.00  0.00    +0.133 C 
ATOM     14  C   UNL     1      -2.676   4.162  24.043  0.00  0.00    +0.130 C 
ATOM     15  C   UNL     1       0.175   2.496  23.309  0.00  0.00    +0.183 C 
ATOM     16  C   UNL     1      -1.608   5.109  24.558  0.00  0.00    +0.185 C 
ENDROOT
BRANCH  14   8
ATOM      8  N   UNL     1      -3.829   4.189  24.917  0.00  0.00    -0.306 N 
ATOM      9  N   UNL     1      -4.022   1.850  24.915  0.00  0.00    -0.214 NA
ATOM     10  N   UNL     1      -5.561   3.218  26.169  0.00  0.00    -0.223 NA
ATOM     17  C   UNL     1      -4.490   3.052  25.347  0.00  0.00    +0.216 A 
ATOM     20  C   UNL     1      -4.690   0.763  25.353  0.00  0.00    +0.080 A 
ATOM     23  C   UNL     1      -6.182   2.088  26.567  0.00  0.00    +0.116 A 
ATOM     24  C   UNL     1      -5.787   0.821  26.188  0.00  0.00    +0.048 A 
ATOM     36  H   UNL     1      -4.155   5.076  25.287  0.00  0.00    +0.149 HD
BRANCH  20  25
ATOM     25  C   UNL     1      -4.176  -0.502  24.884  0.00  0.00    +0.042 A 
ATOM     29  C   UNL     1      -3.014  -1.054  25.429  0.00  0.00    +0.129 A 
ATOM     30  C   UNL     1      -4.855  -1.183  23.870  0.00  0.00    +0.013 A 
ATOM     31  C   UNL     1      -2.533  -2.278  24.962  0.00  0.00    +0.046 A 
ATOM     32  C   UNL     1      -4.375  -2.406  23.403  0.00  0.00    +0.001 A 
ATOM     33  C   UNL     1      -3.214  -2.954  23.949  0.00  0.00    +0.004 A 
BRANCH  29   6
ATOM      6  O   UNL     1      -2.328  -0.415  26.419  0.00  0.00    -0.494 OA
ATOM     34  C   UNL     1      -1.201  -1.095  26.968  0.00  0.00    +0.277 C 
ENDBRANCH  29   6
ENDBRANCH  20  25
ENDBRANCH  14   8
BRANCH  13   7
ATOM      7  N   UNL     1       0.156   0.829  25.107  0.00  0.00    -0.186 NA
ATOM     35  H   UNL     1       0.374   0.533  26.065  0.00  0.00    +0.148 HD
BRANCH   7   1
ATOM      1  S   UNL     1       0.339  -0.283  23.831  0.00  0.00    +0.034 S 
ATOM      4  O   UNL     1      -0.910  -0.417  23.107  0.00  0.00    -0.158 OA
ATOM      5  O   UNL     1       1.029  -1.452  24.343  0.00  0.00    -0.158 OA
BRANCH   1  18
ATOM     18  C   UNL     1       1.483   0.595  22.790  0.00  0.00    +0.220 C 
BRANCH  18  19
ATOM     19  C   UNL     1       2.865   0.150  23.154  0.00  0.00    -0.025 A 
ATOM     21  C   UNL     1       3.096  -1.178  23.500  0.00  0.00    +0.005 A 
ATOM     22  C   UNL     1       3.912   1.068  23.143  0.00  0.00    +0.005 A 
ATOM     26  C   UNL     1       4.383  -1.592  23.839  0.00  0.00    +0.000 A 
ATOM     27  C   UNL     1       5.201   0.653  23.482  0.00  0.00    +0.000 A 
ATOM     28  C   UNL     1       5.436  -0.678  23.830  0.00  0.00    +0.000 A 
ENDBRANCH  18  19
ENDBRANCH   1  18
ENDBRANCH   7   1
ENDBRANCH  13   7
TORSDOF 7
ENDMDL
MODEL 3
REMARK VINA RESULT:       0.9      1.537      4.069
REMARK  Name = 11913213
REMARK  8 active torsions:
REMARK  status: ('A' for Active; 'I' for Inactive)
REMARK    1  A    between atoms: S_1  and  N_7
REMARK    2  A    between atoms: S_1  and  C_18
REMARK    3  A    between atoms: O_6  and  C_29
REMARK    4  A    between atoms: O_6  and  C_34
REMARK    5  A    between atoms: N_7  and  C_13
REMARK    6  A    between atoms: N_8  and  C_14
REMARK    7  A    between atoms: C_18  and  C_19
REMARK    8  A    between atoms: C_20  and  C_25
REMARK                            x       y       z     vdW  Elec       q    Type
REMARK                         _______ _______ _______ _____ _____    ______ ____
ROOT
ATOM      2  O   UNL     1      -0.545   4.186  23.566  0.00  0.00    -0.370 OA
ATOM      3  O   UNL     1      -1.433   2.661  26.144  0.00  0.00    -0.370 OA
ATOM     11  C   UNL     1      -1.447   2.327  24.746  0.00  0.00    +0.170 C 
ATOM     12  C   UNL     1      -1.786   3.593  23.984  0.00  0.00    +0.171 C 
ATOM     13  C   UNL     1      -0.054   1.976  24.280  0.00  0.00    +0.133 C 
ATOM     14  C   UNL     1      -2.466   4.471  25.007  0.00  0.00    +0.130 C 
ATOM     15  C   UNL     1       0.541   3.333  23.955  0.00  0.00    +0.183 C 
ATOM     16  C   UNL     1      -1.814   4.034  26.306  0.00  0.00    +0.185 C 
ENDROOT
BRANCH  14   8
ATOM      8  N   UNL     1      -3.884   4.186  25.040  0.00  0.00    -0.306 N 
ATOM      9  N   UNL     1      -3.527   1.867  25.113  0.00  0.00    -0.214 NA
ATOM     10  N   UNL     1      -5.759   2.776  25.122  0.00  0.00    -0.223 NA
ATOM     17  C   UNL     1      -4.405   2.905  25.094  0.00  0.00    +0.216 A 
ATOM     20  C   UNL     1      -4.070   0.633  25.165  0.00  0.00    +0.080 A 
ATOM     23  C   UNL     1      -6.233   1.514  25.173  0.00  0.00    +0.116 A 
ATOM     24  C   UNL     1      -5.429   0.393  25.197  0.00  0.00    +0.048 A 
ATOM     36  H   UNL     1      -4.547   4.952  25.079  0.00  0.00    +0.149 HD
BRANCH  20  25
ATOM     25  C   UNL     1      -3.119  -0.454  25.186  0.00  0.00    +0.042 A 
ATOM     29  C   UNL     1      -3.274  -1.562  24.349  0.00  0.00    +0.129 A 
ATOM     30  C   UNL     1      -2.028  -0.392  26.056  0.00  0.00    +0.013 A 
ATOM     31  C   UNL     1      -2.345  -2.603  24.383  0.00  0.00    +0.046 A 
ATOM     32  C   UNL     1      -1.099  -1.432  26.091  0.00  0.00    +0.001 A 
ATOM     33  C   UNL     1      -1.257  -2.537  25.254  0.00  0.00    +0.004 A 
BRANCH  29   6
ATOM      6  O   UNL     1      -4.328  -1.653  23.488  0.00  0.00    -0.494 OA
ATOM     34  C   UNL     1      -4.940  -2.933  23.348  0.00  0.00    +0.277 C 
ENDBRANCH  29   6
ENDBRANCH  20  25
ENDBRANCH  14   8
BRANCH  13   7
ATOM      7  N   UNL     1      -0.134   1.159  23.043  0.00  0.00    -0.186 NA
ATOM     35  H   UNL     1      -0.956   1.294  22.443  0.00  0.00    +0.148 HD
BRANCH   7   1
ATOM      1  S   UNL     1       0.714  -0.315  22.975  0.00  0.00    +0.034 S 
ATOM      4  O   UNL     1      -0.071  -1.305  22.263  0.00  0.00    -0.158 OA
ATOM      5  O   UNL     1       1.242  -0.597  24.296  0.00  0.00    -0.158 OA
BRANCH   1  18
ATOM     18  C   UNL     1       2.087   0.141  21.941  0.00  0.00    +0.220 C 
BRANCH  18  19
ATOM     19  C   UNL     1       3.341  -0.068  22.730  0.00  0.00    -0.025 A 
ATOM     21  C   UNL     1       4.226   0.991  22.917  0.00  0.00    +0.005 A 
ATOM     22  C   UNL     1       3.615  -1.319  23.275  0.00  0.00    +0.005 A 
ATOM     26  C   UNL     1       5.394   0.796  23.652  0.00  0.00    +0.000 A 
ATOM     27  C   UNL     1       4.784  -1.514  24.010  0.00  0.00    +0.000 A 
ATOM     28  C   UNL     1       5.674  -0.456  24.199  0.00  0.00    +0.000 A 
ENDBRANCH  18  19
ENDBRANCH   1  18
ENDBRANCH   7   1
ENDBRANCH  13   7
TORSDOF 7
ENDMDL
