MODEL 1
REMARK VINA RESULT:      -3.7      0.000      0.000
REMARK  Name = 45783342
REMARK  9 active torsions:
REMARK  status: ('A' for Active; 'I' for Inactive)
REMARK    1  A    between atoms: O_3  and  C_25
REMARK    2  A    between atoms: O_3  and  C_27
REMARK    3  A    between atoms: O_4  and  C_28
REMARK    4  A    between atoms: O_4  and  C_29
REMARK    5  A    between atoms: N_5  and  C_13
REMARK    6  A    between atoms: C_9  and  C_14
REMARK    7  A    between atoms: C_13  and  C_15
REMARK    8  A    between atoms: C_18  and  C_21
REMARK    9  A    between atoms: C_27  and  C_28
REMARK                            x       y       z     vdW  Elec       q    Type
REMARK                         _______ _______ _______ _____ _____    ______ ____
ROOT
ATOM      2  O   UNL     1      -2.090   2.832  25.419  0.00  0.00    -0.336 OA
ATOM      6  N   UNL     1      -2.124   1.695  23.490  0.00  0.00    -0.190 NA
ATOM      7  N   UNL     1      -0.781   2.377  25.212  0.00  0.00    -0.056 NA
ATOM     14  C   UNL     1      -2.814   2.386  24.360  0.00  0.00    +0.245 A 
ATOM     18  C   UNL     1      -0.882   1.716  24.055  0.00  0.00    +0.202 A 
ENDROOT
BRANCH  18  21
ATOM      8  N   UNL     1       2.422  -0.202  22.239  0.00  0.00    -0.221 NA
ATOM     21  C   UNL     1       0.238   1.065  23.439  0.00  0.00    +0.029 A 
ATOM     23  C   UNL     1       1.516   1.597  23.576  0.00  0.00    +0.079 A 
ATOM     24  C   UNL     1       0.051  -0.099  22.703  0.00  0.00    +0.031 A 
ATOM     25  C   UNL     1       2.564   0.932  22.961  0.00  0.00    +0.215 A 
ATOM     26  C   UNL     1       1.165  -0.688  22.127  0.00  0.00    +0.115 A 
BRANCH  25   3
ATOM      3  O   UNL     1       3.833   1.435  23.082  0.00  0.00    -0.474 OA
BRANCH   3  27
ATOM     27  C   UNL     1       4.906   0.516  22.910  0.00  0.00    +0.258 C 
BRANCH  27  28
ATOM     28  C   UNL     1       5.683   0.417  24.209  0.00  0.00    +0.200 C 
BRANCH  28   4
ATOM      4  O   UNL     1       5.672  -0.934  24.654  0.00  0.00    -0.380 OA
ATOM     29  C   UNL     1       4.739  -1.715  23.920  0.00  0.00    +0.194 C 
ENDBRANCH  28   4
ENDBRANCH  27  28
ENDBRANCH   3  27
ENDBRANCH  25   3
ENDBRANCH  18  21
BRANCH  14   9
ATOM      5  N   UNL     1      -5.051   2.064  25.404  0.00  0.00    -0.287 NA
ATOM      9  C   UNL     1      -4.284   2.752  24.346  0.00  0.00    +0.146 C 
ATOM     10  C   UNL     1      -4.527   4.251  24.600  0.00  0.00    +0.030 C 
ATOM     11  C   UNL     1      -5.486   4.305  25.780  0.00  0.00    +0.017 C 
ATOM     12  C   UNL     1      -6.162   2.949  25.751  0.00  0.00    +0.085 C 
BRANCH   5  13
ATOM     13  C   UNL     1      -5.508   0.737  25.011  0.00  0.00    +0.120 C 
BRANCH  13  15
ATOM      1 CL   UNL     1      -0.981  -3.220  24.802  0.00  0.00    -0.084 Cl
ATOM     15  C   UNL     1      -4.375  -0.254  24.960  0.00  0.00    -0.033 A 
ATOM     16  C   UNL     1      -4.289  -1.159  23.902  0.00  0.00    +0.006 A 
ATOM     17  C   UNL     1      -3.412  -0.267  25.969  0.00  0.00    +0.006 A 
ATOM     19  C   UNL     1      -3.239  -2.077  23.854  0.00  0.00    +0.020 A 
ATOM     20  C   UNL     1      -2.363  -1.184  25.921  0.00  0.00    +0.020 A 
ATOM     22  C   UNL     1      -2.277  -2.090  24.864  0.00  0.00    +0.041 A 
ENDBRANCH  13  15
ENDBRANCH   5  13
ENDBRANCH  14   9
TORSDOF 8
ENDMDL
MODEL 2
REMARK VINA RESULT:      -0.8      2.190      3.637
REMARK  Name = 45783342
REMARK  9 active torsions:
REMARK  status: ('A' for Active; 'I' for Inactive)
REMARK    1  A    between atoms: O_3  and  C_25
REMARK    2  A    between atoms: O_3  and  C_27
REMARK    3  A    between atoms: O_4  and  C_28
REMARK    4  A    between atoms: O_4  and  C_29
REMARK    5  A    between atoms: N_5  and  C_13
REMARK    6  A    between atoms: C_9  and  C_14
REMARK    7  A    between atoms: C_13  and  C_15
REMARK    8  A    between atoms: C_18  and  C_21
REMARK    9  A    between atoms: C_27  and  C_28
REMARK                            x       y       z     vdW  Elec       q    Type
REMARK                         _______ _______ _______ _____ _____    ______ ____
ROOT
ATOM      2  O   UNL     1      -1.257   0.470  25.779  0.00  0.00    -0.336 OA
ATOM      6  N   UNL     1      -0.978  -0.633  23.851  0.00  0.00    -0.190 NA
ATOM      7  N   UNL     1      -0.006   0.861  25.285  0.00  0.00    -0.056 NA
ATOM     14  C   UNL     1      -1.760  -0.409  24.876  0.00  0.00    +0.245 A 
ATOM     18  C   UNL     1       0.087   0.168  24.146  0.00  0.00    +0.202 A 
ENDROOT
BRANCH  18  21
ATOM      8  N   UNL     1       3.454   0.420  21.599  0.00  0.00    -0.221 NA
ATOM     21  C   UNL     1       1.228   0.253  23.282  0.00  0.00    +0.029 A 
ATOM     23  C   UNL     1       2.348   0.979  23.675  0.00  0.00    +0.079 A 
ATOM     24  C   UNL     1       1.221  -0.389  22.049  0.00  0.00    +0.031 A 
ATOM     25  C   UNL     1       3.425   1.032  22.804  0.00  0.00    +0.215 A 
ATOM     26  C   UNL     1       2.348  -0.275  21.252  0.00  0.00    +0.115 A 
BRANCH  25   3
ATOM      3  O   UNL     1       4.540   1.740  23.168  0.00  0.00    -0.474 OA
BRANCH   3  27
ATOM     27  C   UNL     1       5.517   1.047  23.936  0.00  0.00    +0.258 C 
BRANCH  27  28
ATOM     28  C   UNL     1       5.658  -0.365  23.398  0.00  0.00    +0.200 C 
BRANCH  28   4
ATOM      4  O   UNL     1       5.226  -1.285  24.393  0.00  0.00    -0.380 OA
ATOM     29  C   UNL     1       4.210  -2.146  23.897  0.00  0.00    +0.194 C 
ENDBRANCH  28   4
ENDBRANCH  27  28
ENDBRANCH   3  27
ENDBRANCH  25   3
ENDBRANCH  18  21
BRANCH  14   9
ATOM      5  N   UNL     1      -4.195  -0.391  24.357  0.00  0.00    -0.287 NA
ATOM      9  C   UNL     1      -3.126  -0.986  25.184  0.00  0.00    +0.146 C 
ATOM     10  C   UNL     1      -3.211  -2.497  24.904  0.00  0.00    +0.030 C 
ATOM     11  C   UNL     1      -4.391  -2.661  23.957  0.00  0.00    +0.017 C 
ATOM     12  C   UNL     1      -5.223  -1.420  24.207  0.00  0.00    +0.085 C 
BRANCH   5  13
ATOM     13  C   UNL     1      -4.731   0.845  24.913  0.00  0.00    +0.120 C 
BRANCH  13  15
ATOM      1 CL   UNL     1      -0.745   5.342  24.631  0.00  0.00    -0.084 Cl
ATOM     15  C   UNL     1      -3.733   1.971  24.843  0.00  0.00    -0.033 A 
ATOM     16  C   UNL     1      -3.037   2.211  23.659  0.00  0.00    +0.006 A 
ATOM     17  C   UNL     1      -3.505   2.771  25.962  0.00  0.00    +0.006 A 
ATOM     19  C   UNL     1      -2.112   3.254  23.594  0.00  0.00    +0.020 A 
ATOM     20  C   UNL     1      -2.581   3.814  25.897  0.00  0.00    +0.020 A 
ATOM     22  C   UNL     1      -1.884   4.054  24.713  0.00  0.00    +0.041 A 
ENDBRANCH  13  15
ENDBRANCH   5  13
ENDBRANCH  14   9
TORSDOF 8
ENDMDL
MODEL 3
REMARK VINA RESULT:      -0.7      1.053      1.478
REMARK  Name = 45783342
REMARK  9 active torsions:
REMARK  status: ('A' for Active; 'I' for Inactive)
REMARK    1  A    between atoms: O_3  and  C_25
REMARK    2  A    between atoms: O_3  and  C_27
REMARK    3  A    between atoms: O_4  and  C_28
REMARK    4  A    between atoms: O_4  and  C_29
REMARK    5  A    between atoms: N_5  and  C_13
REMARK    6  A    between atoms: C_9  and  C_14
REMARK    7  A    between atoms: C_13  and  C_15
REMARK    8  A    between atoms: C_18  and  C_21
REMARK    9  A    between atoms: C_27  and  C_28
REMARK                            x       y       z     vdW  Elec       q    Type
REMARK                         _______ _______ _______ _____ _____    ______ ____
ROOT
ATOM      2  O   UNL     1      -3.091   2.455  22.300  0.00  0.00    -0.336 OA
ATOM      6  N   UNL     1      -2.215   1.727  24.228  0.00  0.00    -0.190 NA
ATOM      7  N   UNL     1      -1.876   1.842  21.968  0.00  0.00    -0.056 NA
ATOM     14  C   UNL     1      -3.213   2.344  23.648  0.00  0.00    +0.245 A 
ATOM     18  C   UNL     1      -1.419   1.438  23.158  0.00  0.00    +0.202 A 
ENDROOT
BRANCH  18  21
ATOM      8  N   UNL     1       2.256  -0.605  23.608  0.00  0.00    -0.221 NA
ATOM     21  C   UNL     1      -0.173   0.745  23.311  0.00  0.00    +0.029 A 
ATOM     23  C   UNL     1       1.028   1.416  23.107  0.00  0.00    +0.079 A 
ATOM     24  C   UNL     1      -0.161  -0.599  23.663  0.00  0.00    +0.031 A 
ATOM     25  C   UNL     1       2.205   0.702  23.266  0.00  0.00    +0.215 A 
ATOM     26  C   UNL     1       1.069  -1.224  23.797  0.00  0.00    +0.115 A 
BRANCH  25   3
ATOM      3  O   UNL     1       3.401   1.340  23.071  0.00  0.00    -0.474 OA
BRANCH   3  27
ATOM     27  C   UNL     1       4.510   0.526  22.709  0.00  0.00    +0.258 C 
BRANCH  27  28
ATOM     28  C   UNL     1       5.578   0.640  23.780  0.00  0.00    +0.200 C 
BRANCH  28   4
ATOM      4  O   UNL     1       5.506  -0.498  24.631  0.00  0.00    -0.380 OA
ATOM     29  C   UNL     1       5.111  -1.659  23.913  0.00  0.00    +0.194 C 
ENDBRANCH  28   4
ENDBRANCH  27  28
ENDBRANCH   3  27
ENDBRANCH  25   3
ENDBRANCH  18  21
BRANCH  14   9
ATOM      5  N   UNL     1      -4.780   2.353  25.582  0.00  0.00    -0.287 NA
ATOM      9  C   UNL     1      -4.464   2.937  24.263  0.00  0.00    +0.146 C 
ATOM     10  C   UNL     1      -4.337   4.449  24.526  0.00  0.00    +0.030 C 
ATOM     11  C   UNL     1      -4.658   4.624  26.003  0.00  0.00    +0.017 C 
ATOM     12  C   UNL     1      -5.475   3.394  26.339  0.00  0.00    +0.085 C 
BRANCH   5  13
ATOM     13  C   UNL     1      -5.560   1.125  25.494  0.00  0.00    +0.120 C 
BRANCH  13  15
ATOM      1 CL   UNL     1      -2.109  -3.630  24.200  0.00  0.00    -0.084 Cl
ATOM     15  C   UNL     1      -4.696  -0.066  25.169  0.00  0.00    -0.033 A 
ATOM     16  C   UNL     1      -3.742  -0.505  26.087  0.00  0.00    +0.006 A 
ATOM     17  C   UNL     1      -4.849  -0.727  23.951  0.00  0.00    +0.006 A 
ATOM     19  C   UNL     1      -2.942  -1.607  25.787  0.00  0.00    +0.020 A 
ATOM     20  C   UNL     1      -4.048  -1.829  23.650  0.00  0.00    +0.020 A 
ATOM     22  C   UNL     1      -3.095  -2.269  24.568  0.00  0.00    +0.041 A 
ENDBRANCH  13  15
ENDBRANCH   5  13
ENDBRANCH  14   9
TORSDOF 8
ENDMDL
