MODEL 1
REMARK VINA RESULT:       0.3      0.000      0.000
REMARK  Name = 45783584
REMARK  8 active torsions:
REMARK  status: ('A' for Active; 'I' for Inactive)
REMARK    1  A    between atoms: O_1  and  C_14
REMARK    2  A    between atoms: O_1  and  C_23
REMARK    3  A    between atoms: N_3  and  C_11
REMARK    4  A    between atoms: C_7  and  C_13
REMARK    5  A    between atoms: C_11  and  C_12
REMARK    6  A    between atoms: C_12  and  C_20
REMARK    7  A    between atoms: C_12  and  C_21
REMARK    8  A    between atoms: C_22  and  C_24
REMARK                            x       y       z     vdW  Elec       q    Type
REMARK                         _______ _______ _______ _____ _____    ______ ____
ROOT
ATOM      2  O   UNL     1      -3.206  -0.565  25.662  0.00  0.00    -0.336 OA
ATOM      4  N   UNL     1      -2.390   1.242  24.619  0.00  0.00    -0.190 NA
ATOM      5  N   UNL     1      -1.987  -0.959  25.095  0.00  0.00    -0.056 NA
ATOM     13  C   UNL     1      -3.368   0.744  25.333  0.00  0.00    +0.245 A 
ATOM     22  C   UNL     1      -1.567   0.161  24.499  0.00  0.00    +0.204 A 
ENDROOT
BRANCH  22  24
ATOM      6  N   UNL     1       1.804   1.307  23.429  0.00  0.00    -0.221 NA
ATOM     23  C   UNL     1       2.034   0.426  22.430  0.00  0.00    +0.215 A 
ATOM     24  C   UNL     1      -0.333   0.231  23.773  0.00  0.00    +0.041 A 
ATOM     25  C   UNL     1       1.144  -0.564  22.049  0.00  0.00    +0.068 A 
ATOM     26  C   UNL     1      -0.061  -0.657  22.738  0.00  0.00    +0.018 A 
ATOM     27  C   UNL     1       0.623   1.187  24.076  0.00  0.00    +0.126 A 
BRANCH  23   1
ATOM      1  O   UNL     1       3.227   0.538  21.767  0.00  0.00    -0.473 OA
BRANCH   1  14
ATOM     14  C   UNL     1       4.375   0.007  22.422  0.00  0.00    +0.175 C 
ATOM     15  C   UNL     1       3.971  -1.196  23.273  0.00  0.00    +0.044 C 
ATOM     16  C   UNL     1       5.033   1.098  23.267  0.00  0.00    +0.044 C 
ATOM     17  C   UNL     1       5.151  -1.740  24.071  0.00  0.00    +0.004 C 
ATOM     18  C   UNL     1       6.213   0.554  24.066  0.00  0.00    +0.004 C 
ATOM     19  C   UNL     1       5.810  -0.650  24.913  0.00  0.00    +0.000 C 
ENDBRANCH   1  14
ENDBRANCH  23   1
ENDBRANCH  22  24
BRANCH  13   7
ATOM      3  N   UNL     1      -4.684   2.850  25.495  0.00  0.00    -0.291 NA
ATOM      7  C   UNL     1      -4.629   1.414  25.836  0.00  0.00    +0.146 C 
ATOM      8  C   UNL     1      -5.907   0.816  25.218  0.00  0.00    +0.030 C 
ATOM      9  C   UNL     1      -6.101   3.191  25.368  0.00  0.00    +0.085 C 
ATOM     10  C   UNL     1      -6.644   1.999  24.606  0.00  0.00    +0.017 C 
BRANCH   3  11
ATOM     11  C   UNL     1      -4.000   3.697  26.464  0.00  0.00    +0.088 C 
BRANCH  11  12
ATOM     12  C   UNL     1      -2.789   4.426  25.856  0.00  0.00    -0.003 C 
ATOM     20  C   UNL     1      -2.893   4.574  24.337  0.00  0.00    +0.008 C 
ATOM     21  C   UNL     1      -1.502   3.677  26.215  0.00  0.00    +0.008 C 
ENDBRANCH  11  12
ENDBRANCH   3  11
ENDBRANCH  13   7
TORSDOF 6
ENDMDL
MODEL 2
REMARK VINA RESULT:       1.2      1.537      2.656
REMARK  Name = 45783584
REMARK  8 active torsions:
REMARK  status: ('A' for Active; 'I' for Inactive)
REMARK    1  A    between atoms: O_1  and  C_14
REMARK    2  A    between atoms: O_1  and  C_23
REMARK    3  A    between atoms: N_3  and  C_11
REMARK    4  A    between atoms: C_7  and  C_13
REMARK    5  A    between atoms: C_11  and  C_12
REMARK    6  A    between atoms: C_12  and  C_20
REMARK    7  A    between atoms: C_12  and  C_21
REMARK    8  A    between atoms: C_22  and  C_24
REMARK                            x       y       z     vdW  Elec       q    Type
REMARK                         _______ _______ _______ _____ _____    ______ ____
ROOT
ATOM      2  O   UNL     1      -2.305   2.820  25.495  0.00  0.00    -0.336 OA
ATOM      4  N   UNL     1      -2.275   1.468  23.709  0.00  0.00    -0.190 NA
ATOM      5  N   UNL     1      -0.955   2.575  25.215  0.00  0.00    -0.056 NA
ATOM     13  C   UNL     1      -3.014   2.131  24.563  0.00  0.00    +0.245 A 
ATOM     22  C   UNL     1      -1.020   1.771  24.149  0.00  0.00    +0.204 A 
ENDROOT
BRANCH  22  24
ATOM      6  N   UNL     1       2.510   1.460  23.025  0.00  0.00    -0.221 NA
ATOM     23  C   UNL     1       2.415   0.323  22.298  0.00  0.00    +0.215 A 
ATOM     24  C   UNL     1       0.150   1.252  23.503  0.00  0.00    +0.041 A 
ATOM     25  C   UNL     1       1.242  -0.393  22.129  0.00  0.00    +0.068 A 
ATOM     26  C   UNL     1       0.091   0.087  22.746  0.00  0.00    +0.018 A 
ATOM     27  C   UNL     1       1.372   1.896  23.610  0.00  0.00    +0.126 A 
BRANCH  23   1
ATOM      1  O   UNL     1       3.562  -0.128  21.701  0.00  0.00    -0.473 OA
BRANCH   1  14
ATOM     14  C   UNL     1       4.697  -0.301  22.542  0.00  0.00    +0.175 C 
ATOM     15  C   UNL     1       4.423  -1.417  23.550  0.00  0.00    +0.044 C 
ATOM     16  C   UNL     1       5.023   1.018  23.241  0.00  0.00    +0.044 C 
ATOM     17  C   UNL     1       5.573  -1.575  24.538  0.00  0.00    +0.004 C 
ATOM     18  C   UNL     1       6.174   0.861  24.230  0.00  0.00    +0.004 C 
ATOM     19  C   UNL     1       5.902  -0.256  25.234  0.00  0.00    +0.000 C 
ENDBRANCH   1  14
ENDBRANCH  23   1
ENDBRANCH  22  24
BRANCH  13   7
ATOM      3  N   UNL     1      -5.125   1.116  25.404  0.00  0.00    -0.291 NA
ATOM      7  C   UNL     1      -4.522   2.234  24.650  0.00  0.00    +0.146 C 
ATOM      8  C   UNL     1      -4.990   3.501  25.390  0.00  0.00    +0.030 C 
ATOM      9  C   UNL     1      -6.349   1.640  26.011  0.00  0.00    +0.085 C 
ATOM     10  C   UNL     1      -5.897   3.000  26.504  0.00  0.00    +0.017 C 
BRANCH   3  11
ATOM     11  C   UNL     1      -5.380  -0.060  24.581  0.00  0.00    +0.088 C 
BRANCH  11  12
ATOM     12  C   UNL     1      -4.141  -0.960  24.441  0.00  0.00    -0.003 C 
ATOM     20  C   UNL     1      -4.457  -2.295  23.762  0.00  0.00    +0.008 C 
ATOM     21  C   UNL     1      -3.529  -1.216  25.821  0.00  0.00    +0.008 C 
ENDBRANCH  11  12
ENDBRANCH   3  11
ENDBRANCH  13   7
TORSDOF 6
ENDMDL
MODEL 3
REMARK VINA RESULT:       2.6      1.654      2.921
REMARK  Name = 45783584
REMARK  8 active torsions:
REMARK  status: ('A' for Active; 'I' for Inactive)
REMARK    1  A    between atoms: O_1  and  C_14
REMARK    2  A    between atoms: O_1  and  C_23
REMARK    3  A    between atoms: N_3  and  C_11
REMARK    4  A    between atoms: C_7  and  C_13
REMARK    5  A    between atoms: C_11  and  C_12
REMARK    6  A    between atoms: C_12  and  C_20
REMARK    7  A    between atoms: C_12  and  C_21
REMARK    8  A    between atoms: C_22  and  C_24
REMARK                            x       y       z     vdW  Elec       q    Type
REMARK                         _______ _______ _______ _____ _____    ______ ____
ROOT
ATOM      2  O   UNL     1      -2.900   3.623  24.729  0.00  0.00    -0.336 OA
ATOM      4  N   UNL     1      -2.721   1.496  24.048  0.00  0.00    -0.190 NA
ATOM      5  N   UNL     1      -1.545   3.419  24.441  0.00  0.00    -0.056 NA
ATOM     13  C   UNL     1      -3.521   2.442  24.472  0.00  0.00    +0.245 A 
ATOM     22  C   UNL     1      -1.520   2.142  24.045  0.00  0.00    +0.204 A 
ENDROOT
BRANCH  22  24
ATOM      6  N   UNL     1       2.095   1.538  23.420  0.00  0.00    -0.221 NA
ATOM     23  C   UNL     1       2.028   0.292  22.900  0.00  0.00    +0.215 A 
ATOM     24  C   UNL     1      -0.311   1.483  23.645  0.00  0.00    +0.041 A 
ATOM     25  C   UNL     1       0.848  -0.412  22.723  0.00  0.00    +0.068 A 
ATOM     26  C   UNL     1      -0.340   0.202  23.105  0.00  0.00    +0.018 A 
ATOM     27  C   UNL     1       0.921   2.103  23.779  0.00  0.00    +0.126 A 
BRANCH  23   1
ATOM      1  O   UNL     1       3.210  -0.291  22.532  0.00  0.00    -0.473 OA
BRANCH   1  14
ATOM     14  C   UNL     1       4.279  -0.218  23.469  0.00  0.00    +0.175 C 
ATOM     15  C   UNL     1       5.342   0.755  22.961  0.00  0.00    +0.044 C 
ATOM     16  C   UNL     1       4.859  -1.614  23.696  0.00  0.00    +0.044 C 
ATOM     17  C   UNL     1       6.554   0.795  23.885  0.00  0.00    +0.004 C 
ATOM     18  C   UNL     1       6.072  -1.575  24.620  0.00  0.00    +0.004 C 
ATOM     19  C   UNL     1       7.132  -0.600  24.114  0.00  0.00    +0.000 C 
ENDBRANCH   1  14
ENDBRANCH  23   1
ENDBRANCH  22  24
BRANCH  13   7
ATOM      3  N   UNL     1      -5.431   1.242  25.524  0.00  0.00    -0.291 NA
ATOM      7  C   UNL     1      -5.017   2.401  24.708  0.00  0.00    +0.146 C 
ATOM      8  C   UNL     1      -5.530   3.628  25.482  0.00  0.00    +0.030 C 
ATOM      9  C   UNL     1      -6.634   1.655  26.247  0.00  0.00    +0.085 C 
ATOM     10  C   UNL     1      -6.271   3.060  26.684  0.00  0.00    +0.017 C 
BRANCH   3  11
ATOM     11  C   UNL     1      -5.650   0.034  24.738  0.00  0.00    +0.088 C 
BRANCH  11  12
ATOM     12  C   UNL     1      -4.353  -0.761  24.508  0.00  0.00    -0.003 C 
ATOM     20  C   UNL     1      -4.587  -2.051  23.717  0.00  0.00    +0.008 C 
ATOM     21  C   UNL     1      -3.705  -1.092  25.855  0.00  0.00    +0.008 C 
ENDBRANCH  11  12
ENDBRANCH   3  11
ENDBRANCH  13   7
TORSDOF 6
ENDMDL
