MODEL 1
REMARK VINA RESULT:      -3.0      0.000      0.000
REMARK  Name = 75536253
REMARK  7 active torsions:
REMARK  status: ('A' for Active; 'I' for Inactive)
REMARK    1  A    between atoms: O_3  and  C_9
REMARK    2  A    between atoms: N_5  and  C_11
REMARK    3  A    between atoms: N_5  and  C_14
REMARK    4  A    between atoms: C_8  and  C_14
REMARK    5  A    between atoms: C_10  and  C_17
REMARK    6  A    between atoms: C_17  and  C_20
REMARK    7  A    between atoms: C_22  and  C_23
REMARK                            x       y       z     vdW  Elec       q    Type
REMARK                         _______ _______ _______ _____ _____    ______ ____
ROOT
ATOM      2  O   UNL     1      -4.148   2.230  23.804  0.00  0.00    -0.369 OA
ATOM      8  C   UNL     1      -4.868   2.976  24.794  0.00  0.00    +0.161 C 
ATOM      9  C   UNL     1      -5.911   2.103  25.503  0.00  0.00    +0.145 C 
ATOM     10  C   UNL     1      -3.510   1.044  24.281  0.00  0.00    +0.125 C 
ATOM     12  C   UNL     1      -5.324   0.783  25.997  0.00  0.00    +0.036 C 
ATOM     13  C   UNL     1      -4.533   0.089  24.892  0.00  0.00    +0.034 C 
ENDROOT
BRANCH   9   3
ATOM      3  O   UNL     1      -6.959   1.795  24.579  0.00  0.00    -0.389 OA
ATOM     31  H   UNL     1      -7.652   2.468  24.686  0.00  0.00    +0.210 HD
ENDBRANCH   9   3
BRANCH   8  14
ATOM     14  C   UNL     1      -3.912   3.669  25.763  0.00  0.00    +0.115 C 
BRANCH  14   5
ATOM      5  N   UNL     1      -2.967   4.511  25.047  0.00  0.00    -0.311 NA
ATOM     29  H   UNL     1      -3.112   4.387  24.044  0.00  0.00    +0.122 HD
BRANCH   5  11
ATOM      6  N   UNL     1       0.518   2.118  25.528  0.00  0.00    -0.316 NA
ATOM     11  C   UNL     1      -1.589   4.149  25.374  0.00  0.00    +0.056 C 
ATOM     15  C   UNL     1      -0.843   3.649  24.131  0.00  0.00    +0.034 C 
ATOM     16  C   UNL     1      -1.569   3.076  26.467  0.00  0.00    +0.034 C 
ATOM     18  C   UNL     1       0.557   3.158  24.498  0.00  0.00    +0.082 C 
ATOM     19  C   UNL     1      -0.140   2.607  26.743  0.00  0.00    +0.082 C 
ATOM     30  H   UNL     1       1.469   1.830  25.753  0.00  0.00    +0.122 HD
ENDBRANCH   5  11
ENDBRANCH  14   5
ENDBRANCH   8  14
BRANCH  10  17
ATOM     17  C   UNL     1      -2.802   0.396  23.097  0.00  0.00    +0.090 C 
BRANCH  17  20
ATOM      4  O   UNL     1       0.289  -0.846  24.472  0.00  0.00    -0.354 OA
ATOM      7  N   UNL     1      -1.096  -0.740  24.461  0.00  0.00    -0.083 NA
ATOM     20  C   UNL     1      -1.373   0.053  23.421  0.00  0.00    +0.087 A 
ATOM     21  C   UNL     1      -0.213   0.474  22.747  0.00  0.00    +0.076 A 
ATOM     22  C   UNL     1       0.804  -0.120  23.447  0.00  0.00    +0.167 A 
BRANCH  22  23
ATOM      1  F   UNL     1       6.348  -0.178  22.995  0.00  0.00    -0.205 F 
ATOM     23  C   UNL     1       2.233  -0.136  23.329  0.00  0.00    +0.020 A 
ATOM     24  C   UNL     1       2.955  -1.254  23.746  0.00  0.00    +0.014 A 
ATOM     25  C   UNL     1       2.901   0.968  22.799  0.00  0.00    +0.014 A 
ATOM     26  C   UNL     1       4.345  -1.269  23.633  0.00  0.00    +0.039 A 
ATOM     27  C   UNL     1       4.291   0.953  22.686  0.00  0.00    +0.039 A 
ATOM     28  C   UNL     1       5.013  -0.165  23.104  0.00  0.00    +0.123 A 
ENDBRANCH  22  23
ENDBRANCH  17  20
ENDBRANCH  10  17
TORSDOF 7
ENDMDL
MODEL 2
REMARK VINA RESULT:      -1.7      1.844      3.821
REMARK  Name = 75536253
REMARK  7 active torsions:
REMARK  status: ('A' for Active; 'I' for Inactive)
REMARK    1  A    between atoms: O_3  and  C_9
REMARK    2  A    between atoms: N_5  and  C_11
REMARK    3  A    between atoms: N_5  and  C_14
REMARK    4  A    between atoms: C_8  and  C_14
REMARK    5  A    between atoms: C_10  and  C_17
REMARK    6  A    between atoms: C_17  and  C_20
REMARK    7  A    between atoms: C_22  and  C_23
REMARK                            x       y       z     vdW  Elec       q    Type
REMARK                         _______ _______ _______ _____ _____    ______ ____
ROOT
ATOM      2  O   UNL     1      -3.869   2.220  25.858  0.00  0.00    -0.369 OA
ATOM      8  C   UNL     1      -5.033   1.479  25.470  0.00  0.00    +0.161 C 
ATOM      9  C   UNL     1      -6.320   2.240  25.813  0.00  0.00    +0.145 C 
ATOM     10  C   UNL     1      -3.782   3.541  25.320  0.00  0.00    +0.125 C 
ATOM     12  C   UNL     1      -6.289   3.685  25.322  0.00  0.00    +0.036 C 
ATOM     13  C   UNL     1      -4.992   4.375  25.737  0.00  0.00    +0.034 C 
ENDROOT
BRANCH   9   3
ATOM      3  O   UNL     1      -6.476   2.266  27.234  0.00  0.00    -0.389 OA
ATOM     31  H   UNL     1      -6.149   3.125  27.550  0.00  0.00    +0.210 HD
ENDBRANCH   9   3
BRANCH   8  14
ATOM     14  C   UNL     1      -4.958   1.066  24.001  0.00  0.00    +0.115 C 
BRANCH  14   5
ATOM      5  N   UNL     1      -3.575   0.921  23.574  0.00  0.00    -0.311 NA
ATOM     29  H   UNL     1      -3.498   1.228  22.603  0.00  0.00    +0.122 HD
BRANCH   5  11
ATOM      6  N   UNL     1      -2.901  -2.944  25.220  0.00  0.00    -0.316 NA
ATOM     11  C   UNL     1      -3.141  -0.472  23.665  0.00  0.00    +0.056 C 
ATOM     15  C   UNL     1      -4.335  -1.403  23.908  0.00  0.00    +0.034 C 
ATOM     16  C   UNL     1      -2.109  -0.633  24.786  0.00  0.00    +0.034 C 
ATOM     18  C   UNL     1      -3.866  -2.842  24.123  0.00  0.00    +0.082 C 
ATOM     19  C   UNL     1      -1.728  -2.103  24.966  0.00  0.00    +0.082 C 
ATOM     30  H   UNL     1      -2.604  -3.914  25.319  0.00  0.00    +0.122 HD
ENDBRANCH   5  11
ENDBRANCH  14   5
ENDBRANCH   8  14
BRANCH  10  17
ATOM     17  C   UNL     1      -2.491   4.163  25.838  0.00  0.00    +0.090 C 
BRANCH  17  20
ATOM      4  O   UNL     1       0.491   2.138  25.833  0.00  0.00    -0.354 OA
ATOM      7  N   UNL     1      -0.497   2.870  26.481  0.00  0.00    -0.083 NA
ATOM     20  C   UNL     1      -1.291   3.318  25.504  0.00  0.00    +0.087 A 
ATOM     21  C   UNL     1      -0.858   2.904  24.232  0.00  0.00    +0.076 A 
ATOM     22  C   UNL     1       0.266   2.165  24.494  0.00  0.00    +0.167 A 
BRANCH  22  23
ATOM      1  F   UNL     1       3.927  -0.619  21.367  0.00  0.00    -0.205 F 
ATOM     23  C   UNL     1       1.210   1.447  23.690  0.00  0.00    +0.020 A 
ATOM     24  C   UNL     1       2.521   1.908  23.574  0.00  0.00    +0.014 A 
ATOM     25  C   UNL     1       0.817   0.288  23.021  0.00  0.00    +0.014 A 
ATOM     26  C   UNL     1       3.439   1.210  22.790  0.00  0.00    +0.039 A 
ATOM     27  C   UNL     1       1.735  -0.410  22.236  0.00  0.00    +0.039 A 
ATOM     28  C   UNL     1       3.046   0.052  22.121  0.00  0.00    +0.123 A 
ENDBRANCH  22  23
ENDBRANCH  17  20
ENDBRANCH  10  17
TORSDOF 7
ENDMDL
MODEL 3
REMARK VINA RESULT:      -1.0      1.766      2.728
REMARK  Name = 75536253
REMARK  7 active torsions:
REMARK  status: ('A' for Active; 'I' for Inactive)
REMARK    1  A    between atoms: O_3  and  C_9
REMARK    2  A    between atoms: N_5  and  C_11
REMARK    3  A    between atoms: N_5  and  C_14
REMARK    4  A    between atoms: C_8  and  C_14
REMARK    5  A    between atoms: C_10  and  C_17
REMARK    6  A    between atoms: C_17  and  C_20
REMARK    7  A    between atoms: C_22  and  C_23
REMARK                            x       y       z     vdW  Elec       q    Type
REMARK                         _______ _______ _______ _____ _____    ______ ____
ROOT
ATOM      2  O   UNL     1      -3.643   0.504  23.717  0.00  0.00    -0.369 OA
ATOM      8  C   UNL     1      -4.583  -0.164  24.567  0.00  0.00    +0.161 C 
ATOM      9  C   UNL     1      -3.966  -1.412  25.211  0.00  0.00    +0.145 C 
ATOM     10  C   UNL     1      -2.409   0.867  24.341  0.00  0.00    +0.125 C 
ATOM     12  C   UNL     1      -2.612  -1.125  25.855  0.00  0.00    +0.036 C 
ATOM     13  C   UNL     1      -1.700  -0.367  24.895  0.00  0.00    +0.034 C 
ENDROOT
BRANCH   9   3
ATOM      3  O   UNL     1      -3.766  -2.402  24.198  0.00  0.00    -0.389 OA
ATOM     31  H   UNL     1      -3.523  -1.938  23.378  0.00  0.00    +0.210 HD
ENDBRANCH   9   3
BRANCH   8  14
ATOM     14  C   UNL     1      -5.181   0.801  25.590  0.00  0.00    +0.115 C 
BRANCH  14   5
ATOM      5  N   UNL     1      -5.826   1.924  24.928  0.00  0.00    -0.311 NA
ATOM     29  H   UNL     1      -5.896   1.720  23.930  0.00  0.00    +0.122 HD
BRANCH   5  11
ATOM      6  N   UNL     1      -2.465   4.526  25.113  0.00  0.00    -0.316 NA
ATOM     11  C   UNL     1      -5.053   3.151  25.107  0.00  0.00    +0.056 C 
ATOM     15  C   UNL     1      -4.330   3.539  23.811  0.00  0.00    +0.034 C 
ATOM     16  C   UNL     1      -4.040   2.979  26.244  0.00  0.00    +0.034 C 
ATOM     18  C   UNL     1      -3.428   4.753  24.033  0.00  0.00    +0.082 C 
ATOM     19  C   UNL     1      -3.149   4.215  26.371  0.00  0.00    +0.082 C 
ATOM     30  H   UNL     1      -1.895   5.363  25.238  0.00  0.00    +0.122 HD
ENDBRANCH   5  11
ENDBRANCH  14   5
ENDBRANCH   8  14
BRANCH  10  17
ATOM     17  C   UNL     1      -1.550   1.560  23.290  0.00  0.00    +0.090 C 
BRANCH  17  20
ATOM      4  O   UNL     1       1.199  -0.607  22.434  0.00  0.00    -0.354 OA
ATOM      7  N   UNL     1      -0.143  -0.248  22.392  0.00  0.00    -0.083 NA
ATOM     20  C   UNL     1      -0.222   0.874  23.114  0.00  0.00    +0.087 A 
ATOM     21  C   UNL     1       1.024   1.266  23.631  0.00  0.00    +0.076 A 
ATOM     22  C   UNL     1       1.885   0.302  23.174  0.00  0.00    +0.167 A 
BRANCH  22  23
ATOM      1  F   UNL     1       7.345  -0.624  23.696  0.00  0.00    -0.205 F 
ATOM     23  C   UNL     1       3.292   0.063  23.307  0.00  0.00    +0.020 A 
ATOM     24  C   UNL     1       3.751  -1.189  23.719  0.00  0.00    +0.014 A 
ATOM     25  C   UNL     1       4.202   1.081  23.027  0.00  0.00    +0.014 A 
ATOM     26  C   UNL     1       5.120  -1.421  23.850  0.00  0.00    +0.039 A 
ATOM     27  C   UNL     1       5.571   0.849  23.158  0.00  0.00    +0.039 A 
ATOM     28  C   UNL     1       6.030  -0.402  23.570  0.00  0.00    +0.123 A 
ENDBRANCH  22  23
ENDBRANCH  17  20
ENDBRANCH  10  17
TORSDOF 7
ENDMDL
MODEL 4
REMARK VINA RESULT:      -0.9      1.717      3.382
REMARK  Name = 75536253
REMARK  7 active torsions:
REMARK  status: ('A' for Active; 'I' for Inactive)
REMARK    1  A    between atoms: O_3  and  C_9
REMARK    2  A    between atoms: N_5  and  C_11
REMARK    3  A    between atoms: N_5  and  C_14
REMARK    4  A    between atoms: C_8  and  C_14
REMARK    5  A    between atoms: C_10  and  C_17
REMARK    6  A    between atoms: C_17  and  C_20
REMARK    7  A    between atoms: C_22  and  C_23
REMARK                            x       y       z     vdW  Elec       q    Type
REMARK                         _______ _______ _______ _____ _____    ______ ____
ROOT
ATOM      2  O   UNL     1      -3.375   1.514  25.374  0.00  0.00    -0.369 OA
ATOM      8  C   UNL     1      -4.628   0.819  25.362  0.00  0.00    +0.161 C 
ATOM      9  C   UNL     1      -5.808   1.797  25.287  0.00  0.00    +0.145 C 
ATOM     10  C   UNL     1      -3.165   2.408  24.279  0.00  0.00    +0.125 C 
ATOM     12  C   UNL     1      -5.638   2.828  24.174  0.00  0.00    +0.036 C 
ATOM     13  C   UNL     1      -4.257   3.475  24.236  0.00  0.00    +0.034 C 
ENDROOT
BRANCH   9   3
ATOM      3  O   UNL     1      -5.901   2.504  26.526  0.00  0.00    -0.389 OA
ATOM     31  H   UNL     1      -6.069   1.850  27.226  0.00  0.00    +0.210 HD
ENDBRANCH   9   3
BRANCH   8  14
ATOM     14  C   UNL     1      -4.660  -0.240  24.262  0.00  0.00    +0.115 C 
BRANCH  14   5
ATOM      5  N   UNL     1      -4.616  -1.579  24.830  0.00  0.00    -0.311 NA
ATOM     29  H   UNL     1      -5.238  -1.612  25.639  0.00  0.00    +0.122 HD
BRANCH   5  11
ATOM      6  N   UNL     1      -0.388  -1.347  25.246  0.00  0.00    -0.316 NA
ATOM     11  C   UNL     1      -3.262  -1.921  25.260  0.00  0.00    +0.056 C 
ATOM     15  C   UNL     1      -2.650  -0.792  26.098  0.00  0.00    +0.034 C 
ATOM     16  C   UNL     1      -2.378  -2.214  24.043  0.00  0.00    +0.034 C 
ATOM     18  C   UNL     1      -1.193  -1.100  26.444  0.00  0.00    +0.082 C 
ATOM     19  C   UNL     1      -0.931  -2.466  24.470  0.00  0.00    +0.082 C 
ATOM     30  H   UNL     1       0.570  -1.563  25.521  0.00  0.00    +0.122 HD
ENDBRANCH   5  11
ENDBRANCH  14   5
ENDBRANCH   8  14
BRANCH  10  17
ATOM     17  C   UNL     1      -1.792   3.045  24.463  0.00  0.00    +0.090 C 
BRANCH  17  20
ATOM      4  O   UNL     1       0.248   0.435  23.042  0.00  0.00    -0.354 OA
ATOM      7  N   UNL     1      -0.980   1.035  23.297  0.00  0.00    -0.083 NA
ATOM     20  C   UNL     1      -0.688   2.131  24.003  0.00  0.00    +0.087 A 
ATOM     21  C   UNL     1       0.693   2.273  24.222  0.00  0.00    +0.076 A 
ATOM     22  C   UNL     1       1.237   1.182  23.598  0.00  0.00    +0.167 A 
BRANCH  22  23
ATOM      1  F   UNL     1       6.405  -0.747  22.882  0.00  0.00    -0.205 F 
ATOM     23  C   UNL     1       2.569   0.685  23.415  0.00  0.00    +0.020 A 
ATOM     24  C   UNL     1       3.573   1.536  22.951  0.00  0.00    +0.014 A 
ATOM     25  C   UNL     1       2.861  -0.649  23.697  0.00  0.00    +0.014 A 
ATOM     26  C   UNL     1       4.868   1.052  22.771  0.00  0.00    +0.039 A 
ATOM     27  C   UNL     1       4.157  -1.133  23.518  0.00  0.00    +0.039 A 
ATOM     28  C   UNL     1       5.160  -0.282  23.054  0.00  0.00    +0.123 A 
ENDBRANCH  22  23
ENDBRANCH  17  20
ENDBRANCH  10  17
TORSDOF 7
ENDMDL
MODEL 5
REMARK VINA RESULT:       0.4      3.359      7.498
REMARK  Name = 75536253
REMARK  7 active torsions:
REMARK  status: ('A' for Active; 'I' for Inactive)
REMARK    1  A    between atoms: O_3  and  C_9
REMARK    2  A    between atoms: N_5  and  C_11
REMARK    3  A    between atoms: N_5  and  C_14
REMARK    4  A    between atoms: C_8  and  C_14
REMARK    5  A    between atoms: C_10  and  C_17
REMARK    6  A    between atoms: C_17  and  C_20
REMARK    7  A    between atoms: C_22  and  C_23
REMARK                            x       y       z     vdW  Elec       q    Type
REMARK                         _______ _______ _______ _____ _____    ______ ____
ROOT
ATOM      2  O   UNL     1       0.485   0.964  23.268  0.00  0.00    -0.369 OA
ATOM      8  C   UNL     1       0.632  -0.439  23.015  0.00  0.00    +0.161 C 
ATOM      9  C   UNL     1       1.833  -0.719  22.102  0.00  0.00    +0.145 C 
ATOM     10  C   UNL     1       1.639   1.608  23.812  0.00  0.00    +0.125 C 
ATOM     12  C   UNL     1       3.102  -0.019  22.581  0.00  0.00    +0.036 C 
ATOM     13  C   UNL     1       2.835   1.454  22.875  0.00  0.00    +0.034 C 
ENDROOT
BRANCH   9   3
ATOM      3  O   UNL     1       1.537  -0.236  20.789  0.00  0.00    -0.389 OA
ATOM     31  H   UNL     1       1.165   0.658  20.882  0.00  0.00    +0.210 HD
ENDBRANCH   9   3
BRANCH   8  14
ATOM     14  C   UNL     1       0.678  -1.232  24.320  0.00  0.00    +0.115 C 
BRANCH  14   5
ATOM      5  N   UNL     1      -0.202  -0.641  25.317  0.00  0.00    -0.311 NA
ATOM     29  H   UNL     1       0.301  -0.579  26.203  0.00  0.00    +0.122 HD
BRANCH   5  11
ATOM      6  N   UNL     1      -4.148  -2.126  24.743  0.00  0.00    -0.316 NA
ATOM     11  C   UNL     1      -1.399  -1.457  25.509  0.00  0.00    +0.056 C 
ATOM     15  C   UNL     1      -1.722  -2.264  24.245  0.00  0.00    +0.034 C 
ATOM     16  C   UNL     1      -2.590  -0.570  25.887  0.00  0.00    +0.034 C 
ATOM     18  C   UNL     1      -3.039  -3.023  24.406  0.00  0.00    +0.082 C 
ATOM     19  C   UNL     1      -3.874  -1.396  25.984  0.00  0.00    +0.082 C 
ATOM     30  H   UNL     1      -5.001  -2.672  24.856  0.00  0.00    +0.122 HD
ENDBRANCH   5  11
ENDBRANCH  14   5
ENDBRANCH   8  14
BRANCH  10  17
ATOM     17  C   UNL     1       1.292   3.078  24.012  0.00  0.00    +0.090 C 
BRANCH  17  20
ATOM      4  O   UNL     1      -1.920   4.236  25.167  0.00  0.00    -0.354 OA
ATOM      7  N   UNL     1      -0.553   4.396  24.970  0.00  0.00    -0.083 NA
ATOM     20  C   UNL     1      -0.155   3.264  24.382  0.00  0.00    +0.087 A 
ATOM     21  C   UNL     1      -1.216   2.363  24.185  0.00  0.00    +0.076 A 
ATOM     22  C   UNL     1      -2.303   3.022  24.696  0.00  0.00    +0.167 A 
BRANCH  22  23
ATOM      1  F   UNL     1      -7.709   1.822  25.221  0.00  0.00    -0.205 F 
ATOM     23  C   UNL     1      -3.697   2.714  24.830  0.00  0.00    +0.020 A 
ATOM     24  C   UNL     1      -4.519   3.527  25.610  0.00  0.00    +0.014 A 
ATOM     25  C   UNL     1      -4.230   1.600  24.183  0.00  0.00    +0.014 A 
ATOM     26  C   UNL     1      -5.874   3.226  25.742  0.00  0.00    +0.039 A 
ATOM     27  C   UNL     1      -5.585   1.299  24.314  0.00  0.00    +0.039 A 
ATOM     28  C   UNL     1      -6.407   2.112  25.095  0.00  0.00    +0.123 A 
ENDBRANCH  22  23
ENDBRANCH  17  20
ENDBRANCH  10  17
TORSDOF 7
ENDMDL
MODEL 6
REMARK VINA RESULT:       0.8      1.945      3.594
REMARK  Name = 75536253
REMARK  7 active torsions:
REMARK  status: ('A' for Active; 'I' for Inactive)
REMARK    1  A    between atoms: O_3  and  C_9
REMARK    2  A    between atoms: N_5  and  C_11
REMARK    3  A    between atoms: N_5  and  C_14
REMARK    4  A    between atoms: C_8  and  C_14
REMARK    5  A    between atoms: C_10  and  C_17
REMARK    6  A    between atoms: C_17  and  C_20
REMARK    7  A    between atoms: C_22  and  C_23
REMARK                            x       y       z     vdW  Elec       q    Type
REMARK                         _______ _______ _______ _____ _____    ______ ____
ROOT
ATOM      2  O   UNL     1      -2.819   1.608  24.520  0.00  0.00    -0.369 OA
ATOM      8  C   UNL     1      -3.592   2.412  25.419  0.00  0.00    +0.161 C 
ATOM      9  C   UNL     1      -3.520   3.898  25.043  0.00  0.00    +0.145 C 
ATOM     10  C   UNL     1      -3.152   1.751  23.137  0.00  0.00    +0.125 C 
ATOM     12  C   UNL     1      -3.809   4.136  23.563  0.00  0.00    +0.036 C 
ATOM     13  C   UNL     1      -2.980   3.200  22.687  0.00  0.00    +0.034 C 
ENDROOT
BRANCH   9   3
ATOM      3  O   UNL     1      -2.201   4.379  25.313  0.00  0.00    -0.389 OA
ATOM     31  H   UNL     1      -1.842   4.734  24.482  0.00  0.00    +0.210 HD
ENDBRANCH   9   3
BRANCH   8  14
ATOM     14  C   UNL     1      -5.025   1.893  25.529  0.00  0.00    +0.115 C 
BRANCH  14   5
ATOM      5  N   UNL     1      -5.044   0.522  26.016  0.00  0.00    -0.311 NA
ATOM     29  H   UNL     1      -4.732   0.515  26.988  0.00  0.00    +0.122 HD
BRANCH   5  11
ATOM      6  N   UNL     1      -3.265  -3.003  24.431  0.00  0.00    -0.316 NA
ATOM     11  C   UNL     1      -4.152  -0.326  25.227  0.00  0.00    +0.056 C 
ATOM     15  C   UNL     1      -4.947  -1.190  24.241  0.00  0.00    +0.034 C 
ATOM     16  C   UNL     1      -3.312  -1.215  26.150  0.00  0.00    +0.034 C 
ATOM     18  C   UNL     1      -4.025  -2.161  23.503  0.00  0.00    +0.082 C 
ATOM     19  C   UNL     1      -2.454  -2.185  25.337  0.00  0.00    +0.082 C 
ATOM     30  H   UNL     1      -2.654  -3.623  23.900  0.00  0.00    +0.122 HD
ENDBRANCH   5  11
ENDBRANCH  14   5
ENDBRANCH   8  14
BRANCH  10  17
ATOM     17  C   UNL     1      -2.235   0.825  22.346  0.00  0.00    +0.090 C 
BRANCH  17  20
ATOM      4  O   UNL     1       0.884   1.590  23.982  0.00  0.00    -0.354 OA
ATOM      7  N   UNL     1      -0.474   1.792  23.770  0.00  0.00    -0.083 NA
ATOM     20  C   UNL     1      -0.813   0.899  22.834  0.00  0.00    +0.087 A 
ATOM     21  C   UNL     1       0.280   0.116  22.423  0.00  0.00    +0.076 A 
ATOM     22  C   UNL     1       1.322   0.590  23.175  0.00  0.00    +0.167 A 
BRANCH  22  23
ATOM      1  F   UNL     1       6.725  -0.667  23.593  0.00  0.00    -0.205 F 
ATOM     23  C   UNL     1       2.715   0.267  23.284  0.00  0.00    +0.020 A 
ATOM     24  C   UNL     1       3.679   1.235  23.005  0.00  0.00    +0.014 A 
ATOM     25  C   UNL     1       3.104  -1.016  23.667  0.00  0.00    +0.014 A 
ATOM     26  C   UNL     1       5.034   0.919  23.110  0.00  0.00    +0.039 A 
ATOM     27  C   UNL     1       4.459  -1.332  23.771  0.00  0.00    +0.039 A 
ATOM     28  C   UNL     1       5.424  -0.364  23.492  0.00  0.00    +0.123 A 
ENDBRANCH  22  23
ENDBRANCH  17  20
ENDBRANCH  10  17
TORSDOF 7
ENDMDL
MODEL 7
REMARK VINA RESULT:       0.9      2.184      3.448
REMARK  Name = 75536253
REMARK  7 active torsions:
REMARK  status: ('A' for Active; 'I' for Inactive)
REMARK    1  A    between atoms: O_3  and  C_9
REMARK    2  A    between atoms: N_5  and  C_11
REMARK    3  A    between atoms: N_5  and  C_14
REMARK    4  A    between atoms: C_8  and  C_14
REMARK    5  A    between atoms: C_10  and  C_17
REMARK    6  A    between atoms: C_17  and  C_20
REMARK    7  A    between atoms: C_22  and  C_23
REMARK                            x       y       z     vdW  Elec       q    Type
REMARK                         _______ _______ _______ _____ _____    ______ ____
ROOT
ATOM      2  O   UNL     1      -1.016   2.450  24.336  0.00  0.00    -0.369 OA
ATOM      8  C   UNL     1      -1.256   2.895  25.677  0.00  0.00    +0.161 C 
ATOM      9  C   UNL     1      -2.450   3.855  25.743  0.00  0.00    +0.145 C 
ATOM     10  C   UNL     1      -2.135   1.840  23.689  0.00  0.00    +0.125 C 
ATOM     12  C   UNL     1      -3.678   3.304  25.022  0.00  0.00    +0.036 C 
ATOM     13  C   UNL     1      -3.315   2.807  23.626  0.00  0.00    +0.034 C 
ENDROOT
BRANCH   9   3
ATOM      3  O   UNL     1      -2.088   5.085  25.109  0.00  0.00    -0.389 OA
ATOM     31  H   UNL     1      -2.866   5.667  25.131  0.00  0.00    +0.210 HD
ENDBRANCH   9   3
BRANCH   8  14
ATOM     14  C   UNL     1      -1.389   1.711  26.634  0.00  0.00    +0.115 C 
BRANCH  14   5
ATOM      5  N   UNL     1      -0.551   0.602  26.207  0.00  0.00    -0.311 NA
ATOM     29  H   UNL     1      -0.123   0.840  25.311  0.00  0.00    +0.122 HD
BRANCH   5  11
ATOM      6  N   UNL     1      -3.103  -2.285  24.403  0.00  0.00    -0.316 NA
ATOM     11  C   UNL     1      -1.339  -0.618  26.045  0.00  0.00    +0.056 C 
ATOM     15  C   UNL     1      -0.812  -1.461  24.878  0.00  0.00    +0.034 C 
ATOM     16  C   UNL     1      -2.814  -0.270  25.822  0.00  0.00    +0.034 C 
ATOM     18  C   UNL     1      -1.710  -2.674  24.634  0.00  0.00    +0.082 C 
ATOM     19  C   UNL     1      -3.634  -1.531  25.542  0.00  0.00    +0.082 C 
ATOM     30  H   UNL     1      -3.668  -3.121  24.261  0.00  0.00    +0.122 HD
ENDBRANCH   5  11
ENDBRANCH  14   5
ENDBRANCH   8  14
BRANCH  10  17
ATOM     17  C   UNL     1      -1.690   1.435  22.288  0.00  0.00    +0.090 C 
BRANCH  17  20
ATOM      4  O   UNL     1       1.246  -0.585  21.749  0.00  0.00    -0.354 OA
ATOM      7  N   UNL     1      -0.073  -0.236  21.482  0.00  0.00    -0.083 NA
ATOM     20  C   UNL     1      -0.331   0.788  22.301  0.00  0.00    +0.087 A 
ATOM     21  C   UNL     1       0.776   1.125  23.099  0.00  0.00    +0.076 A 
ATOM     22  C   UNL     1       1.741   0.233  22.713  0.00  0.00    +0.167 A 
BRANCH  22  23
ATOM      1  F   UNL     1       7.020  -0.697  24.200  0.00  0.00    -0.205 F 
ATOM     23  C   UNL     1       3.102  -0.007  23.094  0.00  0.00    +0.020 A 
ATOM     24  C   UNL     1       3.479  -1.260  23.578  0.00  0.00    +0.014 A 
ATOM     25  C   UNL     1       4.047   1.012  22.985  0.00  0.00    +0.014 A 
ATOM     26  C   UNL     1       4.803  -1.493  23.951  0.00  0.00    +0.039 A 
ATOM     27  C   UNL     1       5.370   0.779  23.358  0.00  0.00    +0.039 A 
ATOM     28  C   UNL     1       5.748  -0.474  23.841  0.00  0.00    +0.123 A 
ENDBRANCH  22  23
ENDBRANCH  17  20
ENDBRANCH  10  17
TORSDOF 7
ENDMDL
