MODEL 1
REMARK VINA RESULT:       5.6      0.000      0.000
REMARK  Name = 45784062
REMARK  3 active torsions:
REMARK  status: ('A' for Active; 'I' for Inactive)
REMARK    1  A    between atoms: N_8  and  C_21
REMARK    2  A    between atoms: C_9  and  C_13
REMARK    3  A    between atoms: C_19  and  C_22
REMARK                            x       y       z     vdW  Elec       q    Type
REMARK                         _______ _______ _______ _____ _____    ______ ____
ROOT
ATOM      4  O   UNL     1      -3.750   0.865  23.153  0.00  0.00    -0.252 OA
ATOM      5  N   UNL     1      -2.334  -0.273  24.557  0.00  0.00    -0.285 N 
ATOM      8  N   UNL     1      -3.525   1.572  25.365  0.00  0.00    -0.269 N 
ATOM      9  C   UNL     1      -0.673  -1.918  24.119  0.00  0.00    +0.074 C 
ATOM     10  C   UNL     1      -0.961  -1.873  25.627  0.00  0.00    +0.032 C 
ATOM     11  C   UNL     1      -1.914  -1.230  23.539  0.00  0.00    +0.120 C 
ATOM     12  C   UNL     1      -1.667  -0.537  25.830  0.00  0.00    +0.110 C 
ATOM     14  C   UNL     1      -3.255   0.744  24.275  0.00  0.00    +0.306 C 
ATOM     29  H   UNL     1      -3.032   1.388  26.233  0.00  0.00    +0.156 HD
ENDROOT
BRANCH   9  13
ATOM      6  N   UNL     1       1.840  -1.830  24.250  0.00  0.00    -0.342 N 
ATOM      7  N   UNL     1       0.880  -0.215  23.063  0.00  0.00    -0.232 NA
ATOM     13  C   UNL     1       0.671  -1.290  23.790  0.00  0.00    +0.113 A 
ATOM     15  C   UNL     1       2.871  -1.052  23.792  0.00  0.00    +0.067 A 
ATOM     16  C   UNL     1       2.245  -0.050  23.053  0.00  0.00    +0.089 A 
ATOM     17  C   UNL     1       4.254  -1.135  23.953  0.00  0.00    +0.040 A 
ATOM     18  C   UNL     1       3.031   0.935  22.433  0.00  0.00    +0.030 A 
ATOM     19  C   UNL     1       5.021  -0.145  23.330  0.00  0.00    +0.057 A 
ATOM     20  C   UNL     1       4.422   0.872  22.582  0.00  0.00    +0.014 A 
ATOM     28  H   UNL     1       1.931  -2.656  24.828  0.00  0.00    +0.167 HD
BRANCH  19  22
ATOM      1  F   UNL     1       7.146  -0.633  22.346  0.00  0.00    -0.166 F 
ATOM      2  F   UNL     1       6.923  -0.990  24.480  0.00  0.00    -0.166 F 
ATOM      3  F   UNL     1       7.060   1.043  23.721  0.00  0.00    -0.166 F 
ATOM     22  C   UNL     1       6.508  -0.179  23.465  0.00  0.00    +0.417 C 
ENDBRANCH  19  22
ENDBRANCH   9  13
BRANCH   8  21
ATOM     21  C   UNL     1      -4.401   2.684  25.417  0.00  0.00    +0.035 A 
ATOM     23  C   UNL     1      -5.722   2.512  25.830  0.00  0.00    +0.023 A 
ATOM     24  C   UNL     1      -3.942   3.950  25.055  0.00  0.00    +0.023 A 
ATOM     25  C   UNL     1      -6.584   3.607  25.880  0.00  0.00    +0.002 A 
ATOM     26  C   UNL     1      -4.804   5.045  25.105  0.00  0.00    +0.002 A 
ATOM     27  C   UNL     1      -6.126   4.874  25.518  0.00  0.00    +0.000 A 
ENDBRANCH   8  21
TORSDOF 3
ENDMDL
MODEL 2
REMARK VINA RESULT:       6.7      4.670      8.906
REMARK  Name = 45784062
REMARK  3 active torsions:
REMARK  status: ('A' for Active; 'I' for Inactive)
REMARK    1  A    between atoms: N_8  and  C_21
REMARK    2  A    between atoms: C_9  and  C_13
REMARK    3  A    between atoms: C_19  and  C_22
REMARK                            x       y       z     vdW  Elec       q    Type
REMARK                         _______ _______ _______ _____ _____    ______ ____
ROOT
ATOM      4  O   UNL     1       1.164  -1.473  25.774  0.00  0.00    -0.252 OA
ATOM      5  N   UNL     1      -0.615  -1.856  24.375  0.00  0.00    -0.285 N 
ATOM      8  N   UNL     1       1.418  -1.120  23.482  0.00  0.00    -0.269 N 
ATOM      9  C   UNL     1      -2.920  -2.231  24.829  0.00  0.00    +0.074 C 
ATOM     10  C   UNL     1      -2.623  -2.591  23.366  0.00  0.00    +0.032 C 
ATOM     11  C   UNL     1      -1.518  -2.252  25.451  0.00  0.00    +0.120 C 
ATOM     12  C   UNL     1      -1.289  -1.911  23.080  0.00  0.00    +0.110 C 
ATOM     14  C   UNL     1       0.710  -1.479  24.628  0.00  0.00    +0.306 C 
ATOM     29  H   UNL     1       0.925  -1.139  22.595  0.00  0.00    +0.156 HD
ENDROOT
BRANCH   9  13
ATOM      6  N   UNL     1      -3.050   0.276  25.023  0.00  0.00    -0.342 N 
ATOM      7  N   UNL     1      -5.000  -0.788  24.958  0.00  0.00    -0.232 NA
ATOM     13  C   UNL     1      -3.694  -0.927  24.937  0.00  0.00    +0.113 A 
ATOM     15  C   UNL     1      -4.005   1.257  25.106  0.00  0.00    +0.067 A 
ATOM     16  C   UNL     1      -5.214   0.566  25.064  0.00  0.00    +0.089 A 
ATOM     17  C   UNL     1      -3.918   2.645  25.210  0.00  0.00    +0.040 A 
ATOM     18  C   UNL     1      -6.417   1.288  25.130  0.00  0.00    +0.030 A 
ATOM     19  C   UNL     1      -5.125   3.348  25.276  0.00  0.00    +0.057 A 
ATOM     20  C   UNL     1      -6.354   2.684  25.236  0.00  0.00    +0.014 A 
ATOM     28  H   UNL     1      -2.049   0.420  25.026  0.00  0.00    +0.167 HD
BRANCH  19  22
ATOM      1  F   UNL     1      -4.652   5.460  24.259  0.00  0.00    -0.166 F 
ATOM      2  F   UNL     1      -4.288   5.271  26.395  0.00  0.00    -0.166 F 
ATOM      3  F   UNL     1      -6.324   5.386  25.639  0.00  0.00    -0.166 F 
ATOM     22  C   UNL     1      -5.099   4.837  25.388  0.00  0.00    +0.417 C 
ENDBRANCH  19  22
ENDBRANCH   9  13
BRANCH   8  21
ATOM     21  C   UNL     1       2.766  -0.693  23.390  0.00  0.00    +0.035 A 
ATOM     23  C   UNL     1       3.788  -1.501  23.886  0.00  0.00    +0.023 A 
ATOM     24  C   UNL     1       3.069   0.535  22.801  0.00  0.00    +0.023 A 
ATOM     25  C   UNL     1       5.115  -1.080  23.795  0.00  0.00    +0.002 A 
ATOM     26  C   UNL     1       4.396   0.955  22.711  0.00  0.00    +0.002 A 
ATOM     27  C   UNL     1       5.419   0.147  23.208  0.00  0.00    +0.000 A 
ENDBRANCH   8  21
TORSDOF 3
ENDMDL
