MODEL 1
REMARK VINA RESULT:      -7.4      0.000      0.000
REMARK  Name = 75536915
REMARK  4 active torsions:
REMARK  status: ('A' for Active; 'I' for Inactive)
REMARK    1  A    between atoms: O_2  and  C_10
REMARK    2  A    between atoms: O_2  and  C_13
REMARK    3  A    between atoms: N_3  and  C_7
REMARK    4  A    between atoms: C_4  and  C_7
REMARK                            x       y       z     vdW  Elec       q    Type
REMARK                         _______ _______ _______ _____ _____    ______ ____
ROOT
ATOM      1  O   UNL     1       0.027   3.721  25.510  0.00  0.00    -0.375 OA
ATOM      3  N   UNL     1      -2.764   3.039  24.296  0.00  0.00    -0.296 NA
ATOM      8  C   UNL     1      -2.316   1.680  24.617  0.00  0.00    +0.131 C 
ATOM      9  C   UNL     1      -2.414   4.043  25.302  0.00  0.00    +0.112 C 
ATOM     10  C   UNL     1      -0.957   1.518  25.316  0.00  0.00    +0.213 C 
ATOM     11  C   UNL     1      -1.006   4.577  25.040  0.00  0.00    +0.175 C 
ATOM     12  C   UNL     1       0.119   2.477  24.826  0.00  0.00    +0.205 C 
ENDROOT
BRANCH  10   2
ATOM      2  O   UNL     1      -0.497   0.185  25.090  0.00  0.00    -0.485 OA
BRANCH   2  13
ATOM     13  C   UNL     1      -1.453  -0.792  25.043  0.00  0.00    +0.121 A 
ATOM     14  C   UNL     1      -1.275  -1.903  24.220  0.00  0.00    +0.045 A 
ATOM     15  C   UNL     1      -2.605  -0.677  25.821  0.00  0.00    +0.045 A 
ATOM     16  C   UNL     1      -2.250  -2.899  24.172  0.00  0.00    +0.004 A 
ATOM     17  C   UNL     1      -3.580  -1.674  25.774  0.00  0.00    +0.004 A 
ATOM     18  C   UNL     1      -3.402  -2.785  24.950  0.00  0.00    +0.000 A 
ENDBRANCH   2  13
ENDBRANCH  10   2
BRANCH   3   7
ATOM      7  C   UNL     1      -4.199   3.042  24.011  0.00  0.00    +0.088 C 
BRANCH   7   4
ATOM      4  C   UNL     1      -4.908   1.974  24.779  0.00  0.00    +0.003 C 
ATOM      5  C   UNL     1      -6.410   1.913  24.779  0.00  0.00    +0.005 C 
ATOM      6  C   UNL     1      -5.674   2.320  26.025  0.00  0.00    +0.005 C 
ENDBRANCH   7   4
ENDBRANCH   3   7
TORSDOF 4
ENDMDL
MODEL 2
REMARK VINA RESULT:      -7.0      1.952      3.763
REMARK  Name = 75536915
REMARK  4 active torsions:
REMARK  status: ('A' for Active; 'I' for Inactive)
REMARK    1  A    between atoms: O_2  and  C_10
REMARK    2  A    between atoms: O_2  and  C_13
REMARK    3  A    between atoms: N_3  and  C_7
REMARK    4  A    between atoms: C_4  and  C_7
REMARK                            x       y       z     vdW  Elec       q    Type
REMARK                         _______ _______ _______ _____ _____    ______ ____
ROOT
ATOM      1  O   UNL     1      -3.269   4.595  25.291  0.00  0.00    -0.375 OA
ATOM      3  N   UNL     1      -1.076   2.394  25.014  0.00  0.00    -0.296 NA
ATOM      8  C   UNL     1      -2.259   1.576  24.726  0.00  0.00    +0.131 C 
ATOM      9  C   UNL     1      -1.116   3.737  24.433  0.00  0.00    +0.112 C 
ATOM     10  C   UNL     1      -3.625   2.277  24.692  0.00  0.00    +0.213 C 
ATOM     11  C   UNL     1      -1.853   4.691  25.373  0.00  0.00    +0.175 C 
ATOM     12  C   UNL     1      -3.804   3.358  25.750  0.00  0.00    +0.205 C 
ENDROOT
BRANCH  10   2
ATOM      2  O   UNL     1      -4.637   1.289  24.897  0.00  0.00    -0.485 OA
BRANCH   2  13
ATOM     13  C   UNL     1      -4.222  -0.013  24.931  0.00  0.00    +0.121 A 
ATOM     14  C   UNL     1      -3.630  -0.528  26.084  0.00  0.00    +0.045 A 
ATOM     15  C   UNL     1      -4.391  -0.828  23.811  0.00  0.00    +0.045 A 
ATOM     16  C   UNL     1      -3.207  -1.856  26.119  0.00  0.00    +0.004 A 
ATOM     17  C   UNL     1      -3.969  -2.157  23.846  0.00  0.00    +0.004 A 
ATOM     18  C   UNL     1      -3.377  -2.671  24.999  0.00  0.00    +0.000 A 
ENDBRANCH   2  13
ENDBRANCH  10   2
BRANCH   3   7
ATOM      7  C   UNL     1       0.139   1.677  24.625  0.00  0.00    +0.088 C 
BRANCH   7   4
ATOM      4  C   UNL     1      -0.177   0.511  23.746  0.00  0.00    +0.003 C 
ATOM      5  C   UNL     1       0.109  -0.888  24.214  0.00  0.00    +0.005 C 
ATOM      6  C   UNL     1       0.933  -0.281  23.113  0.00  0.00    +0.005 C 
ENDBRANCH   7   4
ENDBRANCH   3   7
TORSDOF 4
ENDMDL
MODEL 3
REMARK VINA RESULT:      -6.6      1.491      4.712
REMARK  Name = 75536915
REMARK  4 active torsions:
REMARK  status: ('A' for Active; 'I' for Inactive)
REMARK    1  A    between atoms: O_2  and  C_10
REMARK    2  A    between atoms: O_2  and  C_13
REMARK    3  A    between atoms: N_3  and  C_7
REMARK    4  A    between atoms: C_4  and  C_7
REMARK                            x       y       z     vdW  Elec       q    Type
REMARK                         _______ _______ _______ _____ _____    ______ ____
ROOT
ATOM      1  O   UNL     1      -1.772  -2.643  24.452  0.00  0.00    -0.375 OA
ATOM      3  N   UNL     1      -3.834  -0.363  24.982  0.00  0.00    -0.296 NA
ATOM      8  C   UNL     1      -2.625   0.453  24.829  0.00  0.00    +0.131 C 
ATOM      9  C   UNL     1      -3.922  -1.491  24.052  0.00  0.00    +0.112 C 
ATOM     10  C   UNL     1      -1.312  -0.266  24.486  0.00  0.00    +0.213 C 
ATOM     11  C   UNL     1      -3.182  -2.700  24.627  0.00  0.00    +0.175 C 
ATOM     12  C   UNL     1      -1.128  -1.606  25.185  0.00  0.00    +0.205 C 
ENDROOT
BRANCH  10   2
ATOM      2  O   UNL     1      -0.228   0.582  24.865  0.00  0.00    -0.485 OA
BRANCH   2  13
ATOM     13  C   UNL     1      -0.488   1.924  24.910  0.00  0.00    +0.121 A 
ATOM     14  C   UNL     1      -1.117   2.477  26.024  0.00  0.00    +0.045 A 
ATOM     15  C   UNL     1      -0.121   2.740  23.839  0.00  0.00    +0.045 A 
ATOM     16  C   UNL     1      -1.382   3.845  26.069  0.00  0.00    +0.004 A 
ATOM     17  C   UNL     1      -0.385   4.109  23.884  0.00  0.00    +0.004 A 
ATOM     18  C   UNL     1      -1.016   4.661  24.998  0.00  0.00    +0.000 A 
ENDBRANCH   2  13
ENDBRANCH  10   2
BRANCH   3   7
ATOM      7  C   UNL     1      -5.025   0.483  24.911  0.00  0.00    +0.088 C 
BRANCH   7   4
ATOM      4  C   UNL     1      -4.733   1.873  25.374  0.00  0.00    +0.003 C 
ATOM      5  C   UNL     1      -5.825   2.906  25.404  0.00  0.00    +0.005 C 
ATOM      6  C   UNL     1      -4.718   3.011  24.392  0.00  0.00    +0.005 C 
ENDBRANCH   7   4
ENDBRANCH   3   7
TORSDOF 4
ENDMDL
MODEL 4
REMARK VINA RESULT:      -6.6      1.802      4.460
REMARK  Name = 75536915
REMARK  4 active torsions:
REMARK  status: ('A' for Active; 'I' for Inactive)
REMARK    1  A    between atoms: O_2  and  C_10
REMARK    2  A    between atoms: O_2  and  C_13
REMARK    3  A    between atoms: N_3  and  C_7
REMARK    4  A    between atoms: C_4  and  C_7
REMARK                            x       y       z     vdW  Elec       q    Type
REMARK                         _______ _______ _______ _____ _____    ______ ____
ROOT
ATOM      1  O   UNL     1       1.114   1.712  23.537  0.00  0.00    -0.375 OA
ATOM      3  N   UNL     1      -0.547  -0.686  24.642  0.00  0.00    -0.296 NA
ATOM      8  C   UNL     1      -1.473   0.403  24.969  0.00  0.00    +0.131 C 
ATOM      9  C   UNL     1       0.120  -0.543  23.347  0.00  0.00    +0.112 C 
ATOM     10  C   UNL     1      -1.086   1.827  24.542  0.00  0.00    +0.213 C 
ATOM     11  C   UNL     1       1.377   0.315  23.499  0.00  0.00    +0.175 C 
ATOM     12  C   UNL     1       0.396   2.145  24.688  0.00  0.00    +0.205 C 
ENDROOT
BRANCH  10   2
ATOM      2  O   UNL     1      -1.817   2.748  25.352  0.00  0.00    -0.485 OA
BRANCH   2  13
ATOM     13  C   UNL     1      -3.180   2.665  25.295  0.00  0.00    +0.121 A 
ATOM     14  C   UNL     1      -3.789   1.518  24.787  0.00  0.00    +0.045 A 
ATOM     15  C   UNL     1      -3.963   3.729  25.746  0.00  0.00    +0.045 A 
ATOM     16  C   UNL     1      -5.180   1.434  24.728  0.00  0.00    +0.004 A 
ATOM     17  C   UNL     1      -5.354   3.644  25.688  0.00  0.00    +0.004 A 
ATOM     18  C   UNL     1      -5.962   2.497  25.179  0.00  0.00    +0.000 A 
ENDBRANCH   2  13
ENDBRANCH  10   2
BRANCH   3   7
ATOM      7  C   UNL     1      -1.227  -1.977  24.755  0.00  0.00    +0.088 C 
BRANCH   7   4
ATOM      4  C   UNL     1      -2.684  -1.800  25.034  0.00  0.00    +0.003 C 
ATOM      5  C   UNL     1      -3.604  -2.990  25.035  0.00  0.00    +0.005 C 
ATOM      6  C   UNL     1      -3.693  -1.972  23.933  0.00  0.00    +0.005 C 
ENDBRANCH   7   4
ENDBRANCH   3   7
TORSDOF 4
ENDMDL
MODEL 5
REMARK VINA RESULT:      -6.0      2.011      3.759
REMARK  Name = 75536915
REMARK  4 active torsions:
REMARK  status: ('A' for Active; 'I' for Inactive)
REMARK    1  A    between atoms: O_2  and  C_10
REMARK    2  A    between atoms: O_2  and  C_13
REMARK    3  A    between atoms: N_3  and  C_7
REMARK    4  A    between atoms: C_4  and  C_7
REMARK                            x       y       z     vdW  Elec       q    Type
REMARK                         _______ _______ _______ _____ _____    ______ ____
ROOT
ATOM      1  O   UNL     1      -5.917   2.955  25.491  0.00  0.00    -0.375 OA
ATOM      3  N   UNL     1      -2.963   2.823  24.499  0.00  0.00    -0.296 NA
ATOM      8  C   UNL     1      -3.343   1.425  24.271  0.00  0.00    +0.131 C 
ATOM      9  C   UNL     1      -4.008   3.794  24.166  0.00  0.00    +0.112 C 
ATOM     10  C   UNL     1      -4.792   1.016  24.576  0.00  0.00    +0.213 C 
ATOM     11  C   UNL     1      -4.944   3.982  25.360  0.00  0.00    +0.175 C 
ATOM     12  C   UNL     1      -5.384   1.675  25.815  0.00  0.00    +0.205 C 
ENDROOT
BRANCH  10   2
ATOM      2  O   UNL     1      -4.823  -0.398  24.771  0.00  0.00    -0.485 OA
BRANCH   2  13
ATOM     13  C   UNL     1      -3.614  -1.029  24.871  0.00  0.00    +0.121 A 
ATOM     14  C   UNL     1      -2.638  -0.534  25.736  0.00  0.00    +0.045 A 
ATOM     15  C   UNL     1      -3.357  -2.169  24.109  0.00  0.00    +0.045 A 
ATOM     16  C   UNL     1      -1.406  -1.178  25.838  0.00  0.00    +0.004 A 
ATOM     17  C   UNL     1      -2.125  -2.813  24.212  0.00  0.00    +0.004 A 
ATOM     18  C   UNL     1      -1.149  -2.317  25.075  0.00  0.00    +0.000 A 
ENDBRANCH   2  13
ENDBRANCH  10   2
BRANCH   3   7
ATOM      7  C   UNL     1      -1.711   3.124  23.804  0.00  0.00    +0.088 C 
BRANCH   7   4
ATOM      4  C   UNL     1      -0.585   3.306  24.769  0.00  0.00    +0.003 C 
ATOM      5  C   UNL     1       0.262   2.131  25.174  0.00  0.00    +0.005 C 
ATOM      6  C   UNL     1      -0.685   2.751  26.163  0.00  0.00    +0.005 C 
ENDBRANCH   7   4
ENDBRANCH   3   7
TORSDOF 4
ENDMDL
MODEL 6
REMARK VINA RESULT:      -4.6      2.444      4.547
REMARK  Name = 75536915
REMARK  4 active torsions:
REMARK  status: ('A' for Active; 'I' for Inactive)
REMARK    1  A    between atoms: O_2  and  C_10
REMARK    2  A    between atoms: O_2  and  C_13
REMARK    3  A    between atoms: N_3  and  C_7
REMARK    4  A    between atoms: C_4  and  C_7
REMARK                            x       y       z     vdW  Elec       q    Type
REMARK                         _______ _______ _______ _____ _____    ______ ____
ROOT
ATOM      1  O   UNL     1      -1.974  -2.336  24.703  0.00  0.00    -0.375 OA
ATOM      3  N   UNL     1      -3.763   0.199  25.022  0.00  0.00    -0.296 NA
ATOM      8  C   UNL     1      -2.504   0.853  24.648  0.00  0.00    +0.131 C 
ATOM      9  C   UNL     1      -4.038  -1.040  24.292  0.00  0.00    +0.112 C 
ATOM     10  C   UNL     1      -1.299  -0.042  24.324  0.00  0.00    +0.213 C 
ATOM     11  C   UNL     1      -3.361  -2.219  24.993  0.00  0.00    +0.175 C 
ATOM     12  C   UNL     1      -1.174  -1.274  25.211  0.00  0.00    +0.205 C 
ENDROOT
BRANCH  10   2
ATOM      2  O   UNL     1      -0.112   0.736  24.480  0.00  0.00    -0.485 OA
BRANCH   2  13
ATOM     13  C   UNL     1       0.884   0.524  23.566  0.00  0.00    +0.121 A 
ATOM     14  C   UNL     1       2.126   1.135  23.732  0.00  0.00    +0.045 A 
ATOM     15  C   UNL     1       0.656  -0.306  22.469  0.00  0.00    +0.045 A 
ATOM     16  C   UNL     1       3.140   0.918  22.801  0.00  0.00    +0.004 A 
ATOM     17  C   UNL     1       1.671  -0.524  21.537  0.00  0.00    +0.004 A 
ATOM     18  C   UNL     1       2.913   0.088  21.703  0.00  0.00    +0.000 A 
ENDBRANCH   2  13
ENDBRANCH  10   2
BRANCH   3   7
ATOM      7  C   UNL     1      -4.874   1.145  24.909  0.00  0.00    +0.088 C 
BRANCH   7   4
ATOM      4  C   UNL     1      -4.498   2.491  25.438  0.00  0.00    +0.003 C 
ATOM      5  C   UNL     1      -5.531   3.578  25.544  0.00  0.00    +0.005 C 
ATOM      6  C   UNL     1      -4.438   3.677  24.516  0.00  0.00    +0.005 C 
ENDBRANCH   7   4
ENDBRANCH   3   7
TORSDOF 4
ENDMDL
MODEL 7
REMARK VINA RESULT:      -4.5     18.904     20.383
REMARK  Name = 75536915
REMARK  4 active torsions:
REMARK  status: ('A' for Active; 'I' for Inactive)
REMARK    1  A    between atoms: O_2  and  C_10
REMARK    2  A    between atoms: O_2  and  C_13
REMARK    3  A    between atoms: N_3  and  C_7
REMARK    4  A    between atoms: C_4  and  C_7
REMARK                            x       y       z     vdW  Elec       q    Type
REMARK                         _______ _______ _______ _____ _____    ______ ____
ROOT
ATOM      1  O   UNL     1      16.508  -7.577  24.978  0.00  0.00    -0.375 OA
ATOM      3  N   UNL     1      16.086  -7.217  28.048  0.00  0.00    -0.296 NA
ATOM      8  C   UNL     1      16.408  -5.829  27.697  0.00  0.00    +0.131 C 
ATOM      9  C   UNL     1      15.237  -7.904  27.072  0.00  0.00    +0.112 C 
ATOM     10  C   UNL     1      16.648  -5.501  26.216  0.00  0.00    +0.213 C 
ATOM     11  C   UNL     1      16.101  -8.513  25.967  0.00  0.00    +0.175 C 
ATOM     12  C   UNL     1      17.405  -6.576  25.448  0.00  0.00    +0.205 C 
ENDROOT
BRANCH  10   2
ATOM      2  O   UNL     1      17.405  -4.292  26.145  0.00  0.00    -0.485 OA
BRANCH   2  13
ATOM     13  C   UNL     1      17.052  -3.404  25.167  0.00  0.00    +0.121 A 
ATOM     14  C   UNL     1      17.144  -2.033  25.402  0.00  0.00    +0.045 A 
ATOM     15  C   UNL     1      16.600  -3.871  23.933  0.00  0.00    +0.045 A 
ATOM     16  C   UNL     1      16.783  -1.128  24.405  0.00  0.00    +0.004 A 
ATOM     17  C   UNL     1      16.240  -2.967  22.934  0.00  0.00    +0.004 A 
ATOM     18  C   UNL     1      16.331  -1.595  23.170  0.00  0.00    +0.000 A 
ENDBRANCH   2  13
ENDBRANCH  10   2
BRANCH   3   7
ATOM      7  C   UNL     1      15.513  -7.276  29.393  0.00  0.00    +0.088 C 
BRANCH   7   4
ATOM      4  C   UNL     1      14.254  -6.477  29.483  0.00  0.00    +0.003 C 
ATOM      5  C   UNL     1      13.858  -5.833  30.783  0.00  0.00    +0.005 C 
ATOM      6  C   UNL     1      13.076  -7.004  30.255  0.00  0.00    +0.005 C 
ENDBRANCH   7   4
ENDBRANCH   3   7
TORSDOF 4
ENDMDL
MODEL 8
REMARK VINA RESULT:      -4.5      2.261      5.236
REMARK  Name = 75536915
REMARK  4 active torsions:
REMARK  status: ('A' for Active; 'I' for Inactive)
REMARK    1  A    between atoms: O_2  and  C_10
REMARK    2  A    between atoms: O_2  and  C_13
REMARK    3  A    between atoms: N_3  and  C_7
REMARK    4  A    between atoms: C_4  and  C_7
REMARK                            x       y       z     vdW  Elec       q    Type
REMARK                         _______ _______ _______ _____ _____    ______ ____
ROOT
ATOM      1  O   UNL     1       1.179   1.057  23.202  0.00  0.00    -0.375 OA
ATOM      3  N   UNL     1      -0.561  -1.234  24.407  0.00  0.00    -0.296 NA
ATOM      8  C   UNL     1      -1.098  -0.109  25.180  0.00  0.00    +0.131 C 
ATOM      9  C   UNL     1      -0.284  -0.924  23.003  0.00  0.00    +0.112 C 
ATOM     10  C   UNL     1      -0.556   1.296  24.873  0.00  0.00    +0.213 C 
ATOM     11  C   UNL     1       1.115  -0.323  22.867  0.00  0.00    +0.175 C 
ATOM     12  C   UNL     1       0.936   1.343  24.575  0.00  0.00    +0.205 C 
ENDROOT
BRANCH  10   2
ATOM      2  O   UNL     1      -0.806   2.126  26.008  0.00  0.00    -0.485 OA
BRANCH   2  13
ATOM     13  C   UNL     1      -1.358   3.352  25.759  0.00  0.00    +0.121 A 
ATOM     14  C   UNL     1      -0.625   4.322  25.076  0.00  0.00    +0.045 A 
ATOM     15  C   UNL     1      -2.656   3.633  26.188  0.00  0.00    +0.045 A 
ATOM     16  C   UNL     1      -1.188   5.573  24.822  0.00  0.00    +0.004 A 
ATOM     17  C   UNL     1      -3.219   4.883  25.933  0.00  0.00    +0.004 A 
ATOM     18  C   UNL     1      -2.485   5.853  25.251  0.00  0.00    +0.000 A 
ENDBRANCH   2  13
ENDBRANCH  10   2
BRANCH   3   7
ATOM      7  C   UNL     1      -1.439  -2.398  24.537  0.00  0.00    +0.088 C 
BRANCH   7   4
ATOM      4  C   UNL     1      -2.832  -1.991  24.889  0.00  0.00    +0.003 C 
ATOM      5  C   UNL     1      -4.002  -2.803  24.406  0.00  0.00    +0.005 C 
ATOM      6  C   UNL     1      -3.749  -1.436  23.833  0.00  0.00    +0.005 C 
ENDBRANCH   7   4
ENDBRANCH   3   7
TORSDOF 4
ENDMDL
MODEL 9
REMARK VINA RESULT:      -4.4     15.061     17.310
REMARK  Name = 75536915
REMARK  4 active torsions:
REMARK  status: ('A' for Active; 'I' for Inactive)
REMARK    1  A    between atoms: O_2  and  C_10
REMARK    2  A    between atoms: O_2  and  C_13
REMARK    3  A    between atoms: N_3  and  C_7
REMARK    4  A    between atoms: C_4  and  C_7
REMARK                            x       y       z     vdW  Elec       q    Type
REMARK                         _______ _______ _______ _____ _____    ______ ____
ROOT
ATOM      1  O   UNL     1      -3.173  -9.836  11.145  0.00  0.00    -0.375 OA
ATOM      3  N   UNL     1      -5.977  -9.086  10.005  0.00  0.00    -0.296 NA
ATOM      8  C   UNL     1      -6.385  -9.525  11.344  0.00  0.00    +0.131 C 
ATOM      9  C   UNL     1      -4.732  -8.317   9.976  0.00  0.00    +0.112 C 
ATOM     10  C   UNL     1      -5.283  -9.952  12.325  0.00  0.00    +0.213 C 
ATOM     11  C   UNL     1      -3.535  -9.265   9.895  0.00  0.00    +0.175 C 
ATOM     12  C   UNL     1      -4.140 -10.729  11.687  0.00  0.00    +0.205 C 
ENDROOT
BRANCH  10   2
ATOM      2  O   UNL     1      -5.876 -10.781  13.326  0.00  0.00    -0.485 OA
BRANCH   2  13
ATOM     13  C   UNL     1      -5.501 -10.543  14.619  0.00  0.00    +0.121 A 
ATOM     14  C   UNL     1      -4.187 -10.781  15.019  0.00  0.00    +0.045 A 
ATOM     15  C   UNL     1      -6.434 -10.061  15.537  0.00  0.00    +0.045 A 
ATOM     16  C   UNL     1      -3.805 -10.539  16.338  0.00  0.00    +0.004 A 
ATOM     17  C   UNL     1      -6.051  -9.818  16.856  0.00  0.00    +0.004 A 
ATOM     18  C   UNL     1      -4.737 -10.057  17.257  0.00  0.00    +0.000 A 
ENDBRANCH   2  13
ENDBRANCH  10   2
BRANCH   3   7
ATOM      7  C   UNL     1      -7.071  -8.359   9.359  0.00  0.00    +0.088 C 
BRANCH   7   4
ATOM      4  C   UNL     1      -8.384  -9.030   9.598  0.00  0.00    +0.003 C 
ATOM      5  C   UNL     1      -9.215  -9.502   8.437  0.00  0.00    +0.005 C 
ATOM      6  C   UNL     1      -9.668  -8.325   9.255  0.00  0.00    +0.005 C 
ENDBRANCH   7   4
ENDBRANCH   3   7
TORSDOF 4
ENDMDL
MODEL 10
REMARK VINA RESULT:      -4.1     15.341     17.500
REMARK  Name = 75536915
REMARK  4 active torsions:
REMARK  status: ('A' for Active; 'I' for Inactive)
REMARK    1  A    between atoms: O_2  and  C_10
REMARK    2  A    between atoms: O_2  and  C_13
REMARK    3  A    between atoms: N_3  and  C_7
REMARK    4  A    between atoms: C_4  and  C_7
REMARK                            x       y       z     vdW  Elec       q    Type
REMARK                         _______ _______ _______ _____ _____    ______ ____
ROOT
ATOM      1  O   UNL     1      -4.263  -9.817  12.044  0.00  0.00    -0.375 OA
ATOM      3  N   UNL     1      -6.312  -9.078   9.812  0.00  0.00    -0.296 NA
ATOM      8  C   UNL     1      -7.253  -9.365  10.900  0.00  0.00    +0.131 C 
ATOM      9  C   UNL     1      -5.104  -8.364  10.232  0.00  0.00    +0.112 C 
ATOM     10  C   UNL     1      -6.671  -9.734  12.273  0.00  0.00    +0.213 C 
ATOM     11  C   UNL     1      -4.050  -9.360  10.716  0.00  0.00    +0.175 C 
ATOM     12  C   UNL     1      -5.430 -10.614  12.215  0.00  0.00    +0.205 C 
ENDROOT
BRANCH  10   2
ATOM      2  O   UNL     1      -7.676 -10.436  13.007  0.00  0.00    -0.485 OA
BRANCH   2  13
ATOM     13  C   UNL     1      -7.999  -9.932  14.237  0.00  0.00    +0.121 A 
ATOM     14  C   UNL     1      -9.218  -9.281  14.426  0.00  0.00    +0.045 A 
ATOM     15  C   UNL     1      -7.109 -10.070  15.302  0.00  0.00    +0.045 A 
ATOM     16  C   UNL     1      -9.547  -8.768  15.680  0.00  0.00    +0.004 A 
ATOM     17  C   UNL     1      -7.439  -9.557  16.557  0.00  0.00    +0.004 A 
ATOM     18  C   UNL     1      -8.657  -8.906  16.745  0.00  0.00    +0.000 A 
ENDBRANCH   2  13
ENDBRANCH  10   2
BRANCH   3   7
ATOM      7  C   UNL     1      -6.997  -8.379   8.725  0.00  0.00    +0.088 C 
BRANCH   7   4
ATOM      4  C   UNL     1      -8.304  -7.816   9.180  0.00  0.00    +0.003 C 
ATOM      5  C   UNL     1      -9.529  -7.958   8.319  0.00  0.00    +0.005 C 
ATOM      6  C   UNL     1      -8.888  -6.610   8.498  0.00  0.00    +0.005 C 
ENDBRANCH   7   4
ENDBRANCH   3   7
TORSDOF 4
ENDMDL
