MODEL 1
REMARK VINA RESULT:      -2.4      0.000      0.000
REMARK  Name = 25338986
REMARK  10 active torsions:
REMARK  status: ('A' for Active; 'I' for Inactive)
REMARK    1  A    between atoms: O_1  and  C_15
REMARK    2  A    between atoms: O_1  and  C_22
REMARK    3  A    between atoms: O_4  and  C_19
REMARK    4  A    between atoms: O_4  and  C_26
REMARK    5  A    between atoms: O_5  and  C_25
REMARK    6  A    between atoms: O_5  and  C_32
REMARK    7  A    between atoms: N_7  and  C_14
REMARK    8  A    between atoms: C_9  and  C_15
REMARK    9  A    between atoms: C_14  and  C_18
REMARK   10  A    between atoms: C_17  and  C_19
REMARK                            x       y       z     vdW  Elec       q    Type
REMARK                         _______ _______ _______ _____ _____    ______ ____
ROOT
ATOM      3  O   UNL     1      11.942  -5.921  32.715  0.00  0.00    -0.272 OA
ATOM      6  N   UNL     1      13.642  -7.147  31.690  0.00  0.00    -0.279 N 
ATOM      7  N   UNL     1      16.028  -9.744  30.422  0.00  0.00    -0.328 N 
ATOM      8  N   UNL     1      17.403  -8.954  31.995  0.00  0.00    -0.240 NA
ATOM      9  C   UNL     1      14.708  -6.315  32.310  0.00  0.00    +0.191 C 
ATOM     10  C   UNL     1      15.903  -7.115  32.872  0.00  0.00    +0.091 C 
ATOM     11  C   UNL     1      15.371  -8.711  31.023  0.00  0.00    +0.059 A 
ATOM     12  C   UNL     1      14.029  -8.195  30.704  0.00  0.00    +0.164 C 
ATOM     13  C   UNL     1      16.236  -8.244  31.980  0.00  0.00    +0.066 A 
ATOM     16  C   UNL     1      17.248  -9.851  31.042  0.00  0.00    +0.200 A 
ATOM     17  C   UNL     1      12.304  -6.782  31.909  0.00  0.00    +0.254 C 
ENDROOT
BRANCH   9  15
ATOM      2  O   UNL     1      14.487  -5.087  30.247  0.00  0.00    -0.249 OA
ATOM     15  C   UNL     1      15.135  -5.334  31.255  0.00  0.00    +0.328 C 
BRANCH  15   1
ATOM      1  O   UNL     1      16.332  -4.781  31.604  0.00  0.00    -0.467 OA
ATOM     22  C   UNL     1      16.678  -3.578  30.911  0.00  0.00    +0.280 C 
ENDBRANCH  15   1
ENDBRANCH   9  15
BRANCH   7  14
ATOM     14  C   UNL     1      15.552 -10.570  29.340  0.00  0.00    +0.158 C 
BRANCH  14  18
ATOM     18  C   UNL     1      15.940 -10.050  27.977  0.00  0.00    -0.028 A 
ATOM     20  C   UNL     1      15.275  -8.951  27.434  0.00  0.00    +0.009 A 
ATOM     21  C   UNL     1      16.963 -10.670  27.260  0.00  0.00    +0.009 A 
ATOM     23  C   UNL     1      15.632  -8.471  26.174  0.00  0.00    +0.046 A 
ATOM     24  C   UNL     1      17.322 -10.190  25.999  0.00  0.00    +0.046 A 
ATOM     25  C   UNL     1      16.656  -9.091  25.457  0.00  0.00    +0.120 A 
BRANCH  25   5
ATOM      5  O   UNL     1      17.006  -8.621  24.229  0.00  0.00    -0.495 OA
ATOM     32  C   UNL     1      17.373  -7.245  24.141  0.00  0.00    +0.277 C 
ENDBRANCH  25   5
ENDBRANCH  14  18
ENDBRANCH   7  14
BRANCH  17  19
ATOM     19  C   UNL     1      11.267  -7.513  31.094  0.00  0.00    +0.324 C 
BRANCH  19   4
ATOM      4  O   UNL     1      10.510  -8.278  31.999  0.00  0.00    -0.483 OA
BRANCH   4  26
ATOM     26  C   UNL     1       9.146  -8.087  32.004  0.00  0.00    +0.121 A 
ATOM     27  C   UNL     1       8.335  -8.827  31.143  0.00  0.00    +0.045 A 
ATOM     28  C   UNL     1       8.576  -7.153  32.869  0.00  0.00    +0.045 A 
ATOM     29  C   UNL     1       6.954  -8.633  31.147  0.00  0.00    +0.004 A 
ATOM     30  C   UNL     1       7.195  -6.959  32.873  0.00  0.00    +0.004 A 
ATOM     31  C   UNL     1       6.384  -7.699  32.012  0.00  0.00    +0.000 A 
ENDBRANCH   4  26
ENDBRANCH  19   4
ENDBRANCH  17  19
TORSDOF 8
ENDMDL
MODEL 2
REMARK VINA RESULT:       0.2     15.023     19.316
REMARK  Name = 25338986
REMARK  10 active torsions:
REMARK  status: ('A' for Active; 'I' for Inactive)
REMARK    1  A    between atoms: O_1  and  C_15
REMARK    2  A    between atoms: O_1  and  C_22
REMARK    3  A    between atoms: O_4  and  C_19
REMARK    4  A    between atoms: O_4  and  C_26
REMARK    5  A    between atoms: O_5  and  C_25
REMARK    6  A    between atoms: O_5  and  C_32
REMARK    7  A    between atoms: N_7  and  C_14
REMARK    8  A    between atoms: C_9  and  C_15
REMARK    9  A    between atoms: C_14  and  C_18
REMARK   10  A    between atoms: C_17  and  C_19
REMARK                            x       y       z     vdW  Elec       q    Type
REMARK                         _______ _______ _______ _____ _____    ______ ____
ROOT
ATOM      3  O   UNL     1       1.532   2.195  23.875  0.00  0.00    -0.272 OA
ATOM      6  N   UNL     1      -0.695   2.242  24.569  0.00  0.00    -0.279 N 
ATOM      7  N   UNL     1      -4.429   2.312  24.889  0.00  0.00    -0.328 N 
ATOM      8  N   UNL     1      -4.149   4.491  25.289  0.00  0.00    -0.240 NA
ATOM      9  C   UNL     1      -0.498   3.496  25.345  0.00  0.00    +0.191 C 
ATOM     10  C   UNL     1      -1.622   4.540  25.177  0.00  0.00    +0.091 C 
ATOM     11  C   UNL     1      -3.084   2.536  24.868  0.00  0.00    +0.059 A 
ATOM     12  C   UNL     1      -2.013   1.550  24.642  0.00  0.00    +0.164 C 
ATOM     13  C   UNL     1      -2.940   3.878  25.118  0.00  0.00    +0.066 A 
ATOM     16  C   UNL     1      -5.028   3.520  25.146  0.00  0.00    +0.200 A 
ATOM     17  C   UNL     1       0.425   1.657  23.958  0.00  0.00    +0.254 C 
ENDROOT
BRANCH   9  15
ATOM      2  O   UNL     1      -1.235   3.080  27.603  0.00  0.00    -0.249 OA
ATOM     15  C   UNL     1      -0.331   3.074  26.778  0.00  0.00    +0.328 C 
BRANCH  15   1
ATOM      1  O   UNL     1       0.961   2.695  26.995  0.00  0.00    -0.467 OA
ATOM     22  C   UNL     1       1.350   2.596  28.368  0.00  0.00    +0.280 C 
ENDBRANCH  15   1
ENDBRANCH   9  15
BRANCH   7  14
ATOM     14  C   UNL     1      -5.107   1.055  24.687  0.00  0.00    +0.158 C 
BRANCH  14  18
ATOM     18  C   UNL     1      -4.190  -0.139  24.771  0.00  0.00    -0.028 A 
ATOM     20  C   UNL     1      -3.866  -0.853  23.618  0.00  0.00    +0.009 A 
ATOM     21  C   UNL     1      -3.664  -0.530  26.003  0.00  0.00    +0.009 A 
ATOM     23  C   UNL     1      -3.018  -1.958  23.695  0.00  0.00    +0.046 A 
ATOM     24  C   UNL     1      -2.815  -1.635  26.081  0.00  0.00    +0.046 A 
ATOM     25  C   UNL     1      -2.493  -2.349  24.927  0.00  0.00    +0.120 A 
BRANCH  25   5
ATOM      5  O   UNL     1      -1.664  -3.425  25.002  0.00  0.00    -0.495 OA
ATOM     32  C   UNL     1      -0.280  -3.163  25.232  0.00  0.00    +0.277 C 
ENDBRANCH  25   5
ENDBRANCH  14  18
ENDBRANCH   7  14
BRANCH  17  19
ATOM     19  C   UNL     1       0.226   0.283  23.367  0.00  0.00    +0.324 C 
BRANCH  19   4
ATOM      4  O   UNL     1       1.210   0.126  22.374  0.00  0.00    -0.483 OA
BRANCH   4  26
ATOM     26  C   UNL     1       2.507  -0.070  22.794  0.00  0.00    +0.121 A 
ATOM     27  C   UNL     1       2.854  -1.244  23.463  0.00  0.00    +0.045 A 
ATOM     28  C   UNL     1       3.473   0.906  22.551  0.00  0.00    +0.045 A 
ATOM     29  C   UNL     1       4.167  -1.442  23.889  0.00  0.00    +0.004 A 
ATOM     30  C   UNL     1       4.787   0.708  22.976  0.00  0.00    +0.004 A 
ATOM     31  C   UNL     1       5.134  -0.466  23.646  0.00  0.00    +0.000 A 
ENDBRANCH   4  26
ENDBRANCH  19   4
ENDBRANCH  17  19
TORSDOF 8
ENDMDL
MODEL 3
REMARK VINA RESULT:       0.4     15.275     18.836
REMARK  Name = 25338986
REMARK  10 active torsions:
REMARK  status: ('A' for Active; 'I' for Inactive)
REMARK    1  A    between atoms: O_1  and  C_15
REMARK    2  A    between atoms: O_1  and  C_22
REMARK    3  A    between atoms: O_4  and  C_19
REMARK    4  A    between atoms: O_4  and  C_26
REMARK    5  A    between atoms: O_5  and  C_25
REMARK    6  A    between atoms: O_5  and  C_32
REMARK    7  A    between atoms: N_7  and  C_14
REMARK    8  A    between atoms: C_9  and  C_15
REMARK    9  A    between atoms: C_14  and  C_18
REMARK   10  A    between atoms: C_17  and  C_19
REMARK                            x       y       z     vdW  Elec       q    Type
REMARK                         _______ _______ _______ _____ _____    ______ ____
ROOT
ATOM      3  O   UNL     1      -5.940   1.230  25.615  0.00  0.00    -0.272 OA
ATOM      6  N   UNL     1      -3.791   1.636  24.805  0.00  0.00    -0.279 N 
ATOM      7  N   UNL     1      -0.137   1.660  23.971  0.00  0.00    -0.328 N 
ATOM      8  N   UNL     1      -0.029   3.364  25.410  0.00  0.00    -0.240 NA
ATOM      9  C   UNL     1      -3.798   3.041  25.294  0.00  0.00    +0.191 C 
ATOM     10  C   UNL     1      -2.491   3.489  25.981  0.00  0.00    +0.091 C 
ATOM     11  C   UNL     1      -1.412   1.881  24.400  0.00  0.00    +0.059 A 
ATOM     12  C   UNL     1      -2.632   1.161  23.996  0.00  0.00    +0.164 C 
ATOM     13  C   UNL     1      -1.318   2.932  25.278  0.00  0.00    +0.066 A 
ATOM     16  C   UNL     1       0.660   2.578  24.608  0.00  0.00    +0.200 A 
ATOM     17  C   UNL     1      -4.960   0.875  24.956  0.00  0.00    +0.254 C 
ENDROOT
BRANCH   9  15
ATOM      2  O   UNL     1      -3.771   3.641  22.959  0.00  0.00    -0.249 OA
ATOM     15  C   UNL     1      -4.128   3.894  24.101  0.00  0.00    +0.328 C 
BRANCH  15   1
ATOM      1  O   UNL     1      -4.872   4.965  24.499  0.00  0.00    -0.467 OA
ATOM     22  C   UNL     1      -5.873   4.687  25.483  0.00  0.00    +0.280 C 
ENDBRANCH  15   1
ENDBRANCH   9  15
BRANCH   7  14
ATOM     14  C   UNL     1       0.307   0.662  23.028  0.00  0.00    +0.158 C 
BRANCH  14  18
ATOM     18  C   UNL     1       1.798   0.435  23.056  0.00  0.00    -0.028 A 
ATOM     20  C   UNL     1       2.669   1.481  22.752  0.00  0.00    +0.009 A 
ATOM     21  C   UNL     1       2.306  -0.822  23.386  0.00  0.00    +0.009 A 
ATOM     23  C   UNL     1       4.048   1.271  22.777  0.00  0.00    +0.046 A 
ATOM     24  C   UNL     1       3.686  -1.032  23.412  0.00  0.00    +0.046 A 
ATOM     25  C   UNL     1       4.556   0.014  23.108  0.00  0.00    +0.120 A 
BRANCH  25   5
ATOM      5  O   UNL     1       5.900  -0.190  23.134  0.00  0.00    -0.495 OA
ATOM     32  C   UNL     1       6.421  -0.942  24.230  0.00  0.00    +0.277 C 
ENDBRANCH  25   5
ENDBRANCH  14  18
ENDBRANCH   7  14
BRANCH  17  19
ATOM     19  C   UNL     1      -4.985  -0.463  24.258  0.00  0.00    +0.324 C 
BRANCH  19   4
ATOM      4  O   UNL     1      -4.501  -1.407  25.182  0.00  0.00    -0.483 OA
BRANCH   4  26
ATOM     26  C   UNL     1      -3.138  -1.594  25.239  0.00  0.00    +0.121 A 
ATOM     27  C   UNL     1      -2.394  -1.001  26.259  0.00  0.00    +0.045 A 
ATOM     28  C   UNL     1      -2.501  -2.377  24.275  0.00  0.00    +0.045 A 
ATOM     29  C   UNL     1      -1.013  -1.191  26.317  0.00  0.00    +0.004 A 
ATOM     30  C   UNL     1      -1.120  -2.566  24.333  0.00  0.00    +0.004 A 
ATOM     31  C   UNL     1      -0.376  -1.973  25.353  0.00  0.00    +0.000 A 
ENDBRANCH   4  26
ENDBRANCH  19   4
ENDBRANCH  17  19
TORSDOF 8
ENDMDL
