MODEL 1
REMARK VINA RESULT:       7.5      0.000      0.000
REMARK  Name = 11884543
REMARK  5 active torsions:
REMARK  status: ('A' for Active; 'I' for Inactive)
REMARK    1  A    between atoms: O_4  and  C_29
REMARK    2  A    between atoms: O_4  and  C_34
REMARK    3  A    between atoms: N_7  and  C_19
REMARK    4  A    between atoms: N_8  and  C_28
REMARK    5  A    between atoms: C_18  and  C_21
REMARK                            x       y       z     vdW  Elec       q    Type
REMARK                         _______ _______ _______ _____ _____    ______ ____
ROOT
ATOM      1  O   UNL     1      -0.752   3.255  25.820  0.00  0.00    -0.266 OA
ATOM      2  O   UNL     1      -3.715  -0.718  27.304  0.00  0.00    -0.270 OA
ATOM      5  N   UNL     1      -4.933   0.532  25.746  0.00  0.00    -0.297 N 
ATOM      6  N   UNL     1      -2.839   2.758  24.894  0.00  0.00    -0.310 N 
ATOM      9  C   UNL     1      -5.025   2.977  26.211  0.00  0.00    +0.027 C 
ATOM     10  C   UNL     1      -5.071   2.170  23.884  0.00  0.00    +0.054 C 
ATOM     11  C   UNL     1      -5.661   3.205  24.844  0.00  0.00    +0.018 C 
ATOM     12  C   UNL     1      -5.332   1.554  26.714  0.00  0.00    +0.113 C 
ATOM     13  C   UNL     1      -3.518   3.238  26.106  0.00  0.00    +0.130 C 
ATOM     14  C   UNL     1      -5.422   0.752  24.376  0.00  0.00    +0.117 C 
ATOM     15  C   UNL     1      -3.565   2.317  23.782  0.00  0.00    +0.027 A 
ATOM     16  C   UNL     1      -2.929   1.992  22.644  0.00  0.00    +0.024 A 
ATOM     17  C   UNL     1      -1.433   2.857  24.873  0.00  0.00    +0.273 A 
ATOM     18  C   UNL     1      -4.127  -0.530  26.160  0.00  0.00    +0.247 C 
ATOM     19  C   UNL     1      -0.761   2.459  23.596  0.00  0.00    +0.100 A 
ATOM     20  C   UNL     1      -1.498   2.063  22.554  0.00  0.00    +0.030 A 
ENDROOT
BRANCH  19   7
ATOM      3  O   UNL     1       1.020   0.243  23.492  0.00  0.00    -0.252 OA
ATOM      7  N   UNL     1       0.601   2.523  23.543  0.00  0.00    -0.265 N 
ATOM      8  N   UNL     1       2.776   1.799  23.444  0.00  0.00    -0.266 N 
ATOM     24  C   UNL     1       1.436   1.399  23.492  0.00  0.00    +0.308 C 
ATOM     35  H   UNL     1       1.030   3.409  23.796  0.00  0.00    +0.157 HD
ATOM     36  H   UNL     1       2.954   2.800  23.452  0.00  0.00    +0.156 HD
BRANCH   8  28
ATOM     28  C   UNL     1       3.926   0.977  23.386  0.00  0.00    +0.077 A 
ATOM     29  C   UNL     1       4.193   0.238  22.244  0.00  0.00    +0.141 A 
ATOM     30  C   UNL     1       4.767   0.929  24.486  0.00  0.00    +0.027 A 
ATOM     31  C   UNL     1       5.331  -0.568  22.201  0.00  0.00    +0.047 A 
ATOM     32  C   UNL     1       5.905   0.122  24.444  0.00  0.00    +0.002 A 
ATOM     33  C   UNL     1       6.186  -0.626  23.301  0.00  0.00    +0.004 A 
BRANCH  29   4
ATOM      4  O   UNL     1       3.371   0.281  21.157  0.00  0.00    -0.493 OA
ATOM     34  C   UNL     1       2.173  -0.489  21.222  0.00  0.00    +0.277 C 
ENDBRANCH  29   4
ENDBRANCH   8  28
ENDBRANCH  19   7
BRANCH  18  21
ATOM     21  C   UNL     1      -3.710  -1.509  25.151  0.00  0.00    +0.037 A 
ATOM     22  C   UNL     1      -2.390  -1.952  25.119  0.00  0.00    +0.013 A 
ATOM     23  C   UNL     1      -4.637  -1.993  24.231  0.00  0.00    +0.013 A 
ATOM     25  C   UNL     1      -1.994  -2.884  24.160  0.00  0.00    +0.001 A 
ATOM     26  C   UNL     1      -4.241  -2.925  23.272  0.00  0.00    +0.001 A 
ATOM     27  C   UNL     1      -2.919  -3.370  23.236  0.00  0.00    +0.000 A 
ENDBRANCH  18  21
TORSDOF 4
ENDMDL
MODEL 2
REMARK VINA RESULT:       9.4      1.063      1.563
REMARK  Name = 11884543
REMARK  5 active torsions:
REMARK  status: ('A' for Active; 'I' for Inactive)
REMARK    1  A    between atoms: O_4  and  C_29
REMARK    2  A    between atoms: O_4  and  C_34
REMARK    3  A    between atoms: N_7  and  C_19
REMARK    4  A    between atoms: N_8  and  C_28
REMARK    5  A    between atoms: C_18  and  C_21
REMARK                            x       y       z     vdW  Elec       q    Type
REMARK                         _______ _______ _______ _____ _____    ______ ____
ROOT
ATOM      1  O   UNL     1      -0.385   3.103  25.688  0.00  0.00    -0.266 OA
ATOM      2  O   UNL     1      -3.909  -0.357  27.230  0.00  0.00    -0.270 OA
ATOM      5  N   UNL     1      -4.909   1.000  25.607  0.00  0.00    -0.297 N 
ATOM      6  N   UNL     1      -2.505   2.876  24.733  0.00  0.00    -0.310 N 
ATOM      9  C   UNL     1      -4.660   3.447  25.993  0.00  0.00    +0.027 C 
ATOM     10  C   UNL     1      -4.780   2.576  23.693  0.00  0.00    +0.054 C 
ATOM     11  C   UNL     1      -5.233   3.716  24.606  0.00  0.00    +0.018 C 
ATOM     12  C   UNL     1      -5.175   2.100  26.534  0.00  0.00    +0.113 C 
ATOM     13  C   UNL     1      -3.130   3.489  25.913  0.00  0.00    +0.130 C 
ATOM     14  C   UNL     1      -5.338   1.240  24.220  0.00  0.00    +0.117 C 
ATOM     15  C   UNL     1      -3.267   2.505  23.620  0.00  0.00    +0.027 A 
ATOM     16  C   UNL     1      -2.664   2.054  22.506  0.00  0.00    +0.024 A 
ATOM     17  C   UNL     1      -1.100   2.774  24.739  0.00  0.00    +0.273 A 
ATOM     18  C   UNL     1      -4.270  -0.152  26.073  0.00  0.00    +0.247 C 
ATOM     19  C   UNL     1      -0.468   2.241  23.491  0.00  0.00    +0.100 A 
ATOM     20  C   UNL     1      -1.236   1.918  22.445  0.00  0.00    +0.030 A 
ENDROOT
BRANCH  19   7
ATOM      3  O   UNL     1       0.985  -0.195  23.695  0.00  0.00    -0.252 OA
ATOM      7  N   UNL     1       0.889   2.110  23.465  0.00  0.00    -0.265 N 
ATOM      8  N   UNL     1       2.943   1.086  23.509  0.00  0.00    -0.266 N 
ATOM     24  C   UNL     1       1.559   0.884  23.569  0.00  0.00    +0.308 C 
ATOM     35  H   UNL     1       1.436   2.952  23.623  0.00  0.00    +0.157 HD
ATOM     36  H   UNL     1       3.259   2.046  23.404  0.00  0.00    +0.156 HD
BRANCH   8  28
ATOM     28  C   UNL     1       3.966   0.112  23.578  0.00  0.00    +0.077 A 
ATOM     29  C   UNL     1       5.292   0.505  23.672  0.00  0.00    +0.141 A 
ATOM     30  C   UNL     1       3.614  -1.228  23.549  0.00  0.00    +0.027 A 
ATOM     31  C   UNL     1       6.291  -0.466  23.739  0.00  0.00    +0.047 A 
ATOM     32  C   UNL     1       4.613  -2.200  23.615  0.00  0.00    +0.002 A 
ATOM     33  C   UNL     1       5.951  -1.818  23.711  0.00  0.00    +0.004 A 
BRANCH  29   4
ATOM      4  O   UNL     1       5.646   1.822  23.701  0.00  0.00    -0.493 OA
ATOM     34  C   UNL     1       6.790   2.166  24.478  0.00  0.00    +0.277 C 
ENDBRANCH  29   4
ENDBRANCH   8  28
ENDBRANCH  19   7
BRANCH  18  21
ATOM     21  C   UNL     1      -3.979  -1.213  25.104  0.00  0.00    +0.037 A 
ATOM     22  C   UNL     1      -2.779  -1.916  25.185  0.00  0.00    +0.013 A 
ATOM     23  C   UNL     1      -4.905  -1.516  24.108  0.00  0.00    +0.013 A 
ATOM     25  C   UNL     1      -2.503  -2.926  24.265  0.00  0.00    +0.001 A 
ATOM     26  C   UNL     1      -4.629  -2.527  23.188  0.00  0.00    +0.001 A 
ATOM     27  C   UNL     1      -3.428  -3.232  23.266  0.00  0.00    +0.000 A 
ENDBRANCH  18  21
TORSDOF 4
ENDMDL
