MODEL 1
REMARK VINA RESULT:      -4.7      0.000      0.000
REMARK  Name = 7161677
REMARK  8 active torsions:
REMARK  status: ('A' for Active; 'I' for Inactive)
REMARK    1  A    between atoms: S_1  and  N_8
REMARK    2  A    between atoms: S_1  and  C_16
REMARK    3  A    between atoms: O_2  and  C_14
REMARK    4  A    between atoms: O_2  and  C_18
REMARK    5  A    between atoms: O_7  and  C_17
REMARK    6  A    between atoms: O_7  and  C_19
REMARK    7  A    between atoms: C_10  and  C_14
REMARK    8  A    between atoms: C_15  and  C_17
REMARK                            x       y       z     vdW  Elec       q    Type
REMARK                         _______ _______ _______ _____ _____    ______ ____
ROOT
ATOM      6  O   UNL     1       0.403  -0.694  23.461  0.00  0.00    -0.273 OA
ATOM      8  N   UNL     1      -3.147   2.419  25.147  0.00  0.00    -0.165 NA
ATOM      9  N   UNL     1      -1.594   0.159  24.294  0.00  0.00    -0.296 N 
ATOM     10  C   UNL     1      -1.900   2.632  24.358  0.00  0.00    +0.205 C 
ATOM     11  C   UNL     1      -1.490   1.410  23.542  0.00  0.00    +0.140 C 
ATOM     12  C   UNL     1      -3.804   1.105  24.930  0.00  0.00    +0.129 C 
ATOM     13  C   UNL     1      -2.782  -0.005  25.136  0.00  0.00    +0.125 C 
ATOM     15  C   UNL     1      -0.602  -0.815  24.164  0.00  0.00    +0.241 C 
ENDROOT
BRANCH   8   1
ATOM      1  S   UNL     1      -4.190   3.765  25.314  0.00  0.00    +0.030 S 
ATOM      3  O   UNL     1      -4.281   4.444  24.040  0.00  0.00    -0.158 OA
ATOM      4  O   UNL     1      -3.849   4.472  26.530  0.00  0.00    -0.158 OA
ATOM     16  C   UNL     1      -5.718   2.907  25.589  0.00  0.00    +0.215 C 
ENDBRANCH   8   1
BRANCH  10  14
ATOM      5  O   UNL     1      -0.693   2.340  26.417  0.00  0.00    -0.249 OA
ATOM     14  C   UNL     1      -0.866   2.971  25.383  0.00  0.00    +0.327 C 
BRANCH  14   2
ATOM      2  O   UNL     1      -0.170   4.073  24.982  0.00  0.00    -0.467 OA
ATOM     18  C   UNL     1      -0.933   5.279  24.883  0.00  0.00    +0.280 C 
ENDBRANCH  14   2
ENDBRANCH  10  14
BRANCH  15  17
ATOM     17  C   UNL     1      -0.816  -2.086  24.950  0.00  0.00    +0.255 C 
BRANCH  17   7
ATOM      7  O   UNL     1      -1.592  -2.935  24.140  0.00  0.00    -0.374 OA
ATOM     19  C   UNL     1      -2.935  -3.040  24.607  0.00  0.00    +0.194 C 
ENDBRANCH  17   7
ENDBRANCH  15  17
TORSDOF 5
ENDMDL
MODEL 2
REMARK VINA RESULT:      -3.7      2.320      5.803
REMARK  Name = 7161677
REMARK  8 active torsions:
REMARK  status: ('A' for Active; 'I' for Inactive)
REMARK    1  A    between atoms: S_1  and  N_8
REMARK    2  A    between atoms: S_1  and  C_16
REMARK    3  A    between atoms: O_2  and  C_14
REMARK    4  A    between atoms: O_2  and  C_18
REMARK    5  A    between atoms: O_7  and  C_17
REMARK    6  A    between atoms: O_7  and  C_19
REMARK    7  A    between atoms: C_10  and  C_14
REMARK    8  A    between atoms: C_15  and  C_17
REMARK                            x       y       z     vdW  Elec       q    Type
REMARK                         _______ _______ _______ _____ _____    ______ ____
ROOT
ATOM      6  O   UNL     1      -4.065   4.197  24.106  0.00  0.00    -0.273 OA
ATOM      8  N   UNL     1      -1.514  -0.050  24.877  0.00  0.00    -0.165 NA
ATOM      9  N   UNL     1      -2.400   2.674  24.670  0.00  0.00    -0.296 N 
ATOM     10  C   UNL     1      -2.721   0.277  24.066  0.00  0.00    +0.205 C 
ATOM     11  C   UNL     1      -2.762   1.732  23.609  0.00  0.00    +0.140 C 
ATOM     12  C   UNL     1      -0.539   1.062  25.018  0.00  0.00    +0.129 C 
ATOM     13  C   UNL     1      -1.265   2.303  25.519  0.00  0.00    +0.125 C 
ATOM     15  C   UNL     1      -3.109   3.869  24.810  0.00  0.00    +0.241 C 
ENDROOT
BRANCH   8   1
ATOM      1  S   UNL     1      -0.850  -1.613  24.671  0.00  0.00    +0.030 S 
ATOM      3  O   UNL     1      -1.828  -2.452  24.014  0.00  0.00    -0.158 OA
ATOM      4  O   UNL     1      -0.211  -2.014  25.906  0.00  0.00    -0.158 OA
ATOM     16  C   UNL     1       0.421  -1.229  23.495  0.00  0.00    +0.215 C 
ENDBRANCH   8   1
BRANCH  10  14
ATOM      5  O   UNL     1      -3.803  -0.803  25.922  0.00  0.00    -0.249 OA
ATOM     14  C   UNL     1      -3.871  -0.041  24.967  0.00  0.00    +0.327 C 
BRANCH  14   2
ATOM      2  O   UNL     1      -4.976   0.642  24.553  0.00  0.00    -0.467 OA
ATOM     18  C   UNL     1      -5.652   1.391  25.568  0.00  0.00    +0.280 C 
ENDBRANCH  14   2
ENDBRANCH  10  14
BRANCH  15  17
ATOM     17  C   UNL     1      -2.638   4.792  25.908  0.00  0.00    +0.255 C 
BRANCH  17   7
ATOM      7  O   UNL     1      -1.892   5.810  25.286  0.00  0.00    -0.374 OA
ATOM     19  C   UNL     1      -0.675   5.318  24.729  0.00  0.00    +0.194 C 
ENDBRANCH  17   7
ENDBRANCH  15  17
TORSDOF 5
ENDMDL
MODEL 3
REMARK VINA RESULT:      -3.6      2.126      5.399
REMARK  Name = 7161677
REMARK  8 active torsions:
REMARK  status: ('A' for Active; 'I' for Inactive)
REMARK    1  A    between atoms: S_1  and  N_8
REMARK    2  A    between atoms: S_1  and  C_16
REMARK    3  A    between atoms: O_2  and  C_14
REMARK    4  A    between atoms: O_2  and  C_18
REMARK    5  A    between atoms: O_7  and  C_17
REMARK    6  A    between atoms: O_7  and  C_19
REMARK    7  A    between atoms: C_10  and  C_14
REMARK    8  A    between atoms: C_15  and  C_17
REMARK                            x       y       z     vdW  Elec       q    Type
REMARK                         _______ _______ _______ _____ _____    ______ ____
ROOT
ATOM      6  O   UNL     1      -1.839   4.276  25.304  0.00  0.00    -0.273 OA
ATOM      8  N   UNL     1      -1.987  -0.689  24.625  0.00  0.00    -0.165 NA
ATOM      9  N   UNL     1      -2.583   2.085  25.068  0.00  0.00    -0.296 N 
ATOM     10  C   UNL     1      -0.895   0.252  25.000  0.00  0.00    +0.205 C 
ATOM     11  C   UNL     1      -1.399   1.507  25.706  0.00  0.00    +0.140 C 
ATOM     12  C   UNL     1      -3.342  -0.283  25.080  0.00  0.00    +0.129 C 
ATOM     13  C   UNL     1      -3.615   1.144  24.624  0.00  0.00    +0.125 C 
ATOM     15  C   UNL     1      -2.696   3.471  24.937  0.00  0.00    +0.241 C 
ENDROOT
BRANCH   8   1
ATOM      1  S   UNL     1      -1.629  -2.360  24.722  0.00  0.00    +0.030 S 
ATOM      3  O   UNL     1      -0.564  -2.552  25.681  0.00  0.00    -0.158 OA
ATOM      4  O   UNL     1      -1.554  -2.899  23.382  0.00  0.00    -0.158 OA
ATOM     16  C   UNL     1      -3.139  -2.931  25.459  0.00  0.00    +0.215 C 
ENDBRANCH   8   1
BRANCH  10  14
ATOM      5  O   UNL     1      -0.472   1.599  23.052  0.00  0.00    -0.249 OA
ATOM     14  C   UNL     1      -0.234   0.589  23.702  0.00  0.00    +0.327 C 
BRANCH  14   2
ATOM      2  O   UNL     1       0.653  -0.394  23.373  0.00  0.00    -0.467 OA
ATOM     18  C   UNL     1       1.788   0.032  22.614  0.00  0.00    +0.280 C 
ENDBRANCH  14   2
ENDBRANCH  10  14
BRANCH  15  17
ATOM     17  C   UNL     1      -3.970   3.973  24.300  0.00  0.00    +0.255 C 
BRANCH  17   7
ATOM      7  O   UNL     1      -4.838   4.317  25.353  0.00  0.00    -0.374 OA
ATOM     19  C   UNL     1      -5.740   3.259  25.671  0.00  0.00    +0.194 C 
ENDBRANCH  17   7
ENDBRANCH  15  17
TORSDOF 5
ENDMDL
MODEL 4
REMARK VINA RESULT:      -3.2      2.343      5.276
REMARK  Name = 7161677
REMARK  8 active torsions:
REMARK  status: ('A' for Active; 'I' for Inactive)
REMARK    1  A    between atoms: S_1  and  N_8
REMARK    2  A    between atoms: S_1  and  C_16
REMARK    3  A    between atoms: O_2  and  C_14
REMARK    4  A    between atoms: O_2  and  C_18
REMARK    5  A    between atoms: O_7  and  C_17
REMARK    6  A    between atoms: O_7  and  C_19
REMARK    7  A    between atoms: C_10  and  C_14
REMARK    8  A    between atoms: C_15  and  C_17
REMARK                            x       y       z     vdW  Elec       q    Type
REMARK                         _______ _______ _______ _____ _____    ______ ____
ROOT
ATOM      6  O   UNL     1       0.565   2.750  26.158  0.00  0.00    -0.273 OA
ATOM      8  N   UNL     1      -2.529  -0.854  24.553  0.00  0.00    -0.165 NA
ATOM      9  N   UNL     1      -1.222   1.624  25.184  0.00  0.00    -0.296 N 
ATOM     10  C   UNL     1      -1.441  -0.829  25.572  0.00  0.00    +0.205 C 
ATOM     11  C   UNL     1      -1.222   0.553  26.181  0.00  0.00    +0.140 C 
ATOM     12  C   UNL     1      -3.253   0.432  24.383  0.00  0.00    +0.129 C 
ATOM     13  C   UNL     1      -2.242   1.544  24.135  0.00  0.00    +0.125 C 
ATOM     15  C   UNL     1      -0.299   2.667  25.283  0.00  0.00    +0.241 C 
ENDROOT
BRANCH   8   1
ATOM      1  S   UNL     1      -3.486  -2.271  24.486  0.00  0.00    +0.030 S 
ATOM      3  O   UNL     1      -4.640  -2.014  23.655  0.00  0.00    -0.158 OA
ATOM      4  O   UNL     1      -3.615  -2.810  25.823  0.00  0.00    -0.158 OA
ATOM     16  C   UNL     1      -2.378  -3.318  23.578  0.00  0.00    +0.215 C 
ENDBRANCH   8   1
BRANCH  10  14
ATOM      5  O   UNL     1       0.587  -2.087  25.279  0.00  0.00    -0.249 OA
ATOM     14  C   UNL     1      -0.229  -1.293  24.831  0.00  0.00    +0.327 C 
BRANCH  14   2
ATOM      2  O   UNL     1      -0.187  -0.696  23.605  0.00  0.00    -0.467 OA
ATOM     18  C   UNL     1       1.093  -0.195  23.209  0.00  0.00    +0.280 C 
ENDBRANCH  14   2
ENDBRANCH  10  14
BRANCH  15  17
ATOM     17  C   UNL     1      -0.403   3.744  24.230  0.00  0.00    +0.255 C 
BRANCH  17   7
ATOM      7  O   UNL     1      -0.644   4.952  24.912  0.00  0.00    -0.374 OA
ATOM     19  C   UNL     1      -2.001   5.066  25.334  0.00  0.00    +0.194 C 
ENDBRANCH  17   7
ENDBRANCH  15  17
TORSDOF 5
ENDMDL
MODEL 5
REMARK VINA RESULT:      -2.8      1.767      2.317
REMARK  Name = 7161677
REMARK  8 active torsions:
REMARK  status: ('A' for Active; 'I' for Inactive)
REMARK    1  A    between atoms: S_1  and  N_8
REMARK    2  A    between atoms: S_1  and  C_16
REMARK    3  A    between atoms: O_2  and  C_14
REMARK    4  A    between atoms: O_2  and  C_18
REMARK    5  A    between atoms: O_7  and  C_17
REMARK    6  A    between atoms: O_7  and  C_19
REMARK    7  A    between atoms: C_10  and  C_14
REMARK    8  A    between atoms: C_15  and  C_17
REMARK                            x       y       z     vdW  Elec       q    Type
REMARK                         _______ _______ _______ _____ _____    ______ ____
ROOT
ATOM      6  O   UNL     1      -0.001   1.501  22.959  0.00  0.00    -0.273 OA
ATOM      8  N   UNL     1      -4.361   2.064  25.370  0.00  0.00    -0.165 NA
ATOM      9  N   UNL     1      -2.023   1.075  24.027  0.00  0.00    -0.296 N 
ATOM     10  C   UNL     1      -3.507   2.999  24.586  0.00  0.00    +0.205 C 
ATOM     11  C   UNL     1      -2.659   2.296  23.529  0.00  0.00    +0.140 C 
ATOM     12  C   UNL     1      -4.301   0.647  24.929  0.00  0.00    +0.129 C 
ATOM     13  C   UNL     1      -2.846   0.203  24.871  0.00  0.00    +0.125 C 
ATOM     15  C   UNL     1      -0.707   0.780  23.667  0.00  0.00    +0.241 C 
ENDROOT
BRANCH   8   1
ATOM      1  S   UNL     1      -5.901   2.642  25.841  0.00  0.00    +0.030 S 
ATOM      3  O   UNL     1      -5.953   4.069  25.612  0.00  0.00    -0.158 OA
ATOM      4  O   UNL     1      -6.245   2.063  27.122  0.00  0.00    -0.158 OA
ATOM     16  C   UNL     1      -6.892   1.852  24.599  0.00  0.00    +0.215 C 
ENDBRANCH   8   1
BRANCH  10  14
ATOM      5  O   UNL     1      -3.008   3.904  26.757  0.00  0.00    -0.249 OA
ATOM     14  C   UNL     1      -2.649   3.667  25.612  0.00  0.00    +0.327 C 
BRANCH  14   2
ATOM      2  O   UNL     1      -1.433   3.961  25.068  0.00  0.00    -0.467 OA
ATOM     18  C   UNL     1      -1.114   5.354  24.993  0.00  0.00    +0.280 C 
ENDBRANCH  14   2
ENDBRANCH  10  14
BRANCH  15  17
ATOM     17  C   UNL     1      -0.151  -0.520  24.199  0.00  0.00    +0.255 C 
BRANCH  17   7
ATOM      7  O   UNL     1       1.211  -0.549  23.847  0.00  0.00    -0.374 OA
ATOM     19  C   UNL     1       1.401  -0.478  22.435  0.00  0.00    +0.194 C 
ENDBRANCH  17   7
ENDBRANCH  15  17
TORSDOF 5
ENDMDL
MODEL 6
REMARK VINA RESULT:      -2.1      2.219      5.865
REMARK  Name = 7161677
REMARK  8 active torsions:
REMARK  status: ('A' for Active; 'I' for Inactive)
REMARK    1  A    between atoms: S_1  and  N_8
REMARK    2  A    between atoms: S_1  and  C_16
REMARK    3  A    between atoms: O_2  and  C_14
REMARK    4  A    between atoms: O_2  and  C_18
REMARK    5  A    between atoms: O_7  and  C_17
REMARK    6  A    between atoms: O_7  and  C_19
REMARK    7  A    between atoms: C_10  and  C_14
REMARK    8  A    between atoms: C_15  and  C_17
REMARK                            x       y       z     vdW  Elec       q    Type
REMARK                         _______ _______ _______ _____ _____    ______ ____
ROOT
ATOM      6  O   UNL     1      -6.237   1.514  24.667  0.00  0.00    -0.273 OA
ATOM      8  N   UNL     1      -1.272   0.950  24.251  0.00  0.00    -0.165 NA
ATOM      9  N   UNL     1      -3.945   1.912  24.673  0.00  0.00    -0.296 N 
ATOM     10  C   UNL     1      -2.430   0.176  23.720  0.00  0.00    +0.205 C 
ATOM     11  C   UNL     1      -3.686   1.024  23.539  0.00  0.00    +0.140 C 
ATOM     12  C   UNL     1      -1.520   2.405  24.420  0.00  0.00    +0.129 C 
ATOM     13  C   UNL     1      -2.786   2.603  25.244  0.00  0.00    +0.125 C 
ATOM     15  C   UNL     1      -5.251   2.087  25.135  0.00  0.00    +0.241 C 
ENDROOT
BRANCH   8   1
ATOM      1  S   UNL     1       0.276   0.512  23.668  0.00  0.00    +0.030 S 
ATOM      3  O   UNL     1       1.242   1.476  24.145  0.00  0.00    -0.158 OA
ATOM      4  O   UNL     1       0.167   0.175  22.265  0.00  0.00    -0.158 OA
ATOM     16  C   UNL     1       0.507  -0.993  24.578  0.00  0.00    +0.215 C 
ENDBRANCH   8   1
BRANCH  10  14
ATOM      5  O   UNL     1      -2.760  -0.708  25.932  0.00  0.00    -0.249 OA
ATOM     14  C   UNL     1      -2.648  -0.905  24.730  0.00  0.00    +0.327 C 
BRANCH  14   2
ATOM      2  O   UNL     1      -2.696  -2.114  24.100  0.00  0.00    -0.467 OA
ATOM     18  C   UNL     1      -3.789  -2.958  24.474  0.00  0.00    +0.280 C 
ENDBRANCH  14   2
ENDBRANCH  10  14
BRANCH  15  17
ATOM     17  C   UNL     1      -5.422   3.051  26.285  0.00  0.00    +0.255 C 
BRANCH  17   7
ATOM      7  O   UNL     1      -6.288   4.064  25.834  0.00  0.00    -0.374 OA
ATOM     19  C   UNL     1      -5.590   5.099  25.144  0.00  0.00    +0.194 C 
ENDBRANCH  17   7
ENDBRANCH  15  17
TORSDOF 5
ENDMDL
MODEL 7
REMARK VINA RESULT:      -1.8      1.735      3.262
REMARK  Name = 7161677
REMARK  8 active torsions:
REMARK  status: ('A' for Active; 'I' for Inactive)
REMARK    1  A    between atoms: S_1  and  N_8
REMARK    2  A    between atoms: S_1  and  C_16
REMARK    3  A    between atoms: O_2  and  C_14
REMARK    4  A    between atoms: O_2  and  C_18
REMARK    5  A    between atoms: O_7  and  C_17
REMARK    6  A    between atoms: O_7  and  C_19
REMARK    7  A    between atoms: C_10  and  C_14
REMARK    8  A    between atoms: C_15  and  C_17
REMARK                            x       y       z     vdW  Elec       q    Type
REMARK                         _______ _______ _______ _____ _____    ______ ____
ROOT
ATOM      6  O   UNL     1      -3.634  -2.212  25.246  0.00  0.00    -0.273 OA
ATOM      8  N   UNL     1      -2.107   2.549  24.875  0.00  0.00    -0.165 NA
ATOM      9  N   UNL     1      -2.308  -0.306  25.099  0.00  0.00    -0.296 N 
ATOM     10  C   UNL     1      -3.404   1.926  25.263  0.00  0.00    +0.205 C 
ATOM     11  C   UNL     1      -3.246   0.527  25.852  0.00  0.00    +0.140 C 
ATOM     12  C   UNL     1      -0.904   1.744  25.210  0.00  0.00    +0.129 C 
ATOM     13  C   UNL     1      -1.072   0.339  24.647  0.00  0.00    +0.125 C 
ATOM     15  C   UNL     1      -2.600  -1.653  24.873  0.00  0.00    +0.241 C 
ENDROOT
BRANCH   8   1
ATOM      1  S   UNL     1      -1.968   4.240  25.102  0.00  0.00    +0.030 S 
ATOM      3  O   UNL     1      -2.788   4.910  24.118  0.00  0.00    -0.158 OA
ATOM      4  O   UNL     1      -0.572   4.572  25.284  0.00  0.00    -0.158 OA
ATOM     16  C   UNL     1      -2.775   4.382  26.676  0.00  0.00    +0.215 C 
ENDBRANCH   8   1
BRANCH  10  14
ATOM      5  O   UNL     1      -3.696   1.815  22.878  0.00  0.00    -0.249 OA
ATOM     14  C   UNL     1      -4.193   1.894  23.993  0.00  0.00    +0.327 C 
BRANCH  14   2
ATOM      2  O   UNL     1      -5.524   1.967  24.283  0.00  0.00    -0.467 OA
ATOM     18  C   UNL     1      -5.856   2.699  25.466  0.00  0.00    +0.280 C 
ENDBRANCH  14   2
ENDBRANCH  10  14
BRANCH  15  17
ATOM     17  C   UNL     1      -1.554  -2.440  24.121  0.00  0.00    +0.255 C 
BRANCH  17   7
ATOM      7  O   UNL     1      -0.830  -3.169  25.082  0.00  0.00    -0.374 OA
ATOM     19  C   UNL     1       0.406  -2.539  25.412  0.00  0.00    +0.194 C 
ENDBRANCH  17   7
ENDBRANCH  15  17
TORSDOF 5
ENDMDL
MODEL 8
REMARK VINA RESULT:      -1.7      1.747      3.060
REMARK  Name = 7161677
REMARK  8 active torsions:
REMARK  status: ('A' for Active; 'I' for Inactive)
REMARK    1  A    between atoms: S_1  and  N_8
REMARK    2  A    between atoms: S_1  and  C_16
REMARK    3  A    between atoms: O_2  and  C_14
REMARK    4  A    between atoms: O_2  and  C_18
REMARK    5  A    between atoms: O_7  and  C_17
REMARK    6  A    between atoms: O_7  and  C_19
REMARK    7  A    between atoms: C_10  and  C_14
REMARK    8  A    between atoms: C_15  and  C_17
REMARK                            x       y       z     vdW  Elec       q    Type
REMARK                         _______ _______ _______ _____ _____    ______ ____
ROOT
ATOM      6  O   UNL     1      -4.241  -1.951  23.183  0.00  0.00    -0.273 OA
ATOM      8  N   UNL     1      -2.817   2.541  24.896  0.00  0.00    -0.165 NA
ATOM      9  N   UNL     1      -3.577  -0.209  24.576  0.00  0.00    -0.296 N 
ATOM     10  C   UNL     1      -3.481   2.098  23.638  0.00  0.00    +0.205 C 
ATOM     11  C   UNL     1      -4.286   0.813  23.804  0.00  0.00    +0.140 C 
ATOM     12  C   UNL     1      -3.128   1.712  26.089  0.00  0.00    +0.129 C 
ATOM     13  C   UNL     1      -2.855   0.249  25.765  0.00  0.00    +0.125 C 
ATOM     15  C   UNL     1      -3.639  -1.547  24.180  0.00  0.00    +0.241 C 
ENDROOT
BRANCH   8   1
ATOM      1  S   UNL     1      -2.715   4.229  25.158  0.00  0.00    +0.030 S 
ATOM      3  O   UNL     1      -3.111   4.514  26.520  0.00  0.00    -0.158 OA
ATOM      4  O   UNL     1      -3.315   4.913  24.033  0.00  0.00    -0.158 OA
ATOM     16  C   UNL     1      -0.956   4.428  25.045  0.00  0.00    +0.215 C 
ENDBRANCH   8   1
BRANCH  10  14
ATOM      5  O   UNL     1      -2.493   1.886  21.456  0.00  0.00    -0.249 OA
ATOM     14  C   UNL     1      -2.355   1.912  22.671  0.00  0.00    +0.327 C 
BRANCH  14   2
ATOM      2  O   UNL     1      -1.184   1.779  23.356  0.00  0.00    -0.467 OA
ATOM     18  C   UNL     1      -0.405   0.626  23.023  0.00  0.00    +0.280 C 
ENDBRANCH  14   2
ENDBRANCH  10  14
BRANCH  15  17
ATOM     17  C   UNL     1      -2.908  -2.532  25.061  0.00  0.00    +0.255 C 
BRANCH  17   7
ATOM      7  O   UNL     1      -1.654  -2.755  24.461  0.00  0.00    -0.374 OA
ATOM     19  C   UNL     1      -0.594  -2.142  25.191  0.00  0.00    +0.194 C 
ENDBRANCH  17   7
ENDBRANCH  15  17
TORSDOF 5
ENDMDL
MODEL 9
REMARK VINA RESULT:      -1.6      2.148      3.558
REMARK  Name = 7161677
REMARK  8 active torsions:
REMARK  status: ('A' for Active; 'I' for Inactive)
REMARK    1  A    between atoms: S_1  and  N_8
REMARK    2  A    between atoms: S_1  and  C_16
REMARK    3  A    between atoms: O_2  and  C_14
REMARK    4  A    between atoms: O_2  and  C_18
REMARK    5  A    between atoms: O_7  and  C_17
REMARK    6  A    between atoms: O_7  and  C_19
REMARK    7  A    between atoms: C_10  and  C_14
REMARK    8  A    between atoms: C_15  and  C_17
REMARK                            x       y       z     vdW  Elec       q    Type
REMARK                         _______ _______ _______ _____ _____    ______ ____
ROOT
ATOM      6  O   UNL     1      -5.455  -0.875  24.284  0.00  0.00    -0.273 OA
ATOM      8  N   UNL     1      -1.421   2.068  24.738  0.00  0.00    -0.165 NA
ATOM      9  N   UNL     1      -3.280  -0.117  24.611  0.00  0.00    -0.296 N 
ATOM     10  C   UNL     1      -2.885   2.338  24.789  0.00  0.00    +0.205 C 
ATOM     11  C   UNL     1      -3.703   1.132  25.244  0.00  0.00    +0.140 C 
ATOM     12  C   UNL     1      -1.019   0.721  25.220  0.00  0.00    +0.129 C 
ATOM     13  C   UNL     1      -1.836  -0.335  24.488  0.00  0.00    +0.125 C 
ATOM     15  C   UNL     1      -4.237  -1.042  24.188  0.00  0.00    +0.241 C 
ENDROOT
BRANCH   8   1
ATOM      1  S   UNL     1      -0.386   3.361  25.168  0.00  0.00    +0.030 S 
ATOM      3  O   UNL     1       0.216   3.894  23.967  0.00  0.00    -0.158 OA
ATOM      4  O   UNL     1       0.413   2.960  26.306  0.00  0.00    -0.158 OA
ATOM     16  C   UNL     1      -1.602   4.522  25.734  0.00  0.00    +0.215 C 
ENDBRANCH   8   1
BRANCH  10  14
ATOM      5  O   UNL     1      -4.260   3.332  23.085  0.00  0.00    -0.249 OA
ATOM     14  C   UNL     1      -3.238   2.734  23.391  0.00  0.00    +0.327 C 
BRANCH  14   2
ATOM      2  O   UNL     1      -2.253   2.326  22.540  0.00  0.00    -0.467 OA
ATOM     18  C   UNL     1      -2.685   1.984  21.219  0.00  0.00    +0.280 C 
ENDBRANCH  14   2
ENDBRANCH  10  14
BRANCH  15  17
ATOM     17  C   UNL     1      -3.703  -2.317  23.581  0.00  0.00    +0.255 C 
BRANCH  17   7
ATOM      7  O   UNL     1      -3.858  -3.322  24.554  0.00  0.00    -0.374 OA
ATOM     19  C   UNL     1      -3.119  -3.037  25.740  0.00  0.00    +0.194 C 
ENDBRANCH  17   7
ENDBRANCH  15  17
TORSDOF 5
ENDMDL
MODEL 10
REMARK VINA RESULT:      -1.6      2.096      5.027
REMARK  Name = 7161677
REMARK  8 active torsions:
REMARK  status: ('A' for Active; 'I' for Inactive)
REMARK    1  A    between atoms: S_1  and  N_8
REMARK    2  A    between atoms: S_1  and  C_16
REMARK    3  A    between atoms: O_2  and  C_14
REMARK    4  A    between atoms: O_2  and  C_18
REMARK    5  A    between atoms: O_7  and  C_17
REMARK    6  A    between atoms: O_7  and  C_19
REMARK    7  A    between atoms: C_10  and  C_14
REMARK    8  A    between atoms: C_15  and  C_17
REMARK                            x       y       z     vdW  Elec       q    Type
REMARK                         _______ _______ _______ _____ _____    ______ ____
ROOT
ATOM      6  O   UNL     1      -3.172   4.483  26.214  0.00  0.00    -0.273 OA
ATOM      8  N   UNL     1      -1.342   0.110  24.581  0.00  0.00    -0.165 NA
ATOM      9  N   UNL     1      -2.993   2.323  25.368  0.00  0.00    -0.296 N 
ATOM     10  C   UNL     1      -0.767   1.204  25.412  0.00  0.00    +0.205 C 
ATOM     11  C   UNL     1      -1.822   1.993  26.182  0.00  0.00    +0.140 C 
ATOM     12  C   UNL     1      -2.811  -0.070  24.718  0.00  0.00    +0.129 C 
ATOM     13  C   UNL     1      -3.501   1.267  24.488  0.00  0.00    +0.125 C 
ATOM     15  C   UNL     1      -3.585   3.583  25.480  0.00  0.00    +0.241 C 
ENDROOT
BRANCH   8   1
ATOM      1  S   UNL     1      -0.417  -1.324  24.449  0.00  0.00    +0.030 S 
ATOM      3  O   UNL     1       0.050  -1.699  25.766  0.00  0.00    -0.158 OA
ATOM      4  O   UNL     1       0.490  -1.192  23.329  0.00  0.00    -0.158 OA
ATOM     16  C   UNL     1      -1.705  -2.451  23.982  0.00  0.00    +0.215 C 
ENDBRANCH   8   1
BRANCH  10  14
ATOM      5  O   UNL     1       1.090   1.861  24.033  0.00  0.00    -0.249 OA
ATOM     14  C   UNL     1      -0.047   2.074  24.433  0.00  0.00    +0.327 C 
BRANCH  14   2
ATOM      2  O   UNL     1      -0.849   3.117  24.074  0.00  0.00    -0.467 OA
ATOM     18  C   UNL     1      -0.304   4.420  24.303  0.00  0.00    +0.280 C 
ENDBRANCH  14   2
ENDBRANCH  10  14
BRANCH  15  17
ATOM     17  C   UNL     1      -4.810   3.817  24.629  0.00  0.00    +0.255 C 
BRANCH  17   7
ATOM      7  O   UNL     1      -5.673   2.730  24.858  0.00  0.00    -0.374 OA
ATOM     19  C   UNL     1      -6.112   2.671  26.214  0.00  0.00    +0.194 C 
ENDBRANCH  17   7
ENDBRANCH  15  17
TORSDOF 5
ENDMDL
