MODEL 1
REMARK VINA RESULT:       1.9      0.000      0.000
REMARK  Name = 26743050
REMARK  7 active torsions:
REMARK  status: ('A' for Active; 'I' for Inactive)
REMARK    1  A    between atoms: O_3  and  C_25
REMARK    2  A    between atoms: O_3  and  C_30
REMARK    3  A    between atoms: C_9  and  C_13
REMARK    4  A    between atoms: C_10  and  C_15
REMARK    5  A    between atoms: C_13  and  C_16
REMARK    6  A    between atoms: C_15  and  C_17
REMARK    7  A    between atoms: C_24  and  C_25
REMARK                            x       y       z     vdW  Elec       q    Type
REMARK                         _______ _______ _______ _____ _____    ______ ____
ROOT
ATOM      4  N   UNL     1      -3.479  -3.232  24.435  0.00  0.00    -0.316 NA
ATOM      9  C   UNL     1      -2.909  -0.351  24.722  0.00  0.00    +0.004 C 
ATOM     10  C   UNL     1      -4.345  -0.926  24.752  0.00  0.00    +0.012 C 
ATOM     11  C   UNL     1      -1.919  -1.451  25.138  0.00  0.00    +0.019 C 
ATOM     12  C   UNL     1      -4.446  -2.241  23.962  0.00  0.00    +0.085 C 
ATOM     14  C   UNL     1      -2.106  -2.739  24.339  0.00  0.00    +0.081 C 
ATOM     31  H   UNL     1      -3.570  -4.084  23.883  0.00  0.00    +0.122 HD
ENDROOT
BRANCH   9  13
ATOM     13  C   UNL     1      -2.510   0.259  23.373  0.00  0.00    +0.100 C 
BRANCH  13  16
ATOM      1  O   UNL     1      -1.974   2.510  23.906  0.00  0.00    -0.276 OA
ATOM      5  N   UNL     1      -0.194   1.107  23.395  0.00  0.00    -0.298 N 
ATOM      6  N   UNL     1       2.645   0.560  23.236  0.00  0.00    -0.312 N 
ATOM      8  N   UNL     1       4.542  -0.182  22.042  0.00  0.00    -0.240 NA
ATOM     16  C   UNL     1      -1.545   1.399  23.585  0.00  0.00    +0.216 C 
ATOM     18  C   UNL     1       0.804   2.159  23.577  0.00  0.00    +0.126 C 
ATOM     19  C   UNL     1       0.316  -0.216  23.024  0.00  0.00    +0.126 C 
ATOM     20  C   UNL     1       2.122   1.609  24.117  0.00  0.00    +0.125 C 
ATOM     21  C   UNL     1       1.699  -0.158  22.377  0.00  0.00    +0.125 C 
ATOM     23  C   UNL     1       4.009   0.282  23.194  0.00  0.00    +0.121 A 
ATOM     26  C   UNL     1       4.737   0.503  24.352  0.00  0.00    +0.043 A 
ATOM     27  C   UNL     1       6.101   0.231  24.326  0.00  0.00    +0.005 A 
ATOM     28  C   UNL     1       5.869  -0.436  22.054  0.00  0.00    +0.113 A 
ATOM     29  C   UNL     1       6.685  -0.249  23.158  0.00  0.00    +0.020 A 
ENDBRANCH  13  16
ENDBRANCH   9  13
BRANCH  10  15
ATOM     15  C   UNL     1      -5.401   0.071  24.273  0.00  0.00    +0.064 C 
BRANCH  15  17
ATOM      2  O   UNL     1      -5.699   2.870  26.518  0.00  0.00    -0.357 OA
ATOM      7  N   UNL     1      -6.042   1.593  26.094  0.00  0.00    -0.083 NA
ATOM     17  C   UNL     1      -5.294   1.376  25.008  0.00  0.00    +0.084 A 
ATOM     22  C   UNL     1      -4.468   2.471  24.702  0.00  0.00    +0.073 A 
ATOM     24  C   UNL     1      -4.761   3.384  25.680  0.00  0.00    +0.163 A 
BRANCH  24  25
ATOM     25  C   UNL     1      -4.281   4.738  25.985  0.00  0.00    +0.236 C 
BRANCH  25   3
ATOM      3  O   UNL     1      -2.914   4.697  26.405  0.00  0.00    -0.375 OA
ATOM     30  C   UNL     1      -2.045   5.096  25.358  0.00  0.00    +0.194 C 
ENDBRANCH  25   3
ENDBRANCH  24  25
ENDBRANCH  15  17
ENDBRANCH  10  15
TORSDOF 6
ENDMDL
MODEL 2
REMARK VINA RESULT:       2.3      1.956      3.323
REMARK  Name = 26743050
REMARK  7 active torsions:
REMARK  status: ('A' for Active; 'I' for Inactive)
REMARK    1  A    between atoms: O_3  and  C_25
REMARK    2  A    between atoms: O_3  and  C_30
REMARK    3  A    between atoms: C_9  and  C_13
REMARK    4  A    between atoms: C_10  and  C_15
REMARK    5  A    between atoms: C_13  and  C_16
REMARK    6  A    between atoms: C_15  and  C_17
REMARK    7  A    between atoms: C_24  and  C_25
REMARK                            x       y       z     vdW  Elec       q    Type
REMARK                         _______ _______ _______ _____ _____    ______ ____
ROOT
ATOM      4  N   UNL     1      -3.662   0.753  22.540  0.00  0.00    -0.316 NA
ATOM      9  C   UNL     1      -5.099   0.134  25.043  0.00  0.00    +0.004 C 
ATOM     10  C   UNL     1      -5.169   1.521  24.360  0.00  0.00    +0.012 C 
ATOM     11  C   UNL     1      -4.749  -0.928  23.987  0.00  0.00    +0.019 C 
ATOM     12  C   UNL     1      -3.908   1.807  23.526  0.00  0.00    +0.085 C 
ATOM     14  C   UNL     1      -3.511  -0.556  23.172  0.00  0.00    +0.081 C 
ATOM     31  H   UNL     1      -2.816   0.973  22.015  0.00  0.00    +0.122 HD
ENDROOT
BRANCH   9  13
ATOM     13  C   UNL     1      -4.125   0.070  26.224  0.00  0.00    +0.100 C 
BRANCH  13  16
ATOM      1  O   UNL     1      -3.392  -2.186  26.350  0.00  0.00    -0.276 OA
ATOM      5  N   UNL     1      -1.911  -0.659  25.414  0.00  0.00    -0.298 N 
ATOM      6  N   UNL     1       0.537  -0.035  24.002  0.00  0.00    -0.312 N 
ATOM      8  N   UNL     1       2.552   1.179  23.796  0.00  0.00    -0.240 NA
ATOM     16  C   UNL     1      -3.118  -1.034  26.006  0.00  0.00    +0.216 C 
ATOM     18  C   UNL     1      -0.883  -1.669  25.174  0.00  0.00    +0.126 C 
ATOM     19  C   UNL     1      -1.591   0.707  24.996  0.00  0.00    +0.126 C 
ATOM     20  C   UNL     1      -0.069  -1.368  23.918  0.00  0.00    +0.125 C 
ATOM     21  C   UNL     1      -0.088   0.955  24.882  0.00  0.00    +0.125 C 
ATOM     23  C   UNL     1       1.696   0.264  23.289  0.00  0.00    +0.121 A 
ATOM     26  C   UNL     1       1.896  -0.406  22.092  0.00  0.00    +0.043 A 
ATOM     27  C   UNL     1       3.049  -0.118  21.371  0.00  0.00    +0.005 A 
ATOM     28  C   UNL     1       3.661   1.434  23.067  0.00  0.00    +0.113 A 
ATOM     29  C   UNL     1       3.953   0.819  21.860  0.00  0.00    +0.020 A 
ENDBRANCH  13  16
ENDBRANCH   9  13
BRANCH  10  15
ATOM     15  C   UNL     1      -5.431   2.661  25.344  0.00  0.00    +0.064 C 
BRANCH  15  17
ATOM      2  O   UNL     1      -2.575   4.463  26.591  0.00  0.00    -0.357 OA
ATOM      7  N   UNL     1      -3.676   3.634  26.762  0.00  0.00    -0.083 NA
ATOM     17  C   UNL     1      -4.206   3.506  25.542  0.00  0.00    +0.084 A 
ATOM     22  C   UNL     1      -3.488   4.224  24.571  0.00  0.00    +0.073 A 
ATOM     24  C   UNL     1      -2.474   4.808  25.281  0.00  0.00    +0.163 A 
BRANCH  24  25
ATOM     25  C   UNL     1      -1.355   5.688  24.920  0.00  0.00    +0.236 C 
BRANCH  25   3
ATOM      3  O   UNL     1      -0.135   4.942  24.867  0.00  0.00    -0.375 OA
ATOM     30  C   UNL     1      -0.181   3.954  23.852  0.00  0.00    +0.194 C 
ENDBRANCH  25   3
ENDBRANCH  24  25
ENDBRANCH  15  17
ENDBRANCH  10  15
TORSDOF 6
ENDMDL
MODEL 3
REMARK VINA RESULT:       2.4      2.328      4.332
REMARK  Name = 26743050
REMARK  7 active torsions:
REMARK  status: ('A' for Active; 'I' for Inactive)
REMARK    1  A    between atoms: O_3  and  C_25
REMARK    2  A    between atoms: O_3  and  C_30
REMARK    3  A    between atoms: C_9  and  C_13
REMARK    4  A    between atoms: C_10  and  C_15
REMARK    5  A    between atoms: C_13  and  C_16
REMARK    6  A    between atoms: C_15  and  C_17
REMARK    7  A    between atoms: C_24  and  C_25
REMARK                            x       y       z     vdW  Elec       q    Type
REMARK                         _______ _______ _______ _____ _____    ______ ____
ROOT
ATOM      4  N   UNL     1      -6.584   3.443  25.773  0.00  0.00    -0.316 NA
ATOM      9  C   UNL     1      -4.076   1.953  25.325  0.00  0.00    +0.004 C 
ATOM     10  C   UNL     1      -4.109   3.480  25.572  0.00  0.00    +0.012 C 
ATOM     11  C   UNL     1      -5.335   1.319  25.941  0.00  0.00    +0.019 C 
ATOM     12  C   UNL     1      -5.446   4.098  25.128  0.00  0.00    +0.085 C 
ATOM     14  C   UNL     1      -6.619   2.010  25.487  0.00  0.00    +0.081 C 
ATOM     31  H   UNL     1      -7.450   3.872  25.448  0.00  0.00    +0.122 HD
ENDROOT
BRANCH   9  13
ATOM     13  C   UNL     1      -3.935   1.562  23.850  0.00  0.00    +0.100 C 
BRANCH  13  16
ATOM      1  O   UNL     1      -3.868  -0.809  23.742  0.00  0.00    -0.276 OA
ATOM      5  N   UNL     1      -1.829   0.299  23.619  0.00  0.00    -0.298 N 
ATOM      6  N   UNL     1       1.030   0.312  23.166  0.00  0.00    -0.312 N 
ATOM      8  N   UNL     1       3.224   0.887  23.824  0.00  0.00    -0.240 NA
ATOM     16  C   UNL     1      -3.218   0.239  23.732  0.00  0.00    +0.216 C 
ATOM     18  C   UNL     1      -1.062  -0.940  23.505  0.00  0.00    +0.126 C 
ATOM     19  C   UNL     1      -1.059   1.544  23.596  0.00  0.00    +0.126 C 
ATOM     20  C   UNL     1       0.183  -0.764  22.640  0.00  0.00    +0.125 C 
ATOM     21  C   UNL     1       0.403   1.345  23.993  0.00  0.00    +0.125 C 
ATOM     23  C   UNL     1       2.399   0.327  22.910  0.00  0.00    +0.121 A 
ATOM     26  C   UNL     1       2.830  -0.242  21.722  0.00  0.00    +0.043 A 
ATOM     27  C   UNL     1       4.195  -0.235  21.455  0.00  0.00    +0.005 A 
ATOM     28  C   UNL     1       4.543   0.876  23.529  0.00  0.00    +0.113 A 
ATOM     29  C   UNL     1       5.074   0.333  22.370  0.00  0.00    +0.020 A 
ENDBRANCH  13  16
ENDBRANCH   9  13
BRANCH  10  15
ATOM     15  C   UNL     1      -2.936   4.217  24.924  0.00  0.00    +0.064 C 
BRANCH  15  17
ATOM      2  O   UNL     1       0.504   3.805  25.905  0.00  0.00    -0.357 OA
ATOM      7  N   UNL     1      -0.489   4.360  25.107  0.00  0.00    -0.083 NA
ATOM     17  C   UNL     1      -1.631   3.834  25.561  0.00  0.00    +0.084 A 
ATOM     22  C   UNL     1      -1.422   2.951  26.634  0.00  0.00    +0.073 A 
ATOM     24  C   UNL     1      -0.065   2.967  26.810  0.00  0.00    +0.163 A 
BRANCH  24  25
ATOM     25  C   UNL     1       0.848   2.291  27.741  0.00  0.00    +0.236 C 
BRANCH  25   3
ATOM      3  O   UNL     1       1.989   3.115  28.002  0.00  0.00    -0.375 OA
ATOM     30  C   UNL     1       2.699   2.659  29.141  0.00  0.00    +0.194 C 
ENDBRANCH  25   3
ENDBRANCH  24  25
ENDBRANCH  15  17
ENDBRANCH  10  15
TORSDOF 6
ENDMDL
MODEL 4
REMARK VINA RESULT:       2.9      1.991      4.052
REMARK  Name = 26743050
REMARK  7 active torsions:
REMARK  status: ('A' for Active; 'I' for Inactive)
REMARK    1  A    between atoms: O_3  and  C_25
REMARK    2  A    between atoms: O_3  and  C_30
REMARK    3  A    between atoms: C_9  and  C_13
REMARK    4  A    between atoms: C_10  and  C_15
REMARK    5  A    between atoms: C_13  and  C_16
REMARK    6  A    between atoms: C_15  and  C_17
REMARK    7  A    between atoms: C_24  and  C_25
REMARK                            x       y       z     vdW  Elec       q    Type
REMARK                         _______ _______ _______ _____ _____    ______ ____
ROOT
ATOM      4  N   UNL     1      -3.656   4.250  26.521  0.00  0.00    -0.316 NA
ATOM      9  C   UNL     1      -3.462   2.840  23.935  0.00  0.00    +0.004 C 
ATOM     10  C   UNL     1      -4.761   2.871  24.775  0.00  0.00    +0.012 C 
ATOM     11  C   UNL     1      -2.603   4.064  24.294  0.00  0.00    +0.019 C 
ATOM     12  C   UNL     1      -4.465   3.055  26.273  0.00  0.00    +0.085 C 
ATOM     14  C   UNL     1      -2.386   4.204  25.800  0.00  0.00    +0.081 C 
ATOM     31  H   UNL     1      -3.473   4.332  27.521  0.00  0.00    +0.122 HD
ENDROOT
BRANCH   9  13
ATOM     13  C   UNL     1      -2.655   1.546  24.084  0.00  0.00    +0.100 C 
BRANCH  13  16
ATOM      1  O   UNL     1      -2.366   1.517  21.727  0.00  0.00    -0.276 OA
ATOM      5  N   UNL     1      -0.571   0.781  23.007  0.00  0.00    -0.298 N 
ATOM      6  N   UNL     1       2.186  -0.061  23.267  0.00  0.00    -0.312 N 
ATOM      8  N   UNL     1       3.817  -1.588  24.033  0.00  0.00    -0.240 NA
ATOM     16  C   UNL     1      -1.860   1.285  22.828  0.00  0.00    +0.216 C 
ATOM     18  C   UNL     1       0.260   0.497  21.839  0.00  0.00    +0.126 C 
ATOM     19  C   UNL     1       0.032   0.515  24.315  0.00  0.00    +0.126 C 
ATOM     20  C   UNL     1       1.741   0.737  22.120  0.00  0.00    +0.125 C 
ATOM     21  C   UNL     1       1.182  -0.489  24.244  0.00  0.00    +0.125 C 
ATOM     23  C   UNL     1       3.523  -0.430  23.400  0.00  0.00    +0.121 A 
ATOM     26  C   UNL     1       4.474   0.425  22.867  0.00  0.00    +0.043 A 
ATOM     27  C   UNL     1       5.812   0.069  22.991  0.00  0.00    +0.005 A 
ATOM     28  C   UNL     1       5.128  -1.900  24.135  0.00  0.00    +0.113 A 
ATOM     29  C   UNL     1       6.154  -1.114  23.637  0.00  0.00    +0.020 A 
ENDBRANCH  13  16
ENDBRANCH   9  13
BRANCH  10  15
ATOM     15  C   UNL     1      -5.650   1.647  24.550  0.00  0.00    +0.064 C 
BRANCH  15  17
ATOM      2  O   UNL     1      -3.850  -1.089  26.043  0.00  0.00    -0.357 OA
ATOM      7  N   UNL     1      -4.461   0.157  26.100  0.00  0.00    -0.083 NA
ATOM     17  C   UNL     1      -4.918   0.375  24.863  0.00  0.00    +0.084 A 
ATOM     22  C   UNL     1      -4.626  -0.688  23.992  0.00  0.00    +0.073 A 
ATOM     24  C   UNL     1      -3.954  -1.582  24.781  0.00  0.00    +0.163 A 
BRANCH  24  25
ATOM     25  C   UNL     1      -3.357  -2.902  24.542  0.00  0.00    +0.236 C 
BRANCH  25   3
ATOM      3  O   UNL     1      -1.999  -2.761  24.111  0.00  0.00    -0.375 OA
ATOM     30  C   UNL     1      -1.153  -2.405  25.192  0.00  0.00    +0.194 C 
ENDBRANCH  25   3
ENDBRANCH  24  25
ENDBRANCH  15  17
ENDBRANCH  10  15
TORSDOF 6
ENDMDL
MODEL 5
REMARK VINA RESULT:       3.0      1.896      4.488
REMARK  Name = 26743050
REMARK  7 active torsions:
REMARK  status: ('A' for Active; 'I' for Inactive)
REMARK    1  A    between atoms: O_3  and  C_25
REMARK    2  A    between atoms: O_3  and  C_30
REMARK    3  A    between atoms: C_9  and  C_13
REMARK    4  A    between atoms: C_10  and  C_15
REMARK    5  A    between atoms: C_13  and  C_16
REMARK    6  A    between atoms: C_15  and  C_17
REMARK    7  A    between atoms: C_24  and  C_25
REMARK                            x       y       z     vdW  Elec       q    Type
REMARK                         _______ _______ _______ _____ _____    ______ ____
ROOT
ATOM      4  N   UNL     1      -6.935   3.943  25.769  0.00  0.00    -0.316 NA
ATOM      9  C   UNL     1      -4.370   2.669  25.057  0.00  0.00    +0.004 C 
ATOM     10  C   UNL     1      -5.595   1.864  25.553  0.00  0.00    +0.012 C 
ATOM     11  C   UNL     1      -4.856   3.989  24.436  0.00  0.00    +0.019 C 
ATOM     12  C   UNL     1      -6.512   2.716  26.446  0.00  0.00    +0.085 C 
ATOM     14  C   UNL     1      -5.794   4.761  25.364  0.00  0.00    +0.081 C 
ATOM     31  H   UNL     1      -7.532   4.485  26.394  0.00  0.00    +0.122 HD
ENDROOT
BRANCH   9  13
ATOM     13  C   UNL     1      -3.317   2.931  26.139  0.00  0.00    +0.100 C 
BRANCH  13  16
ATOM      1  O   UNL     1      -2.174   4.968  25.711  0.00  0.00    -0.276 OA
ATOM      5  N   UNL     1      -1.188   3.028  24.897  0.00  0.00    -0.298 N 
ATOM      6  N   UNL     1       1.031   1.629  23.672  0.00  0.00    -0.312 N 
ATOM      8  N   UNL     1       1.900   0.165  22.036  0.00  0.00    -0.240 NA
ATOM     16  C   UNL     1      -2.180   3.743  25.569  0.00  0.00    +0.216 C 
ATOM     18  C   UNL     1      -0.056   3.744  24.312  0.00  0.00    +0.126 C 
ATOM     19  C   UNL     1      -1.190   1.572  24.738  0.00  0.00    +0.126 C 
ATOM     20  C   UNL     1       1.226   2.914  24.350  0.00  0.00    +0.125 C 
ATOM     21  C   UNL     1      -0.333   1.104  23.563  0.00  0.00    +0.125 C 
ATOM     23  C   UNL     1       2.111   0.948  23.118  0.00  0.00    +0.121 A 
ATOM     26  C   UNL     1       3.348   1.120  23.720  0.00  0.00    +0.043 A 
ATOM     27  C   UNL     1       4.436   0.446  23.177  0.00  0.00    +0.005 A 
ATOM     28  C   UNL     1       2.980  -0.475  21.536  0.00  0.00    +0.113 A 
ATOM     29  C   UNL     1       4.257  -0.368  22.064  0.00  0.00    +0.020 A 
ENDBRANCH  13  16
ENDBRANCH   9  13
BRANCH  10  15
ATOM     15  C   UNL     1      -5.211   0.565  26.263  0.00  0.00    +0.064 C 
BRANCH  15  17
ATOM      2  O   UNL     1      -3.545  -1.122  23.554  0.00  0.00    -0.357 OA
ATOM      7  N   UNL     1      -4.432  -0.177  24.053  0.00  0.00    -0.083 NA
ATOM     17  C   UNL     1      -4.371  -0.313  25.381  0.00  0.00    +0.084 A 
ATOM     22  C   UNL     1      -3.471  -1.318  25.773  0.00  0.00    +0.073 A 
ATOM     24  C   UNL     1      -2.979  -1.796  24.588  0.00  0.00    +0.163 A 
BRANCH  24  25
ATOM     25  C   UNL     1      -2.008  -2.839  24.236  0.00  0.00    +0.236 C 
BRANCH  25   3
ATOM      3  O   UNL     1      -0.704  -2.271  24.080  0.00  0.00    -0.375 OA
ATOM     30  C   UNL     1      -0.152  -1.904  25.333  0.00  0.00    +0.194 C 
ENDBRANCH  25   3
ENDBRANCH  24  25
ENDBRANCH  15  17
ENDBRANCH  10  15
TORSDOF 6
ENDMDL
MODEL 6
REMARK VINA RESULT:       3.6      2.043      4.701
REMARK  Name = 26743050
REMARK  7 active torsions:
REMARK  status: ('A' for Active; 'I' for Inactive)
REMARK    1  A    between atoms: O_3  and  C_25
REMARK    2  A    between atoms: O_3  and  C_30
REMARK    3  A    between atoms: C_9  and  C_13
REMARK    4  A    between atoms: C_10  and  C_15
REMARK    5  A    between atoms: C_13  and  C_16
REMARK    6  A    between atoms: C_15  and  C_17
REMARK    7  A    between atoms: C_24  and  C_25
REMARK                            x       y       z     vdW  Elec       q    Type
REMARK                         _______ _______ _______ _____ _____    ______ ____
ROOT
ATOM      4  N   UNL     1      -6.100   2.713  26.439  0.00  0.00    -0.316 NA
ATOM      9  C   UNL     1      -4.762   4.178  24.254  0.00  0.00    +0.004 C 
ATOM     10  C   UNL     1      -4.819   2.633  24.312  0.00  0.00    +0.012 C 
ATOM     11  C   UNL     1      -5.940   4.754  25.058  0.00  0.00    +0.019 C 
ATOM     12  C   UNL     1      -4.946   2.123  25.758  0.00  0.00    +0.085 C 
ATOM     14  C   UNL     1      -6.026   4.172  26.467  0.00  0.00    +0.081 C 
ATOM     31  H   UNL     1      -6.145   2.359  27.394  0.00  0.00    +0.122 HD
ENDROOT
BRANCH   9  13
ATOM     13  C   UNL     1      -3.433   4.771  24.735  0.00  0.00    +0.100 C 
BRANCH  13  16
ATOM      1  O   UNL     1      -3.187   3.540  26.751  0.00  0.00    -0.276 OA
ATOM      5  N   UNL     1      -1.557   3.217  25.126  0.00  0.00    -0.298 N 
ATOM      6  N   UNL     1       0.752   1.811  24.090  0.00  0.00    -0.312 N 
ATOM      8  N   UNL     1       2.931   1.805  23.181  0.00  0.00    -0.240 NA
ATOM     16  C   UNL     1      -2.724   3.789  25.635  0.00  0.00    +0.216 C 
ATOM     18  C   UNL     1      -0.810   2.260  25.940  0.00  0.00    +0.126 C 
ATOM     19  C   UNL     1      -1.014   3.504  23.797  0.00  0.00    +0.126 C 
ATOM     20  C   UNL     1      -0.130   1.192  25.085  0.00  0.00    +0.125 C 
ATOM     21  C   UNL     1       0.478   3.192  23.686  0.00  0.00    +0.125 C 
ATOM     23  C   UNL     1       1.839   1.111  23.572  0.00  0.00    +0.121 A 
ATOM     26  C   UNL     1       1.727  -0.268  23.491  0.00  0.00    +0.043 A 
ATOM     27  C   UNL     1       2.804  -0.980  22.977  0.00  0.00    +0.005 A 
ATOM     28  C   UNL     1       3.958   1.080  22.686  0.00  0.00    +0.113 A 
ATOM     29  C   UNL     1       3.946  -0.300  22.564  0.00  0.00    +0.020 A 
ENDBRANCH  13  16
ENDBRANCH   9  13
BRANCH  10  15
ATOM     15  C   UNL     1      -3.639   1.962  23.608  0.00  0.00    +0.064 C 
BRANCH  15  17
ATOM      2  O   UNL     1      -4.312  -1.521  24.218  0.00  0.00    -0.357 OA
ATOM      7  N   UNL     1      -4.713  -0.227  23.913  0.00  0.00    -0.083 NA
ATOM     17  C   UNL     1      -3.587   0.492  23.908  0.00  0.00    +0.084 A 
ATOM     22  C   UNL     1      -2.455  -0.288  24.202  0.00  0.00    +0.073 A 
ATOM     24  C   UNL     1      -2.965  -1.545  24.389  0.00  0.00    +0.163 A 
BRANCH  24  25
ATOM     25  C   UNL     1      -2.368  -2.845  24.719  0.00  0.00    +0.236 C 
BRANCH  25   3
ATOM      3  O   UNL     1      -0.977  -2.852  24.384  0.00  0.00    -0.375 OA
ATOM     30  C   UNL     1      -0.183  -2.444  25.486  0.00  0.00    +0.194 C 
ENDBRANCH  25   3
ENDBRANCH  24  25
ENDBRANCH  15  17
ENDBRANCH  10  15
TORSDOF 6
ENDMDL
MODEL 7
REMARK VINA RESULT:       3.9      2.196      4.605
REMARK  Name = 26743050
REMARK  7 active torsions:
REMARK  status: ('A' for Active; 'I' for Inactive)
REMARK    1  A    between atoms: O_3  and  C_25
REMARK    2  A    between atoms: O_3  and  C_30
REMARK    3  A    between atoms: C_9  and  C_13
REMARK    4  A    between atoms: C_10  and  C_15
REMARK    5  A    between atoms: C_13  and  C_16
REMARK    6  A    between atoms: C_15  and  C_17
REMARK    7  A    between atoms: C_24  and  C_25
REMARK                            x       y       z     vdW  Elec       q    Type
REMARK                         _______ _______ _______ _____ _____    ______ ____
ROOT
ATOM      4  N   UNL     1      -3.815   4.728  26.053  0.00  0.00    -0.316 NA
ATOM      9  C   UNL     1      -3.471   2.296  24.417  0.00  0.00    +0.004 C 
ATOM     10  C   UNL     1      -2.830   2.460  25.816  0.00  0.00    +0.012 C 
ATOM     11  C   UNL     1      -4.704   3.210  24.320  0.00  0.00    +0.019 C 
ATOM     12  C   UNL     1      -2.586   3.939  26.159  0.00  0.00    +0.085 C 
ATOM     14  C   UNL     1      -4.394   4.653  24.714  0.00  0.00    +0.081 C 
ATOM     31  H   UNL     1      -3.611   5.702  26.278  0.00  0.00    +0.122 HD
ENDROOT
BRANCH   9  13
ATOM     13  C   UNL     1      -2.506   2.558  23.255  0.00  0.00    +0.100 C 
BRANCH  13  16
ATOM      1  O   UNL     1      -2.716   0.463  22.157  0.00  0.00    -0.276 OA
ATOM      5  N   UNL     1      -0.601   1.021  22.943  0.00  0.00    -0.298 N 
ATOM      6  N   UNL     1       2.245   0.533  23.138  0.00  0.00    -0.312 N 
ATOM      8  N   UNL     1       4.216   0.281  24.415  0.00  0.00    -0.240 NA
ATOM     16  C   UNL     1      -1.961   1.251  22.731  0.00  0.00    +0.216 C 
ATOM     18  C   UNL     1       0.000  -0.224  22.470  0.00  0.00    +0.126 C 
ATOM     19  C   UNL     1       0.296   1.962  23.616  0.00  0.00    +0.126 C 
ATOM     20  C   UNL     1       1.453  -0.029  22.040  0.00  0.00    +0.125 C 
ATOM     21  C   UNL     1       1.546   1.289  24.180  0.00  0.00    +0.125 C 
ATOM     23  C   UNL     1       3.620   0.321  23.202  0.00  0.00    +0.121 A 
ATOM     26  C   UNL     1       4.295   0.164  22.001  0.00  0.00    +0.043 A 
ATOM     27  C   UNL     1       5.668  -0.048  22.050  0.00  0.00    +0.005 A 
ATOM     28  C   UNL     1       5.551   0.074  24.422  0.00  0.00    +0.113 A 
ATOM     29  C   UNL     1       6.316  -0.096  23.279  0.00  0.00    +0.020 A 
ENDBRANCH  13  16
ENDBRANCH   9  13
BRANCH  10  15
ATOM     15  C   UNL     1      -1.544   1.651  25.985  0.00  0.00    +0.064 C 
BRANCH  15  17
ATOM      2  O   UNL     1      -1.333  -1.917  25.554  0.00  0.00    -0.357 OA
ATOM      7  N   UNL     1      -0.760  -0.666  25.740  0.00  0.00    -0.083 NA
ATOM     17  C   UNL     1      -1.792   0.183  25.788  0.00  0.00    +0.084 A 
ATOM     22  C   UNL     1      -3.027  -0.470  25.639  0.00  0.00    +0.073 A 
ATOM     24  C   UNL     1      -2.684  -1.788  25.496  0.00  0.00    +0.163 A 
BRANCH  24  25
ATOM     25  C   UNL     1      -3.453  -3.023  25.301  0.00  0.00    +0.236 C 
BRANCH  25   3
ATOM      3  O   UNL     1      -3.751  -3.209  23.914  0.00  0.00    -0.375 OA
ATOM     30  C   UNL     1      -4.624  -2.199  23.438  0.00  0.00    +0.194 C 
ENDBRANCH  25   3
ENDBRANCH  24  25
ENDBRANCH  15  17
ENDBRANCH  10  15
TORSDOF 6
ENDMDL
MODEL 8
REMARK VINA RESULT:       5.8      3.031      5.472
REMARK  Name = 26743050
REMARK  7 active torsions:
REMARK  status: ('A' for Active; 'I' for Inactive)
REMARK    1  A    between atoms: O_3  and  C_25
REMARK    2  A    between atoms: O_3  and  C_30
REMARK    3  A    between atoms: C_9  and  C_13
REMARK    4  A    between atoms: C_10  and  C_15
REMARK    5  A    between atoms: C_13  and  C_16
REMARK    6  A    between atoms: C_15  and  C_17
REMARK    7  A    between atoms: C_24  and  C_25
REMARK                            x       y       z     vdW  Elec       q    Type
REMARK                         _______ _______ _______ _____ _____    ______ ____
ROOT
ATOM      4  N   UNL     1      -4.679   0.208  26.493  0.00  0.00    -0.316 NA
ATOM      9  C   UNL     1      -4.694   0.472  23.554  0.00  0.00    +0.004 C 
ATOM     10  C   UNL     1      -4.365  -0.859  24.272  0.00  0.00    +0.012 C 
ATOM     11  C   UNL     1      -5.556   1.343  24.482  0.00  0.00    +0.019 C 
ATOM     12  C   UNL     1      -3.787  -0.617  25.677  0.00  0.00    +0.085 C 
ATOM     14  C   UNL     1      -4.940   1.504  25.871  0.00  0.00    +0.081 C 
ATOM     31  H   UNL     1      -4.259   0.354  27.411  0.00  0.00    +0.122 HD
ENDROOT
BRANCH   9  13
ATOM     13  C   UNL     1      -3.460   1.243  23.073  0.00  0.00    +0.100 C 
BRANCH  13  16
ATOM      1  O   UNL     1      -4.093   3.456  23.658  0.00  0.00    -0.276 OA
ATOM      5  N   UNL     1      -2.266   2.561  24.783  0.00  0.00    -0.298 N 
ATOM      6  N   UNL     1      -0.268   2.673  26.875  0.00  0.00    -0.312 N 
ATOM      8  N   UNL     1       1.976   2.540  27.598  0.00  0.00    -0.240 NA
ATOM     16  C   UNL     1      -3.312   2.523  23.859  0.00  0.00    +0.216 C 
ATOM     18  C   UNL     1      -2.053   3.767  25.579  0.00  0.00    +0.126 C 
ATOM     19  C   UNL     1      -1.346   1.448  25.028  0.00  0.00    +0.126 C 
ATOM     20  C   UNL     1      -1.511   3.445  26.970  0.00  0.00    +0.125 C 
ATOM     21  C   UNL     1      -0.027   1.898  25.655  0.00  0.00    +0.125 C 
ATOM     23  C   UNL     1       0.669   2.706  27.904  0.00  0.00    +0.121 A 
ATOM     26  C   UNL     1       0.194   2.911  29.190  0.00  0.00    +0.043 A 
ATOM     27  C   UNL     1       1.119   2.947  30.227  0.00  0.00    +0.005 A 
ATOM     28  C   UNL     1       2.845   2.580  28.632  0.00  0.00    +0.113 A 
ATOM     29  C   UNL     1       2.472   2.780  29.951  0.00  0.00    +0.020 A 
ENDBRANCH  13  16
ENDBRANCH   9  13
BRANCH  10  15
ATOM     15  C   UNL     1      -3.439  -1.765  23.460  0.00  0.00    +0.064 C 
BRANCH  15  17
ATOM      2  O   UNL     1      -0.245  -1.765  25.121  0.00  0.00    -0.357 OA
ATOM      7  N   UNL     1      -1.595  -2.082  25.054  0.00  0.00    -0.083 NA
ATOM     17  C   UNL     1      -2.006  -1.599  23.878  0.00  0.00    +0.084 A 
ATOM     22  C   UNL     1      -0.969  -0.973  23.167  0.00  0.00    +0.073 A 
ATOM     24  C   UNL     1       0.117  -1.103  23.991  0.00  0.00    +0.163 A 
BRANCH  24  25
ATOM     25  C   UNL     1       1.522  -0.690  23.895  0.00  0.00    +0.236 C 
BRANCH  25   3
ATOM      3  O   UNL     1       1.723   0.120  22.732  0.00  0.00    -0.375 OA
ATOM     30  C   UNL     1       3.103   0.328  22.484  0.00  0.00    +0.194 C 
ENDBRANCH  25   3
ENDBRANCH  24  25
ENDBRANCH  15  17
ENDBRANCH  10  15
TORSDOF 6
ENDMDL
