MODEL 1
REMARK VINA RESULT:      -5.9      0.000      0.000
REMARK  Name = 75536828
REMARK  8 active torsions:
REMARK  status: ('A' for Active; 'I' for Inactive)
REMARK    1  A    between atoms: S_1  and  N_7
REMARK    2  A    between atoms: S_1  and  C_16
REMARK    3  A    between atoms: O_3  and  C_10
REMARK    4  A    between atoms: N_6  and  C_9
REMARK    5  A    between atoms: N_6  and  C_14
REMARK    6  A    between atoms: N_7  and  C_13
REMARK    7  A    between atoms: C_11  and  C_13
REMARK    8  A    between atoms: C_14  and  C_15
REMARK                            x       y       z     vdW  Elec       q    Type
REMARK                         _______ _______ _______ _____ _____    ______ ____
ROOT
ATOM      2  O   UNL     1      -0.396   3.624  26.121  0.00  0.00    -0.371 OA
ATOM      9  C   UNL     1      -0.175   1.688  24.761  0.00  0.00    +0.111 C 
ATOM     10  C   UNL     1      -1.550   2.293  24.543  0.00  0.00    +0.164 C 
ATOM     11  C   UNL     1      -1.324   3.718  25.028  0.00  0.00    +0.164 C 
ATOM     12  C   UNL     1       0.228   2.328  26.080  0.00  0.00    +0.181 C 
ENDROOT
BRANCH  10   3
ATOM      3  O   UNL     1      -1.954   2.256  23.188  0.00  0.00    -0.388 OA
ATOM     22  H   UNL     1      -1.337   2.800  22.669  0.00  0.00    +0.210 HD
ENDBRANCH  10   3
BRANCH   9   6
ATOM      6  N   UNL     1      -0.179   0.236  24.814  0.00  0.00    -0.305 NA
ATOM     21  H   UNL     1       0.747  -0.089  25.097  0.00  0.00    +0.123 HD
BRANCH   6  14
ATOM     14  C   UNL     1      -1.162  -0.253  25.772  0.00  0.00    +0.116 C 
BRANCH  14  15
ATOM      8  N   UNL     1      -4.299  -2.483  23.853  0.00  0.00    -0.263 NA
ATOM     15  C   UNL     1      -2.260  -1.033  25.101  0.00  0.00    -0.031 A 
ATOM     17  C   UNL     1      -2.064  -2.370  24.769  0.00  0.00    +0.024 A 
ATOM     18  C   UNL     1      -3.474  -0.422  24.809  0.00  0.00    +0.024 A 
ATOM     19  C   UNL     1      -3.105  -3.044  24.151  0.00  0.00    +0.111 A 
ATOM     20  C   UNL     1      -4.453  -1.183  24.190  0.00  0.00    +0.111 A 
ENDBRANCH  14  15
ENDBRANCH   6  14
ENDBRANCH   9   6
BRANCH  11  13
ATOM     13  C   UNL     1      -2.597   4.403  25.494  0.00  0.00    +0.139 C 
BRANCH  13   7
ATOM      7  N   UNL     1      -3.552   3.391  25.985  0.00  0.00    -0.192 NA
ATOM     23  H   UNL     1      -3.554   3.296  27.010  0.00  0.00    +0.148 HD
BRANCH   7   1
ATOM      1  S   UNL     1      -5.064   3.231  25.210  0.00  0.00    +0.027 S 
ATOM      4  O   UNL     1      -4.878   2.703  23.873  0.00  0.00    -0.158 OA
ATOM      5  O   UNL     1      -5.822   4.448  25.428  0.00  0.00    -0.158 OA
ATOM     16  C   UNL     1      -5.808   1.957  26.203  0.00  0.00    +0.214 C 
ENDBRANCH   7   1
ENDBRANCH  13   7
ENDBRANCH  11  13
TORSDOF 7
ENDMDL
MODEL 2
REMARK VINA RESULT:      -5.7      2.873      4.868
REMARK  Name = 75536828
REMARK  8 active torsions:
REMARK  status: ('A' for Active; 'I' for Inactive)
REMARK    1  A    between atoms: S_1  and  N_7
REMARK    2  A    between atoms: S_1  and  C_16
REMARK    3  A    between atoms: O_3  and  C_10
REMARK    4  A    between atoms: N_6  and  C_9
REMARK    5  A    between atoms: N_6  and  C_14
REMARK    6  A    between atoms: N_7  and  C_13
REMARK    7  A    between atoms: C_11  and  C_13
REMARK    8  A    between atoms: C_14  and  C_15
REMARK                            x       y       z     vdW  Elec       q    Type
REMARK                         _______ _______ _______ _____ _____    ______ ____
ROOT
ATOM      2  O   UNL     1       0.498   0.609  23.384  0.00  0.00    -0.371 OA
ATOM      9  C   UNL     1       0.141   1.797  25.411  0.00  0.00    +0.111 C 
ATOM     10  C   UNL     1      -0.794   0.603  25.365  0.00  0.00    +0.164 C 
ATOM     11  C   UNL     1      -0.091  -0.282  24.345  0.00  0.00    +0.164 C 
ATOM     12  C   UNL     1       0.526   1.933  23.946  0.00  0.00    +0.181 C 
ENDROOT
BRANCH  10   3
ATOM      3  O   UNL     1      -0.923  -0.038  26.619  0.00  0.00    -0.388 OA
ATOM     22  H   UNL     1      -1.284  -0.929  26.472  0.00  0.00    +0.210 HD
ENDBRANCH  10   3
BRANCH   9   6
ATOM      6  N   UNL     1      -0.473   2.999  25.950  0.00  0.00    -0.305 NA
ATOM     21  H   UNL     1       0.256   3.603  26.331  0.00  0.00    +0.123 HD
BRANCH   6  14
ATOM     14  C   UNL     1      -1.196   3.728  24.915  0.00  0.00    +0.116 C 
BRANCH  14  15
ATOM      8  N   UNL     1      -5.420   2.931  25.046  0.00  0.00    -0.263 NA
ATOM     15  C   UNL     1      -2.674   3.450  24.961  0.00  0.00    -0.031 A 
ATOM     17  C   UNL     1      -3.434   3.887  26.041  0.00  0.00    +0.024 A 
ATOM     18  C   UNL     1      -3.286   2.754  23.924  0.00  0.00    +0.024 A 
ATOM     19  C   UNL     1      -4.791   3.604  26.036  0.00  0.00    +0.111 A 
ATOM     20  C   UNL     1      -4.650   2.523  24.014  0.00  0.00    +0.111 A 
ENDBRANCH  14  15
ENDBRANCH   6  14
ENDBRANCH   9   6
BRANCH  11  13
ATOM     13  C   UNL     1      -1.027  -1.249  23.641  0.00  0.00    +0.139 C 
BRANCH  13   7
ATOM      7  N   UNL     1      -1.621  -2.170  24.629  0.00  0.00    -0.192 NA
ATOM     23  H   UNL     1      -1.019  -2.334  25.448  0.00  0.00    +0.148 HD
BRANCH   7   1
ATOM      1  S   UNL     1      -3.300  -2.093  24.931  0.00  0.00    +0.027 S 
ATOM      4  O   UNL     1      -3.539  -1.487  26.226  0.00  0.00    -0.158 OA
ATOM      5  O   UNL     1      -3.885  -3.376  24.593  0.00  0.00    -0.158 OA
ATOM     16  C   UNL     1      -3.805  -0.932  23.683  0.00  0.00    +0.214 C 
ENDBRANCH   7   1
ENDBRANCH  13   7
ENDBRANCH  11  13
TORSDOF 7
ENDMDL
MODEL 3
REMARK VINA RESULT:      -5.2      2.051      3.826
REMARK  Name = 75536828
REMARK  8 active torsions:
REMARK  status: ('A' for Active; 'I' for Inactive)
REMARK    1  A    between atoms: S_1  and  N_7
REMARK    2  A    between atoms: S_1  and  C_16
REMARK    3  A    between atoms: O_3  and  C_10
REMARK    4  A    between atoms: N_6  and  C_9
REMARK    5  A    between atoms: N_6  and  C_14
REMARK    6  A    between atoms: N_7  and  C_13
REMARK    7  A    between atoms: C_11  and  C_13
REMARK    8  A    between atoms: C_14  and  C_15
REMARK                            x       y       z     vdW  Elec       q    Type
REMARK                         _______ _______ _______ _____ _____    ______ ____
ROOT
ATOM      2  O   UNL     1      -2.576   3.251  23.593  0.00  0.00    -0.371 OA
ATOM      9  C   UNL     1      -4.661   2.276  24.183  0.00  0.00    +0.111 C 
ATOM     10  C   UNL     1      -4.113   3.034  25.378  0.00  0.00    +0.164 C 
ATOM     11  C   UNL     1      -3.131   3.980  24.700  0.00  0.00    +0.164 C 
ATOM     12  C   UNL     1      -3.410   2.107  23.336  0.00  0.00    +0.181 C 
ENDROOT
BRANCH  10   3
ATOM      3  O   UNL     1      -5.117   3.735  26.086  0.00  0.00    -0.388 OA
ATOM     22  H   UNL     1      -5.238   3.306  26.950  0.00  0.00    +0.210 HD
ENDBRANCH  10   3
BRANCH   9   6
ATOM      6  N   UNL     1      -5.284   1.009  24.532  0.00  0.00    -0.305 NA
ATOM     21  H   UNL     1      -5.280   0.400  23.712  0.00  0.00    +0.123 HD
BRANCH   6  14
ATOM     14  C   UNL     1      -4.562   0.349  25.612  0.00  0.00    +0.116 C 
BRANCH  14  15
ATOM      8  N   UNL     1      -2.195  -2.944  24.180  0.00  0.00    -0.263 NA
ATOM     15  C   UNL     1      -3.733  -0.803  25.111  0.00  0.00    -0.031 A 
ATOM     17  C   UNL     1      -2.409  -0.940  25.516  0.00  0.00    +0.024 A 
ATOM     18  C   UNL     1      -4.288  -1.736  24.242  0.00  0.00    +0.024 A 
ATOM     19  C   UNL     1      -1.689  -2.017  25.025  0.00  0.00    +0.111 A 
ATOM     20  C   UNL     1      -3.484  -2.778  23.809  0.00  0.00    +0.111 A 
ENDBRANCH  14  15
ENDBRANCH   6  14
ENDBRANCH   9   6
BRANCH  11  13
ATOM     13  C   UNL     1      -2.016   4.447  25.618  0.00  0.00    +0.139 C 
BRANCH  13   7
ATOM      7  N   UNL     1      -0.721   3.941  25.122  0.00  0.00    -0.192 NA
ATOM     23  H   UNL     1      -0.025   4.683  24.970  0.00  0.00    +0.148 HD
BRANCH   7   1
ATOM      1  S   UNL     1      -0.125   2.458  25.720  0.00  0.00    +0.027 S 
ATOM      4  O   UNL     1      -1.231   1.596  26.089  0.00  0.00    -0.158 OA
ATOM      5  O   UNL     1       0.943   2.739  26.660  0.00  0.00    -0.158 OA
ATOM     16  C   UNL     1       0.622   1.789  24.251  0.00  0.00    +0.214 C 
ENDBRANCH   7   1
ENDBRANCH  13   7
ENDBRANCH  11  13
TORSDOF 7
ENDMDL
MODEL 4
REMARK VINA RESULT:      -4.9      3.500      5.996
REMARK  Name = 75536828
REMARK  8 active torsions:
REMARK  status: ('A' for Active; 'I' for Inactive)
REMARK    1  A    between atoms: S_1  and  N_7
REMARK    2  A    between atoms: S_1  and  C_16
REMARK    3  A    between atoms: O_3  and  C_10
REMARK    4  A    between atoms: N_6  and  C_9
REMARK    5  A    between atoms: N_6  and  C_14
REMARK    6  A    between atoms: N_7  and  C_13
REMARK    7  A    between atoms: C_11  and  C_13
REMARK    8  A    between atoms: C_14  and  C_15
REMARK                            x       y       z     vdW  Elec       q    Type
REMARK                         _______ _______ _______ _____ _____    ______ ____
ROOT
ATOM      2  O   UNL     1      -0.363   0.357  25.304  0.00  0.00    -0.371 OA
ATOM      9  C   UNL     1      -2.292  -0.987  25.648  0.00  0.00    +0.111 C 
ATOM     10  C   UNL     1      -1.690  -1.321  24.295  0.00  0.00    +0.164 C 
ATOM     11  C   UNL     1      -0.266  -0.812  24.474  0.00  0.00    +0.164 C 
ATOM     12  C   UNL     1      -1.657   0.365  25.933  0.00  0.00    +0.181 C 
ENDROOT
BRANCH  10   3
ATOM      3  O   UNL     1      -1.722  -2.706  24.011  0.00  0.00    -0.388 OA
ATOM     22  H   UNL     1      -0.977  -2.915  23.422  0.00  0.00    +0.210 HD
ENDBRANCH  10   3
BRANCH   9   6
ATOM      6  N   UNL     1      -3.744  -0.941  25.645  0.00  0.00    -0.305 NA
ATOM     21  H   UNL     1      -4.063  -0.413  26.459  0.00  0.00    +0.123 HD
BRANCH   6  14
ATOM     14  C   UNL     1      -4.247  -0.295  24.439  0.00  0.00    +0.116 C 
BRANCH  14  15
ATOM      8  N   UNL     1      -4.807   3.932  25.001  0.00  0.00    -0.263 NA
ATOM     15  C   UNL     1      -4.443   1.184  24.635  0.00  0.00    -0.031 A 
ATOM     17  C   UNL     1      -3.658   2.092  23.932  0.00  0.00    +0.024 A 
ATOM     18  C   UNL     1      -5.409   1.649  25.520  0.00  0.00    +0.024 A 
ATOM     19  C   UNL     1      -3.877   3.443  24.149  0.00  0.00    +0.111 A 
ATOM     20  C   UNL     1      -5.550   3.020  25.667  0.00  0.00    +0.111 A 
ENDBRANCH  14  15
ENDBRANCH   6  14
ENDBRANCH   9   6
BRANCH  11  13
ATOM     13  C   UNL     1       0.413  -0.456  23.163  0.00  0.00    +0.139 C 
BRANCH  13   7
ATOM      7  N   UNL     1       1.483   0.530  23.412  0.00  0.00    -0.192 NA
ATOM     23  H   UNL     1       1.521   0.854  24.388  0.00  0.00    +0.148 HD
BRANCH   7   1
ATOM      1  S   UNL     1       2.984   0.343  22.621  0.00  0.00    +0.027 S 
ATOM      4  O   UNL     1       3.838   1.477  22.913  0.00  0.00    -0.158 OA
ATOM      5  O   UNL     1       2.733  -0.064  21.252  0.00  0.00    -0.158 OA
ATOM     16  C   UNL     1       3.635  -1.069  23.484  0.00  0.00    +0.214 C 
ENDBRANCH   7   1
ENDBRANCH  13   7
ENDBRANCH  11  13
TORSDOF 7
ENDMDL
MODEL 5
REMARK VINA RESULT:      -4.1      1.792      3.921
REMARK  Name = 75536828
REMARK  8 active torsions:
REMARK  status: ('A' for Active; 'I' for Inactive)
REMARK    1  A    between atoms: S_1  and  N_7
REMARK    2  A    between atoms: S_1  and  C_16
REMARK    3  A    between atoms: O_3  and  C_10
REMARK    4  A    between atoms: N_6  and  C_9
REMARK    5  A    between atoms: N_6  and  C_14
REMARK    6  A    between atoms: N_7  and  C_13
REMARK    7  A    between atoms: C_11  and  C_13
REMARK    8  A    between atoms: C_14  and  C_15
REMARK                            x       y       z     vdW  Elec       q    Type
REMARK                         _______ _______ _______ _____ _____    ______ ____
ROOT
ATOM      2  O   UNL     1      -3.944   3.220  23.584  0.00  0.00    -0.371 OA
ATOM      9  C   UNL     1      -5.230   1.526  24.643  0.00  0.00    +0.111 C 
ATOM     10  C   UNL     1      -4.764   2.521  25.689  0.00  0.00    +0.164 C 
ATOM     11  C   UNL     1      -4.457   3.735  24.824  0.00  0.00    +0.164 C 
ATOM     12  C   UNL     1      -4.271   1.822  23.500  0.00  0.00    +0.181 C 
ENDROOT
BRANCH  10   3
ATOM      3  O   UNL     1      -5.758   2.800  26.656  0.00  0.00    -0.388 OA
ATOM     22  H   UNL     1      -5.926   1.990  27.166  0.00  0.00    +0.210 HD
ENDBRANCH  10   3
BRANCH   9   6
ATOM      6  N   UNL     1      -5.172   0.142  25.086  0.00  0.00    -0.305 NA
ATOM     21  H   UNL     1      -6.123  -0.212  25.196  0.00  0.00    +0.123 HD
BRANCH   6  14
ATOM     14  C   UNL     1      -4.469  -0.690  24.117  0.00  0.00    +0.116 C 
BRANCH  14  15
ATOM      8  N   UNL     1      -0.545  -1.785  25.494  0.00  0.00    -0.263 NA
ATOM     15  C   UNL     1      -3.096  -1.073  24.599  0.00  0.00    -0.031 A 
ATOM     17  C   UNL     1      -2.578  -2.330  24.304  0.00  0.00    +0.024 A 
ATOM     18  C   UNL     1      -2.339  -0.173  25.340  0.00  0.00    +0.024 A 
ATOM     19  C   UNL     1      -1.309  -2.635  24.772  0.00  0.00    +0.111 A 
ATOM     20  C   UNL     1      -1.081  -0.573  25.760  0.00  0.00    +0.111 A 
ENDBRANCH  14  15
ENDBRANCH   6  14
ENDBRANCH   9   6
BRANCH  11  13
ATOM     13  C   UNL     1      -3.442   4.676  25.448  0.00  0.00    +0.139 C 
BRANCH  13   7
ATOM      7  N   UNL     1      -2.322   3.895  26.008  0.00  0.00    -0.192 NA
ATOM     23  H   UNL     1      -2.627   3.068  26.540  0.00  0.00    +0.148 HD
BRANCH   7   1
ATOM      1  S   UNL     1      -0.893   3.717  25.091  0.00  0.00    +0.027 S 
ATOM      4  O   UNL     1      -0.296   5.016  24.854  0.00  0.00    -0.158 OA
ATOM      5  O   UNL     1      -1.166   2.814  23.989  0.00  0.00    -0.158 OA
ATOM     16  C   UNL     1       0.134   2.845  26.251  0.00  0.00    +0.214 C 
ENDBRANCH   7   1
ENDBRANCH  13   7
ENDBRANCH  11  13
TORSDOF 7
ENDMDL
MODEL 6
REMARK VINA RESULT:      -3.9      4.147      6.503
REMARK  Name = 75536828
REMARK  8 active torsions:
REMARK  status: ('A' for Active; 'I' for Inactive)
REMARK    1  A    between atoms: S_1  and  N_7
REMARK    2  A    between atoms: S_1  and  C_16
REMARK    3  A    between atoms: O_3  and  C_10
REMARK    4  A    between atoms: N_6  and  C_9
REMARK    5  A    between atoms: N_6  and  C_14
REMARK    6  A    between atoms: N_7  and  C_13
REMARK    7  A    between atoms: C_11  and  C_13
REMARK    8  A    between atoms: C_14  and  C_15
REMARK                            x       y       z     vdW  Elec       q    Type
REMARK                         _______ _______ _______ _____ _____    ______ ____
ROOT
ATOM      2  O   UNL     1       0.277  -0.880  23.387  0.00  0.00    -0.371 OA
ATOM      9  C   UNL     1      -0.440   1.058  24.560  0.00  0.00    +0.111 C 
ATOM     10  C   UNL     1       0.935   1.315  23.972  0.00  0.00    +0.164 C 
ATOM     11  C   UNL     1       0.988   0.259  22.876  0.00  0.00    +0.164 C 
ATOM     12  C   UNL     1      -0.504  -0.461  24.521  0.00  0.00    +0.181 C 
ENDROOT
BRANCH  10   3
ATOM      3  O   UNL     1       1.070   2.623  23.450  0.00  0.00    -0.388 OA
ATOM     22  H   UNL     1       0.889   2.592  22.495  0.00  0.00    +0.210 HD
ENDBRANCH  10   3
BRANCH   9   6
ATOM      6  N   UNL     1      -0.612   1.597  25.899  0.00  0.00    -0.305 NA
ATOM     21  H   UNL     1       0.304   1.698  26.338  0.00  0.00    +0.123 HD
BRANCH   6  14
ATOM     14  C   UNL     1      -1.261   2.902  25.860  0.00  0.00    +0.116 C 
BRANCH  14  15
ATOM      8  N   UNL     1      -5.463   2.578  25.002  0.00  0.00    -0.263 NA
ATOM     15  C   UNL     1      -2.731   2.789  25.560  0.00  0.00    -0.031 A 
ATOM     17  C   UNL     1      -3.243   1.619  25.007  0.00  0.00    +0.024 A 
ATOM     18  C   UNL     1      -3.584   3.852  25.833  0.00  0.00    +0.024 A 
ATOM     19  C   UNL     1      -4.603   1.565  24.749  0.00  0.00    +0.111 A 
ATOM     20  C   UNL     1      -4.929   3.698  25.538  0.00  0.00    +0.111 A 
ENDBRANCH  14  15
ENDBRANCH   6  14
ENDBRANCH   9   6
BRANCH  11  13
ATOM     13  C   UNL     1       2.402  -0.145  22.499  0.00  0.00    +0.139 C 
BRANCH  13   7
ATOM      7  N   UNL     1       3.369   0.706  23.220  0.00  0.00    -0.192 NA
ATOM     23  H   UNL     1       2.931   1.313  23.927  0.00  0.00    +0.148 HD
BRANCH   7   1
ATOM      1  S   UNL     1       4.901   0.068  23.620  0.00  0.00    +0.027 S 
ATOM      4  O   UNL     1       5.364   0.646  24.865  0.00  0.00    -0.158 OA
ATOM      5  O   UNL     1       5.733   0.098  22.433  0.00  0.00    -0.158 OA
ATOM     16  C   UNL     1       4.477  -1.631  23.930  0.00  0.00    +0.214 C 
ENDBRANCH   7   1
ENDBRANCH  13   7
ENDBRANCH  11  13
TORSDOF 7
ENDMDL
MODEL 7
REMARK VINA RESULT:      -3.7     15.251     16.898
REMARK  Name = 75536828
REMARK  8 active torsions:
REMARK  status: ('A' for Active; 'I' for Inactive)
REMARK    1  A    between atoms: S_1  and  N_7
REMARK    2  A    between atoms: S_1  and  C_16
REMARK    3  A    between atoms: O_3  and  C_10
REMARK    4  A    between atoms: N_6  and  C_9
REMARK    5  A    between atoms: N_6  and  C_14
REMARK    6  A    between atoms: N_7  and  C_13
REMARK    7  A    between atoms: C_11  and  C_13
REMARK    8  A    between atoms: C_14  and  C_15
REMARK                            x       y       z     vdW  Elec       q    Type
REMARK                         _______ _______ _______ _____ _____    ______ ____
ROOT
ATOM      2  O   UNL     1      -3.621 -10.712  13.805  0.00  0.00    -0.371 OA
ATOM      9  C   UNL     1      -5.846 -10.428  14.590  0.00  0.00    +0.111 C 
ATOM     10  C   UNL     1      -5.768  -9.970  13.146  0.00  0.00    +0.164 C 
ATOM     11  C   UNL     1      -4.511 -10.689  12.677  0.00  0.00    +0.164 C 
ATOM     12  C   UNL     1      -4.379 -10.409  14.990  0.00  0.00    +0.181 C 
ENDROOT
BRANCH  10   3
ATOM      3  O   UNL     1      -6.904 -10.348  12.392  0.00  0.00    -0.388 OA
ATOM     22  H   UNL     1      -7.367  -9.541  12.111  0.00  0.00    +0.210 HD
ENDBRANCH  10   3
BRANCH   9   6
ATOM      6  N   UNL     1      -6.672  -9.576  15.429  0.00  0.00    -0.305 NA
ATOM     21  H   UNL     1      -6.820  -8.684  14.955  0.00  0.00    +0.123 HD
BRANCH   6  14
ATOM     14  C   UNL     1      -7.968 -10.192  15.689  0.00  0.00    +0.116 C 
BRANCH  14  15
ATOM      8  N   UNL     1      -8.671 -10.732  19.898  0.00  0.00    -0.263 NA
ATOM     15  C   UNL     1      -8.214 -10.381  17.162  0.00  0.00    -0.031 A 
ATOM     17  C   UNL     1      -7.147 -10.612  18.024  0.00  0.00    +0.024 A 
ATOM     18  C   UNL     1      -9.507 -10.324  17.667  0.00  0.00    +0.024 A 
ATOM     19  C   UNL     1      -7.426 -10.781  19.371  0.00  0.00    +0.111 A 
ATOM     20  C   UNL     1      -9.682 -10.505  19.030  0.00  0.00    +0.111 A 
ENDBRANCH  14  15
ENDBRANCH   6  14
ENDBRANCH   9   6
BRANCH  11  13
ATOM     13  C   UNL     1      -3.833 -10.008  11.502  0.00  0.00    +0.139 C 
BRANCH  13   7
ATOM      7  N   UNL     1      -4.765  -9.048  10.880  0.00  0.00    -0.192 NA
ATOM     23  H   UNL     1      -4.470  -8.067  10.983  0.00  0.00    +0.148 HD
BRANCH   7   1
ATOM      1  S   UNL     1      -5.518  -9.458   9.404  0.00  0.00    +0.027 S 
ATOM      4  O   UNL     1      -6.102 -10.781   9.500  0.00  0.00    -0.158 OA
ATOM      5  O   UNL     1      -4.614  -9.123   8.321  0.00  0.00    -0.158 OA
ATOM     16  C   UNL     1      -6.846  -8.275   9.374  0.00  0.00    +0.214 C 
ENDBRANCH   7   1
ENDBRANCH  13   7
ENDBRANCH  11  13
TORSDOF 7
ENDMDL
MODEL 8
REMARK VINA RESULT:      -3.7     16.441     18.817
REMARK  Name = 75536828
REMARK  8 active torsions:
REMARK  status: ('A' for Active; 'I' for Inactive)
REMARK    1  A    between atoms: S_1  and  N_7
REMARK    2  A    between atoms: S_1  and  C_16
REMARK    3  A    between atoms: O_3  and  C_10
REMARK    4  A    between atoms: N_6  and  C_9
REMARK    5  A    between atoms: N_6  and  C_14
REMARK    6  A    between atoms: N_7  and  C_13
REMARK    7  A    between atoms: C_11  and  C_13
REMARK    8  A    between atoms: C_14  and  C_15
REMARK                            x       y       z     vdW  Elec       q    Type
REMARK                         _______ _______ _______ _____ _____    ______ ____
ROOT
ATOM      2  O   UNL     1      11.789   9.082  17.241  0.00  0.00    -0.371 OA
ATOM      9  C   UNL     1      13.634   7.587  17.325  0.00  0.00    +0.111 C 
ATOM     10  C   UNL     1      13.017   7.690  18.707  0.00  0.00    +0.164 C 
ATOM     11  C   UNL     1      11.625   8.207  18.369  0.00  0.00    +0.164 C 
ATOM     12  C   UNL     1      13.080   8.835  16.655  0.00  0.00    +0.181 C 
ENDROOT
BRANCH  10   3
ATOM      3  O   UNL     1      12.968   6.445  19.377  0.00  0.00    -0.388 OA
ATOM     22  H   UNL     1      12.055   6.113  19.340  0.00  0.00    +0.210 HD
ENDBRANCH  10   3
BRANCH   9   6
ATOM      6  N   UNL     1      15.087   7.549  17.336  0.00  0.00    -0.305 NA
ATOM     21  H   UNL     1      15.441   8.437  17.695  0.00  0.00    +0.123 HD
BRANCH   6  14
ATOM     14  C   UNL     1      15.578   6.470  18.184  0.00  0.00    +0.116 C 
BRANCH  14  15
ATOM      8  N   UNL     1      17.402   7.962  21.782  0.00  0.00    -0.263 NA
ATOM     15  C   UNL     1      16.217   6.992  19.443  0.00  0.00    -0.031 A 
ATOM     17  C   UNL     1      16.833   6.115  20.330  0.00  0.00    +0.024 A 
ATOM     18  C   UNL     1      16.193   8.353  19.726  0.00  0.00    +0.024 A 
ATOM     19  C   UNL     1      17.405   6.645  21.475  0.00  0.00    +0.111 A 
ATOM     20  C   UNL     1      16.794   8.784  20.898  0.00  0.00    +0.111 A 
ENDBRANCH  14  15
ENDBRANCH   6  14
ENDBRANCH   9   6
BRANCH  11  13
ATOM     13  C   UNL     1      10.972   8.962  19.513  0.00  0.00    +0.139 C 
BRANCH  13   7
ATOM      7  N   UNL     1      10.282   8.010  20.405  0.00  0.00    -0.192 NA
ATOM     23  H   UNL     1       9.892   7.196  19.910  0.00  0.00    +0.148 HD
BRANCH   7   1
ATOM      1  S   UNL     1      10.926   7.709  21.957  0.00  0.00    +0.027 S 
ATOM      4  O   UNL     1      11.617   6.435  21.964  0.00  0.00    -0.158 OA
ATOM      5  O   UNL     1       9.904   8.005  22.942  0.00  0.00    -0.158 OA
ATOM     16  C   UNL     1      12.150   8.995  22.058  0.00  0.00    +0.214 C 
ENDBRANCH   7   1
ENDBRANCH  13   7
ENDBRANCH  11  13
TORSDOF 7
ENDMDL
MODEL 9
REMARK VINA RESULT:      -3.2      2.941      5.724
REMARK  Name = 75536828
REMARK  8 active torsions:
REMARK  status: ('A' for Active; 'I' for Inactive)
REMARK    1  A    between atoms: S_1  and  N_7
REMARK    2  A    between atoms: S_1  and  C_16
REMARK    3  A    between atoms: O_3  and  C_10
REMARK    4  A    between atoms: N_6  and  C_9
REMARK    5  A    between atoms: N_6  and  C_14
REMARK    6  A    between atoms: N_7  and  C_13
REMARK    7  A    between atoms: C_11  and  C_13
REMARK    8  A    between atoms: C_14  and  C_15
REMARK                            x       y       z     vdW  Elec       q    Type
REMARK                         _______ _______ _______ _____ _____    ______ ____
ROOT
ATOM      2  O   UNL     1      -1.616  -1.197  26.040  0.00  0.00    -0.371 OA
ATOM      9  C   UNL     1      -3.869  -0.646  25.523  0.00  0.00    +0.111 C 
ATOM     10  C   UNL     1      -3.157  -1.065  24.250  0.00  0.00    +0.164 C 
ATOM     11  C   UNL     1      -1.984  -1.854  24.816  0.00  0.00    +0.164 C 
ATOM     12  C   UNL     1      -2.694  -0.329  26.434  0.00  0.00    +0.181 C 
ENDROOT
BRANCH  10   3
ATOM      3  O   UNL     1      -3.968  -1.858  23.407  0.00  0.00    -0.388 OA
ATOM     22  H   UNL     1      -4.798  -1.378  23.240  0.00  0.00    +0.210 HD
ENDBRANCH  10   3
BRANCH   9   6
ATOM      6  N   UNL     1      -4.768   0.482  25.345  0.00  0.00    -0.305 NA
ATOM     21  H   UNL     1      -4.796   1.025  26.210  0.00  0.00    +0.123 HD
BRANCH   6  14
ATOM     14  C   UNL     1      -4.318   1.346  24.261  0.00  0.00    +0.116 C 
BRANCH  14  15
ATOM      8  N   UNL     1      -2.041   4.691  25.718  0.00  0.00    -0.263 NA
ATOM     15  C   UNL     1      -3.521   2.517  24.771  0.00  0.00    -0.031 A 
ATOM     17  C   UNL     1      -2.260   2.784  24.249  0.00  0.00    +0.024 A 
ATOM     18  C   UNL     1      -4.042   3.336  25.765  0.00  0.00    +0.024 A 
ATOM     19  C   UNL     1      -1.566   3.873  24.752  0.00  0.00    +0.111 A 
ATOM     20  C   UNL     1      -3.270   4.401  26.201  0.00  0.00    +0.111 A 
ENDBRANCH  14  15
ENDBRANCH   6  14
ENDBRANCH   9   6
BRANCH  11  13
ATOM     13  C   UNL     1      -0.788  -1.905  23.882  0.00  0.00    +0.139 C 
BRANCH  13   7
ATOM      7  N   UNL     1       0.246  -0.961  24.349  0.00  0.00    -0.192 NA
ATOM     23  H   UNL     1       1.068  -1.426  24.757  0.00  0.00    +0.148 HD
BRANCH   7   1
ATOM      1  S   UNL     1       0.552   0.452  23.442  0.00  0.00    +0.027 S 
ATOM      4  O   UNL     1       1.047   1.499  24.314  0.00  0.00    -0.158 OA
ATOM      5  O   UNL     1      -0.579   0.689  22.567  0.00  0.00    -0.158 OA
ATOM     16  C   UNL     1       1.905  -0.098  22.427  0.00  0.00    +0.214 C 
ENDBRANCH   7   1
ENDBRANCH  13   7
ENDBRANCH  11  13
TORSDOF 7
ENDMDL
MODEL 10
REMARK VINA RESULT:      -3.0     15.385     17.241
REMARK  Name = 75536828
REMARK  8 active torsions:
REMARK  status: ('A' for Active; 'I' for Inactive)
REMARK    1  A    between atoms: S_1  and  N_7
REMARK    2  A    between atoms: S_1  and  C_16
REMARK    3  A    between atoms: O_3  and  C_10
REMARK    4  A    between atoms: N_6  and  C_9
REMARK    5  A    between atoms: N_6  and  C_14
REMARK    6  A    between atoms: N_7  and  C_13
REMARK    7  A    between atoms: C_11  and  C_13
REMARK    8  A    between atoms: C_14  and  C_15
REMARK                            x       y       z     vdW  Elec       q    Type
REMARK                         _______ _______ _______ _____ _____    ______ ____
ROOT
ATOM      2  O   UNL     1      -5.667 -10.507  13.543  0.00  0.00    -0.371 OA
ATOM      9  C   UNL     1      -7.736  -9.968  14.580  0.00  0.00    +0.111 C 
ATOM     10  C   UNL     1      -7.873  -9.794  13.078  0.00  0.00    +0.164 C 
ATOM     11  C   UNL     1      -6.720 -10.652  12.577  0.00  0.00    +0.164 C 
ATOM     12  C   UNL     1      -6.225  -9.950  14.747  0.00  0.00    +0.181 C 
ENDROOT
BRANCH  10   3
ATOM      3  O   UNL     1      -9.120 -10.248  12.589  0.00  0.00    -0.388 OA
ATOM     22  H   UNL     1      -9.182 -11.205  12.749  0.00  0.00    +0.210 HD
ENDBRANCH  10   3
BRANCH   9   6
ATOM      6  N   UNL     1      -8.403  -8.933  15.351  0.00  0.00    -0.305 NA
ATOM     21  H   UNL     1      -8.634  -8.153  14.733  0.00  0.00    +0.123 HD
BRANCH   6  14
ATOM     14  C   UNL     1      -9.632  -9.436  15.952  0.00  0.00    +0.116 C 
BRANCH  14  15
ATOM      8  N   UNL     1      -9.009 -10.778  19.990  0.00  0.00    -0.263 NA
ATOM     15  C   UNL     1      -9.414  -9.905  17.365  0.00  0.00    -0.031 A 
ATOM     17  C   UNL     1      -8.124 -10.121  17.838  0.00  0.00    +0.024 A 
ATOM     18  C   UNL     1     -10.500 -10.125  18.204  0.00  0.00    +0.024 A 
ATOM     19  C   UNL     1      -7.976 -10.554  19.146  0.00  0.00    +0.111 A 
ATOM     20  C   UNL     1     -10.247 -10.557  19.496  0.00  0.00    +0.111 A 
ENDBRANCH  14  15
ENDBRANCH   6  14
ENDBRANCH   9   6
BRANCH  11  13
ATOM     13  C   UNL     1      -6.217 -10.238  11.205  0.00  0.00    +0.139 C 
BRANCH  13   7
ATOM      7  N   UNL     1      -6.991  -9.077  10.723  0.00  0.00    -0.192 NA
ATOM     23  H   UNL     1      -6.505  -8.180  10.857  0.00  0.00    +0.148 HD
BRANCH   7   1
ATOM      1  S   UNL     1      -7.914  -9.229   9.295  0.00  0.00    +0.027 S 
ATOM      4  O   UNL     1      -7.926  -7.968   8.581  0.00  0.00    -0.158 OA
ATOM      5  O   UNL     1      -9.152  -9.909   9.620  0.00  0.00    -0.158 OA
ATOM     16  C   UNL     1      -6.907 -10.369   8.374  0.00  0.00    +0.214 C 
ENDBRANCH   7   1
ENDBRANCH  13   7
ENDBRANCH  11  13
TORSDOF 7
ENDMDL
