MODEL 1
REMARK VINA RESULT:       7.2      0.000      0.000
REMARK  Name = 26745446
REMARK  10 active torsions:
REMARK  status: ('A' for Active; 'I' for Inactive)
REMARK    1  A    between atoms: S_1  and  N_6
REMARK    2  A    between atoms: S_1  and  C_15
REMARK    3  A    between atoms: O_4  and  C_16
REMARK    4  A    between atoms: O_4  and  C_31
REMARK    5  A    between atoms: N_7  and  C_17
REMARK    6  A    between atoms: N_9  and  C_24
REMARK    7  A    between atoms: N_9  and  C_34
REMARK    8  A    between atoms: N_9  and  C_35
REMARK    9  A    between atoms: C_10  and  C_16
REMARK   10  A    between atoms: C_17  and  C_22
REMARK                            x       y       z     vdW  Elec       q    Type
REMARK                         _______ _______ _______ _____ _____    ______ ____
ROOT
ATOM      6  N   UNL     1      -2.320  -0.635  24.392  0.00  0.00    -0.157 NA
ATOM      7  N   UNL     1       0.687   1.542  24.851  0.00  0.00    -0.328 N 
ATOM      8  N   UNL     1       1.460   0.466  23.051  0.00  0.00    -0.240 NA
ATOM     10  C   UNL     1      -1.571  -1.734  23.682  0.00  0.00    +0.194 C 
ATOM     11  C   UNL     1      -1.495   0.287  25.256  0.00  0.00    +0.165 C 
ATOM     12  C   UNL     1      -0.450  -1.175  22.779  0.00  0.00    +0.089 C 
ATOM     13  C   UNL     1      -0.238   0.588  24.546  0.00  0.00    +0.057 A 
ATOM     14  C   UNL     1       0.262  -0.061  23.444  0.00  0.00    +0.066 A 
ATOM     18  C   UNL     1       1.690   1.430  23.921  0.00  0.00    +0.200 A 
ENDROOT
BRANCH   6   1
ATOM      1  S   UNL     1      -3.863  -1.040  25.017  0.00  0.00    +0.062 S 
ATOM      2  O   UNL     1      -3.703  -1.596  26.342  0.00  0.00    -0.153 OA
ATOM      3  O   UNL     1      -4.612  -1.743  23.997  0.00  0.00    -0.153 OA
BRANCH   1  15
ATOM     15  C   UNL     1      -4.559   0.573  25.187  0.00  0.00    +0.113 A 
ATOM     19  C   UNL     1      -4.216   1.643  24.345  0.00  0.00    +0.010 A 
ATOM     20  C   UNL     1      -5.486   0.746  26.216  0.00  0.00    +0.029 A 
ATOM     21  C   UNL     1      -4.821   2.906  24.549  0.00  0.00    +0.005 A 
ATOM     23  C   UNL     1      -3.284   1.488  23.306  0.00  0.00    +0.010 A 
ATOM     24  C   UNL     1      -4.478   3.976  23.708  0.00  0.00    +0.037 A 
ATOM     25  C   UNL     1      -6.081   1.987  26.417  0.00  0.00    +0.003 A 
ATOM     26  C   UNL     1      -5.752   3.061  25.590  0.00  0.00    +0.010 A 
ATOM     27  C   UNL     1      -2.955   2.562  22.479  0.00  0.00    +0.002 A 
ATOM     28  C   UNL     1      -3.550   3.804  22.680  0.00  0.00    +0.024 A 
BRANCH  24   9
ATOM      9  N   UNL     1      -5.054   5.261  23.868  0.00  0.00    -0.336 N 
ATOM     34  C   UNL     1      -4.709   6.331  22.958  0.00  0.00    +0.129 C 
ATOM     35  C   UNL     1      -5.996   5.508  24.937  0.00  0.00    +0.129 C 
ENDBRANCH  24   9
ENDBRANCH   1  15
ENDBRANCH   6   1
BRANCH  10  16
ATOM      5  O   UNL     1      -0.034  -2.506  25.363  0.00  0.00    -0.249 OA
ATOM     16  C   UNL     1      -1.044  -2.696  24.699  0.00  0.00    +0.326 C 
BRANCH  16   4
ATOM      4  O   UNL     1      -1.858  -3.788  24.758  0.00  0.00    -0.467 OA
ATOM     31  C   UNL     1      -2.652  -4.026  23.592  0.00  0.00    +0.280 C 
ENDBRANCH  16   4
ENDBRANCH  10  16
BRANCH   7  17
ATOM     17  C   UNL     1       0.639   2.490  25.938  0.00  0.00    +0.158 C 
BRANCH  17  22
ATOM     22  C   UNL     1      -0.416   3.552  25.759  0.00  0.00    -0.028 A 
ATOM     29  C   UNL     1      -1.604   3.484  26.488  0.00  0.00    +0.005 A 
ATOM     30  C   UNL     1      -0.206   4.603  24.867  0.00  0.00    +0.005 A 
ATOM     32  C   UNL     1      -2.581   4.465  26.323  0.00  0.00    +0.000 A 
ATOM     33  C   UNL     1      -1.182   5.586  24.703  0.00  0.00    +0.000 A 
ATOM     36  C   UNL     1      -2.369   5.517  25.431  0.00  0.00    +0.000 A 
ENDBRANCH  17  22
ENDBRANCH   7  17
TORSDOF 7
ENDMDL
MODEL 2
REMARK VINA RESULT:       9.3      1.742      5.301
REMARK  Name = 26745446
REMARK  10 active torsions:
REMARK  status: ('A' for Active; 'I' for Inactive)
REMARK    1  A    between atoms: S_1  and  N_6
REMARK    2  A    between atoms: S_1  and  C_15
REMARK    3  A    between atoms: O_4  and  C_16
REMARK    4  A    between atoms: O_4  and  C_31
REMARK    5  A    between atoms: N_7  and  C_17
REMARK    6  A    between atoms: N_9  and  C_24
REMARK    7  A    between atoms: N_9  and  C_34
REMARK    8  A    between atoms: N_9  and  C_35
REMARK    9  A    between atoms: C_10  and  C_16
REMARK   10  A    between atoms: C_17  and  C_22
REMARK                            x       y       z     vdW  Elec       q    Type
REMARK                         _______ _______ _______ _____ _____    ______ ____
ROOT
ATOM      6  N   UNL     1      -3.952  -0.384  25.897  0.00  0.00    -0.157 NA
ATOM      7  N   UNL     1      -4.480   3.302  25.544  0.00  0.00    -0.328 N 
ATOM      8  N   UNL     1      -6.412   2.705  24.594  0.00  0.00    -0.240 NA
ATOM     10  C   UNL     1      -4.842  -0.749  24.735  0.00  0.00    +0.194 C 
ATOM     11  C   UNL     1      -3.400   1.020  25.901  0.00  0.00    +0.165 C 
ATOM     12  C   UNL     1      -6.055   0.198  24.621  0.00  0.00    +0.089 C 
ATOM     13  C   UNL     1      -4.468   1.940  25.470  0.00  0.00    +0.057 A 
ATOM     14  C   UNL     1      -5.660   1.601  24.880  0.00  0.00    +0.066 A 
ATOM     18  C   UNL     1      -5.672   3.716  25.006  0.00  0.00    +0.200 A 
ENDROOT
BRANCH   6   1
ATOM      1  S   UNL     1      -2.875  -1.598  26.447  0.00  0.00    +0.062 S 
ATOM      2  O   UNL     1      -3.549  -2.877  26.413  0.00  0.00    -0.153 OA
ATOM      3  O   UNL     1      -2.218  -1.132  27.650  0.00  0.00    -0.153 OA
BRANCH   1  15
ATOM     15  C   UNL     1      -1.691  -1.575  25.139  0.00  0.00    +0.113 A 
ATOM     19  C   UNL     1      -0.784  -0.519  24.950  0.00  0.00    +0.010 A 
ATOM     20  C   UNL     1      -1.692  -2.674  24.278  0.00  0.00    +0.029 A 
ATOM     21  C   UNL     1       0.133  -0.578  23.875  0.00  0.00    +0.005 A 
ATOM     23  C   UNL     1      -0.770   0.596  25.805  0.00  0.00    +0.010 A 
ATOM     24  C   UNL     1       1.040   0.478  23.687  0.00  0.00    +0.037 A 
ATOM     25  C   UNL     1      -0.790  -2.732  23.221  0.00  0.00    +0.003 A 
ATOM     26  C   UNL     1       0.118  -1.692  23.019  0.00  0.00    +0.010 A 
ATOM     27  C   UNL     1       0.138   1.635  25.604  0.00  0.00    +0.002 A 
ATOM     28  C   UNL     1       1.041   1.577  24.546  0.00  0.00    +0.024 A 
BRANCH  24   9
ATOM      9  N   UNL     1       1.980   0.469  22.627  0.00  0.00    -0.336 N 
ATOM     34  C   UNL     1       3.220   1.203  22.749  0.00  0.00    +0.129 C 
ATOM     35  C   UNL     1       1.709  -0.281  21.420  0.00  0.00    +0.129 C 
ENDBRANCH  24   9
ENDBRANCH   1  15
ENDBRANCH   6   1
BRANCH  10  16
ATOM      5  O   UNL     1      -3.401   0.202  23.061  0.00  0.00    -0.249 OA
ATOM     16  C   UNL     1      -4.021  -0.763  23.484  0.00  0.00    +0.326 C 
BRANCH  16   4
ATOM      4  O   UNL     1      -4.081  -2.000  22.913  0.00  0.00    -0.467 OA
ATOM     31  C   UNL     1      -5.026  -2.901  23.499  0.00  0.00    +0.280 C 
ENDBRANCH  16   4
ENDBRANCH  10  16
BRANCH   7  17
ATOM     17  C   UNL     1      -3.447   4.156  26.077  0.00  0.00    +0.158 C 
BRANCH  17  22
ATOM     22  C   UNL     1      -2.276   4.332  25.143  0.00  0.00    -0.028 A 
ATOM     29  C   UNL     1      -2.126   3.484  24.046  0.00  0.00    +0.005 A 
ATOM     30  C   UNL     1      -1.344   5.344  25.374  0.00  0.00    +0.005 A 
ATOM     32  C   UNL     1      -1.043   3.646  23.181  0.00  0.00    +0.000 A 
ATOM     33  C   UNL     1      -0.261   5.507  24.509  0.00  0.00    +0.000 A 
ATOM     36  C   UNL     1      -0.111   4.658  23.413  0.00  0.00    +0.000 A 
ENDBRANCH  17  22
ENDBRANCH   7  17
TORSDOF 7
ENDMDL
MODEL 3
REMARK VINA RESULT:      10.0      2.326      4.483
REMARK  Name = 26745446
REMARK  10 active torsions:
REMARK  status: ('A' for Active; 'I' for Inactive)
REMARK    1  A    between atoms: S_1  and  N_6
REMARK    2  A    between atoms: S_1  and  C_15
REMARK    3  A    between atoms: O_4  and  C_16
REMARK    4  A    between atoms: O_4  and  C_31
REMARK    5  A    between atoms: N_7  and  C_17
REMARK    6  A    between atoms: N_9  and  C_24
REMARK    7  A    between atoms: N_9  and  C_34
REMARK    8  A    between atoms: N_9  and  C_35
REMARK    9  A    between atoms: C_10  and  C_16
REMARK   10  A    between atoms: C_17  and  C_22
REMARK                            x       y       z     vdW  Elec       q    Type
REMARK                         _______ _______ _______ _____ _____    ______ ____
ROOT
ATOM      6  N   UNL     1      -0.366   0.525  24.776  0.00  0.00    -0.157 NA
ATOM      7  N   UNL     1      -3.284  -1.637  23.882  0.00  0.00    -0.328 N 
ATOM      8  N   UNL     1      -1.947  -3.312  24.515  0.00  0.00    -0.240 NA
ATOM     10  C   UNL     1       0.662  -0.554  24.551  0.00  0.00    +0.194 C 
ATOM     11  C   UNL     1      -1.690   0.344  24.076  0.00  0.00    +0.165 C 
ATOM     12  C   UNL     1       0.136  -1.945  24.966  0.00  0.00    +0.089 C 
ATOM     13  C   UNL     1      -2.076  -1.077  24.172  0.00  0.00    +0.057 A 
ATOM     14  C   UNL     1      -1.273  -2.124  24.553  0.00  0.00    +0.066 A 
ATOM     18  C   UNL     1      -3.157  -2.985  24.105  0.00  0.00    +0.200 A 
ENDROOT
BRANCH   6   1
ATOM      1  S   UNL     1       0.215   2.136  24.839  0.00  0.00    +0.062 S 
ATOM      2  O   UNL     1       0.442   2.608  23.491  0.00  0.00    -0.153 OA
ATOM      3  O   UNL     1       1.252   2.222  25.845  0.00  0.00    -0.153 OA
BRANCH   1  15
ATOM     15  C   UNL     1      -1.217   2.956  25.465  0.00  0.00    +0.113 A 
ATOM     19  C   UNL     1      -2.337   3.248  24.669  0.00  0.00    +0.010 A 
ATOM     20  C   UNL     1      -1.192   3.310  26.815  0.00  0.00    +0.029 A 
ATOM     21  C   UNL     1      -3.445   3.908  25.249  0.00  0.00    +0.005 A 
ATOM     23  C   UNL     1      -2.379   2.900  23.309  0.00  0.00    +0.010 A 
ATOM     24  C   UNL     1      -4.565   4.200  24.453  0.00  0.00    +0.037 A 
ATOM     25  C   UNL     1      -2.283   3.959  27.385  0.00  0.00    +0.003 A 
ATOM     26  C   UNL     1      -3.403   4.257  26.609  0.00  0.00    +0.010 A 
ATOM     27  C   UNL     1      -3.499   3.198  22.533  0.00  0.00    +0.002 A 
ATOM     28  C   UNL     1      -4.590   3.847  23.103  0.00  0.00    +0.024 A 
BRANCH  24   9
ATOM      9  N   UNL     1      -5.702   4.859  24.983  0.00  0.00    -0.336 N 
ATOM     34  C   UNL     1      -6.390   4.311  26.131  0.00  0.00    +0.129 C 
ATOM     35  C   UNL     1      -6.176   6.088  24.385  0.00  0.00    +0.129 C 
ENDBRANCH  24   9
ENDBRANCH   1  15
ENDBRANCH   6   1
BRANCH  10  16
ATOM      5  O   UNL     1       0.323  -0.405  22.175  0.00  0.00    -0.249 OA
ATOM     16  C   UNL     1       1.093  -0.520  23.119  0.00  0.00    +0.326 C 
BRANCH  16   4
ATOM      4  O   UNL     1       2.449  -0.638  23.047  0.00  0.00    -0.467 OA
ATOM     31  C   UNL     1       3.149   0.550  22.664  0.00  0.00    +0.280 C 
ENDBRANCH  16   4
ENDBRANCH  10  16
BRANCH   7  17
ATOM     17  C   UNL     1      -4.472  -0.961  23.422  0.00  0.00    +0.158 C 
BRANCH  17  22
ATOM     22  C   UNL     1      -5.065  -0.029  24.448  0.00  0.00    -0.028 A 
ATOM     29  C   UNL     1      -6.205   0.714  24.140  0.00  0.00    +0.005 A 
ATOM     30  C   UNL     1      -4.475   0.091  25.706  0.00  0.00    +0.005 A 
ATOM     32  C   UNL     1      -6.754   1.576  25.088  0.00  0.00    +0.000 A 
ATOM     33  C   UNL     1      -5.025   0.953  26.656  0.00  0.00    +0.000 A 
ATOM     36  C   UNL     1      -6.164   1.695  26.347  0.00  0.00    +0.000 A 
ENDBRANCH  17  22
ENDBRANCH   7  17
TORSDOF 7
ENDMDL
MODEL 4
REMARK VINA RESULT:      10.2      2.332      4.649
REMARK  Name = 26745446
REMARK  10 active torsions:
REMARK  status: ('A' for Active; 'I' for Inactive)
REMARK    1  A    between atoms: S_1  and  N_6
REMARK    2  A    between atoms: S_1  and  C_15
REMARK    3  A    between atoms: O_4  and  C_16
REMARK    4  A    between atoms: O_4  and  C_31
REMARK    5  A    between atoms: N_7  and  C_17
REMARK    6  A    between atoms: N_9  and  C_24
REMARK    7  A    between atoms: N_9  and  C_34
REMARK    8  A    between atoms: N_9  and  C_35
REMARK    9  A    between atoms: C_10  and  C_16
REMARK   10  A    between atoms: C_17  and  C_22
REMARK                            x       y       z     vdW  Elec       q    Type
REMARK                         _______ _______ _______ _____ _____    ______ ____
ROOT
ATOM      6  N   UNL     1      -0.327   0.301  24.761  0.00  0.00    -0.157 NA
ATOM      7  N   UNL     1      -3.107  -2.113  24.099  0.00  0.00    -0.328 N 
ATOM      8  N   UNL     1      -1.627  -3.650  24.763  0.00  0.00    -0.240 NA
ATOM     10  C   UNL     1       0.770  -0.712  24.551  0.00  0.00    +0.194 C 
ATOM     11  C   UNL     1      -1.659  -0.014  24.126  0.00  0.00    +0.165 C 
ATOM     12  C   UNL     1       0.364  -2.112  25.058  0.00  0.00    +0.089 C 
ATOM     13  C   UNL     1      -1.934  -1.451  24.310  0.00  0.00    +0.057 A 
ATOM     14  C   UNL     1      -1.042  -2.415  24.712  0.00  0.00    +0.066 A 
ATOM     18  C   UNL     1      -2.872  -3.434  24.386  0.00  0.00    +0.200 A 
ENDROOT
BRANCH   6   1
ATOM      1  S   UNL     1       0.134   1.951  24.717  0.00  0.00    +0.062 S 
ATOM      2  O   UNL     1       1.111   2.138  23.667  0.00  0.00    -0.153 OA
ATOM      3  O   UNL     1       0.394   2.401  26.068  0.00  0.00    -0.153 OA
BRANCH   1  15
ATOM     15  C   UNL     1      -1.381   2.680  24.184  0.00  0.00    +0.113 A 
ATOM     19  C   UNL     1      -2.227   3.397  25.046  0.00  0.00    +0.010 A 
ATOM     20  C   UNL     1      -1.714   2.512  22.839  0.00  0.00    +0.029 A 
ATOM     21  C   UNL     1      -3.425   3.951  24.538  0.00  0.00    +0.005 A 
ATOM     23  C   UNL     1      -1.909   3.576  26.402  0.00  0.00    +0.010 A 
ATOM     24  C   UNL     1      -4.270   4.669  25.400  0.00  0.00    +0.037 A 
ATOM     25  C   UNL     1      -2.893   3.056  22.339  0.00  0.00    +0.003 A 
ATOM     26  C   UNL     1      -3.744   3.772  23.182  0.00  0.00    +0.010 A 
ATOM     27  C   UNL     1      -2.759   4.292  27.245  0.00  0.00    +0.002 A 
ATOM     28  C   UNL     1      -3.938   4.836  26.745  0.00  0.00    +0.024 A 
BRANCH  24   9
ATOM      9  N   UNL     1      -5.482   5.244  24.943  0.00  0.00    -0.336 N 
ATOM     34  C   UNL     1      -6.711   5.024  25.671  0.00  0.00    +0.129 C 
ATOM     35  C   UNL     1      -5.494   6.062  23.750  0.00  0.00    +0.129 C 
ENDBRANCH  24   9
ENDBRANCH   1  15
ENDBRANCH   6   1
BRANCH  10  16
ATOM      5  O   UNL     1       0.337  -0.641  22.186  0.00  0.00    -0.249 OA
ATOM     16  C   UNL     1       1.144  -0.726  23.102  0.00  0.00    +0.326 C 
BRANCH  16   4
ATOM      4  O   UNL     1       2.496  -0.846  22.981  0.00  0.00    -0.467 OA
ATOM     31  C   UNL     1       3.158   0.260  22.359  0.00  0.00    +0.280 C 
ENDBRANCH  16   4
ENDBRANCH  10  16
BRANCH   7  17
ATOM     17  C   UNL     1      -4.358  -1.550  23.653  0.00  0.00    +0.158 C 
BRANCH  17  22
ATOM     22  C   UNL     1      -4.818  -0.381  24.486  0.00  0.00    -0.028 A 
ATOM     29  C   UNL     1      -5.840   0.448  24.020  0.00  0.00    +0.005 A 
ATOM     30  C   UNL     1      -4.225  -0.126  25.722  0.00  0.00    +0.005 A 
ATOM     32  C   UNL     1      -6.266   1.530  24.789  0.00  0.00    +0.000 A 
ATOM     33  C   UNL     1      -4.651   0.956  26.492  0.00  0.00    +0.000 A 
ATOM     36  C   UNL     1      -5.671   1.784  26.026  0.00  0.00    +0.000 A 
ENDBRANCH  17  22
ENDBRANCH   7  17
TORSDOF 7
ENDMDL
MODEL 5
REMARK VINA RESULT:      10.4      2.667      4.940
REMARK  Name = 26745446
REMARK  10 active torsions:
REMARK  status: ('A' for Active; 'I' for Inactive)
REMARK    1  A    between atoms: S_1  and  N_6
REMARK    2  A    between atoms: S_1  and  C_15
REMARK    3  A    between atoms: O_4  and  C_16
REMARK    4  A    between atoms: O_4  and  C_31
REMARK    5  A    between atoms: N_7  and  C_17
REMARK    6  A    between atoms: N_9  and  C_24
REMARK    7  A    between atoms: N_9  and  C_34
REMARK    8  A    between atoms: N_9  and  C_35
REMARK    9  A    between atoms: C_10  and  C_16
REMARK   10  A    between atoms: C_17  and  C_22
REMARK                            x       y       z     vdW  Elec       q    Type
REMARK                         _______ _______ _______ _____ _____    ______ ____
ROOT
ATOM      6  N   UNL     1       0.682   0.947  24.512  0.00  0.00    -0.157 NA
ATOM      7  N   UNL     1      -0.983  -2.094  25.917  0.00  0.00    -0.328 N 
ATOM      8  N   UNL     1       0.922  -3.119  25.355  0.00  0.00    -0.240 NA
ATOM     10  C   UNL     1       1.592   0.176  23.589  0.00  0.00    +0.194 C 
ATOM     11  C   UNL     1      -0.568   0.236  24.967  0.00  0.00    +0.165 C 
ATOM     12  C   UNL     1       2.050  -1.158  24.217  0.00  0.00    +0.089 C 
ATOM     13  C   UNL     1      -0.222  -1.165  25.270  0.00  0.00    +0.057 A 
ATOM     14  C   UNL     1       0.937  -1.819  24.932  0.00  0.00    +0.066 A 
ATOM     18  C   UNL     1      -0.250  -3.253  25.945  0.00  0.00    +0.200 A 
ENDROOT
BRANCH   6   1
ATOM      1  S   UNL     1       0.497   2.618  24.185  0.00  0.00    +0.062 S 
ATOM      2  O   UNL     1       1.119   2.921  22.914  0.00  0.00    -0.153 OA
ATOM      3  O   UNL     1       0.830   3.370  25.377  0.00  0.00    -0.153 OA
BRANCH   1  15
ATOM     15  C   UNL     1      -1.251   2.697  23.963  0.00  0.00    +0.113 A 
ATOM     19  C   UNL     1      -2.126   3.151  24.963  0.00  0.00    +0.010 A 
ATOM     20  C   UNL     1      -1.742   2.280  22.725  0.00  0.00    +0.029 A 
ATOM     21  C   UNL     1      -3.517   3.183  24.705  0.00  0.00    +0.005 A 
ATOM     23  C   UNL     1      -1.651   3.573  26.216  0.00  0.00    +0.010 A 
ATOM     24  C   UNL     1      -4.392   3.637  25.705  0.00  0.00    +0.037 A 
ATOM     25  C   UNL     1      -3.109   2.311  22.470  0.00  0.00    +0.003 A 
ATOM     26  C   UNL     1      -3.992   2.760  23.452  0.00  0.00    +0.010 A 
ATOM     27  C   UNL     1      -2.534   4.022  27.198  0.00  0.00    +0.002 A 
ATOM     28  C   UNL     1      -3.902   4.053  26.944  0.00  0.00    +0.024 A 
BRANCH  24   9
ATOM      9  N   UNL     1      -5.792   3.690  25.498  0.00  0.00    -0.336 N 
ATOM     34  C   UNL     1      -6.570   2.472  25.477  0.00  0.00    +0.129 C 
ATOM     35  C   UNL     1      -6.454   4.964  25.315  0.00  0.00    +0.129 C 
ENDBRANCH  24   9
ENDBRANCH   1  15
ENDBRANCH   6   1
BRANCH  10  16
ATOM      5  O   UNL     1      -0.324  -0.058  22.154  0.00  0.00    -0.249 OA
ATOM     16  C   UNL     1       0.892  -0.030  22.282  0.00  0.00    +0.326 C 
BRANCH  16   4
ATOM      4  O   UNL     1       1.815  -0.178  21.290  0.00  0.00    -0.467 OA
ATOM     31  C   UNL     1       3.149   0.216  21.628  0.00  0.00    +0.280 C 
ENDBRANCH  16   4
ENDBRANCH  10  16
BRANCH   7  17
ATOM     17  C   UNL     1      -2.305  -1.911  26.465  0.00  0.00    +0.158 C 
BRANCH  17  22
ATOM     22  C   UNL     1      -3.358  -1.660  25.417  0.00  0.00    -0.028 A 
ATOM     29  C   UNL     1      -3.655  -2.646  24.476  0.00  0.00    +0.005 A 
ATOM     30  C   UNL     1      -4.037  -0.442  25.386  0.00  0.00    +0.005 A 
ATOM     32  C   UNL     1      -4.629  -2.414  23.505  0.00  0.00    +0.000 A 
ATOM     33  C   UNL     1      -5.012  -0.209  24.416  0.00  0.00    +0.000 A 
ATOM     36  C   UNL     1      -5.308  -1.196  23.475  0.00  0.00    +0.000 A 
ENDBRANCH  17  22
ENDBRANCH   7  17
TORSDOF 7
ENDMDL
MODEL 6
REMARK VINA RESULT:      10.5      2.973      7.303
REMARK  Name = 26745446
REMARK  10 active torsions:
REMARK  status: ('A' for Active; 'I' for Inactive)
REMARK    1  A    between atoms: S_1  and  N_6
REMARK    2  A    between atoms: S_1  and  C_15
REMARK    3  A    between atoms: O_4  and  C_16
REMARK    4  A    between atoms: O_4  and  C_31
REMARK    5  A    between atoms: N_7  and  C_17
REMARK    6  A    between atoms: N_9  and  C_24
REMARK    7  A    between atoms: N_9  and  C_34
REMARK    8  A    between atoms: N_9  and  C_35
REMARK    9  A    between atoms: C_10  and  C_16
REMARK   10  A    between atoms: C_17  and  C_22
REMARK                            x       y       z     vdW  Elec       q    Type
REMARK                         _______ _______ _______ _____ _____    ______ ____
ROOT
ATOM      6  N   UNL     1      -1.985   3.070  24.059  0.00  0.00    -0.157 NA
ATOM      7  N   UNL     1      -5.141   1.442  25.234  0.00  0.00    -0.328 N 
ATOM      8  N   UNL     1      -5.158   3.086  26.748  0.00  0.00    -0.240 NA
ATOM     10  C   UNL     1      -1.663   3.695  25.393  0.00  0.00    +0.194 C 
ATOM     11  C   UNL     1      -2.907   1.876  24.085  0.00  0.00    +0.165 C 
ATOM     12  C   UNL     1      -2.938   4.142  26.141  0.00  0.00    +0.089 C 
ATOM     13  C   UNL     1      -3.984   2.140  25.057  0.00  0.00    +0.057 A 
ATOM     14  C   UNL     1      -4.016   3.139  25.999  0.00  0.00    +0.066 A 
ATOM     18  C   UNL     1      -5.815   2.051  26.263  0.00  0.00    +0.200 A 
ENDROOT
BRANCH   6   1
ATOM      1  S   UNL     1      -0.704   2.983  22.925  0.00  0.00    +0.062 S 
ATOM      2  O   UNL     1       0.256   4.025  23.218  0.00  0.00    -0.153 OA
ATOM      3  O   UNL     1      -1.262   2.835  21.597  0.00  0.00    -0.153 OA
BRANCH   1  15
ATOM     15  C   UNL     1       0.013   1.439  23.388  0.00  0.00    +0.113 A 
ATOM     19  C   UNL     1       1.387   1.171  23.270  0.00  0.00    +0.010 A 
ATOM     20  C   UNL     1      -0.860   0.472  23.889  0.00  0.00    +0.029 A 
ATOM     21  C   UNL     1       1.882  -0.094  23.664  0.00  0.00    +0.005 A 
ATOM     23  C   UNL     1       2.280   2.132  22.767  0.00  0.00    +0.010 A 
ATOM     24  C   UNL     1       3.255  -0.362  23.546  0.00  0.00    +0.037 A 
ATOM     25  C   UNL     1      -0.373  -0.772  24.277  0.00  0.00    +0.003 A 
ATOM     26  C   UNL     1       0.988  -1.055  24.166  0.00  0.00    +0.010 A 
ATOM     27  C   UNL     1       3.641   1.849  22.657  0.00  0.00    +0.002 A 
ATOM     28  C   UNL     1       4.128   0.605  23.045  0.00  0.00    +0.024 A 
BRANCH  24   9
ATOM      9  N   UNL     1       3.803  -1.611  23.927  0.00  0.00    -0.336 N 
ATOM     34  C   UNL     1       2.942  -2.663  24.421  0.00  0.00    +0.129 C 
ATOM     35  C   UNL     1       5.227  -1.846  23.817  0.00  0.00    +0.129 C 
ENDBRANCH  24   9
ENDBRANCH   1  15
ENDBRANCH   6   1
BRANCH  10  16
ATOM      5  O   UNL     1      -1.284   1.673  26.639  0.00  0.00    -0.249 OA
ATOM     16  C   UNL     1      -0.851   2.728  26.196  0.00  0.00    +0.326 C 
BRANCH  16   4
ATOM      4  O   UNL     1       0.415   3.210  26.346  0.00  0.00    -0.467 OA
ATOM     31  C   UNL     1       1.126   2.727  27.490  0.00  0.00    +0.280 C 
ENDBRANCH  16   4
ENDBRANCH  10  16
BRANCH   7  17
ATOM     17  C   UNL     1      -5.583   0.283  24.498  0.00  0.00    +0.158 C 
BRANCH  17  22
ATOM     22  C   UNL     1      -4.662  -0.902  24.638  0.00  0.00    -0.028 A 
ATOM     29  C   UNL     1      -4.567  -1.837  23.607  0.00  0.00    +0.005 A 
ATOM     30  C   UNL     1      -3.903  -1.064  25.797  0.00  0.00    +0.005 A 
ATOM     32  C   UNL     1      -3.716  -2.934  23.736  0.00  0.00    +0.000 A 
ATOM     33  C   UNL     1      -3.050  -2.161  25.926  0.00  0.00    +0.000 A 
ATOM     36  C   UNL     1      -2.957  -3.096  24.896  0.00  0.00    +0.000 A 
ENDBRANCH  17  22
ENDBRANCH   7  17
TORSDOF 7
ENDMDL
MODEL 7
REMARK VINA RESULT:      10.7      1.711      5.363
REMARK  Name = 26745446
REMARK  10 active torsions:
REMARK  status: ('A' for Active; 'I' for Inactive)
REMARK    1  A    between atoms: S_1  and  N_6
REMARK    2  A    between atoms: S_1  and  C_15
REMARK    3  A    between atoms: O_4  and  C_16
REMARK    4  A    between atoms: O_4  and  C_31
REMARK    5  A    between atoms: N_7  and  C_17
REMARK    6  A    between atoms: N_9  and  C_24
REMARK    7  A    between atoms: N_9  and  C_34
REMARK    8  A    between atoms: N_9  and  C_35
REMARK    9  A    between atoms: C_10  and  C_16
REMARK   10  A    between atoms: C_17  and  C_22
REMARK                            x       y       z     vdW  Elec       q    Type
REMARK                         _______ _______ _______ _____ _____    ______ ____
ROOT
ATOM      6  N   UNL     1      -3.632  -0.080  25.755  0.00  0.00    -0.157 NA
ATOM      7  N   UNL     1      -4.868   3.446  25.580  0.00  0.00    -0.328 N 
ATOM      8  N   UNL     1      -6.780   2.503  24.909  0.00  0.00    -0.240 NA
ATOM     10  C   UNL     1      -4.603  -0.604  24.728  0.00  0.00    +0.194 C 
ATOM     11  C   UNL     1      -3.350   1.402  25.715  0.00  0.00    +0.165 C 
ATOM     12  C   UNL     1      -5.972   0.104  24.818  0.00  0.00    +0.089 C 
ATOM     13  C   UNL     1      -4.620   2.110  25.470  0.00  0.00    +0.057 A 
ATOM     14  C   UNL     1      -5.805   1.556  25.053  0.00  0.00    +0.066 A 
ATOM     18  C   UNL     1      -6.182   3.633  25.234  0.00  0.00    +0.200 A 
ENDROOT
BRANCH   6   1
ATOM      1  S   UNL     1      -2.281  -1.073  26.109  0.00  0.00    +0.062 S 
ATOM      2  O   UNL     1      -2.257  -2.183  25.182  0.00  0.00    -0.153 OA
ATOM      3  O   UNL     1      -2.223  -1.294  27.539  0.00  0.00    -0.153 OA
BRANCH   1  15
ATOM     15  C   UNL     1      -0.970   0.024  25.675  0.00  0.00    +0.113 A 
ATOM     19  C   UNL     1      -0.148  -0.177  24.554  0.00  0.00    +0.010 A 
ATOM     20  C   UNL     1      -0.777   1.126  26.510  0.00  0.00    +0.029 A 
ATOM     21  C   UNL     1       0.883   0.751  24.276  0.00  0.00    +0.005 A 
ATOM     23  C   UNL     1      -0.326  -1.280  23.703  0.00  0.00    +0.010 A 
ATOM     24  C   UNL     1       1.705   0.551  23.155  0.00  0.00    +0.037 A 
ATOM     25  C   UNL     1       0.237   2.038  26.237  0.00  0.00    +0.003 A 
ATOM     26  C   UNL     1       1.062   1.855  25.127  0.00  0.00    +0.010 A 
ATOM     27  C   UNL     1       0.499  -1.464  22.594  0.00  0.00    +0.002 A 
ATOM     28  C   UNL     1       1.513  -0.551  22.321  0.00  0.00    +0.024 A 
BRANCH  24   9
ATOM      9  N   UNL     1       2.750   1.450  22.831  0.00  0.00    -0.336 N 
ATOM     34  C   UNL     1       4.083   0.952  22.572  0.00  0.00    +0.129 C 
ATOM     35  C   UNL     1       2.490   2.870  22.748  0.00  0.00    +0.129 C 
ENDBRANCH  24   9
ENDBRANCH   1  15
ENDBRANCH   6   1
BRANCH  10  16
ATOM      5  O   UNL     1      -3.446   0.548  22.963  0.00  0.00    -0.249 OA
ATOM     16  C   UNL     1      -3.990  -0.469  23.370  0.00  0.00    +0.326 C 
BRANCH  16   4
ATOM      4  O   UNL     1      -4.138  -1.638  22.685  0.00  0.00    -0.467 OA
ATOM     31  C   UNL     1      -4.481  -2.777  23.480  0.00  0.00    +0.280 C 
ENDBRANCH  16   4
ENDBRANCH  10  16
BRANCH   7  17
ATOM     17  C   UNL     1      -3.940   4.477  25.977  0.00  0.00    +0.158 C 
BRANCH  17  22
ATOM     22  C   UNL     1      -2.676   4.492  25.154  0.00  0.00    -0.028 A 
ATOM     29  C   UNL     1      -2.497   3.558  24.133  0.00  0.00    +0.005 A 
ATOM     30  C   UNL     1      -1.687   5.440  25.411  0.00  0.00    +0.005 A 
ATOM     32  C   UNL     1      -1.329   3.571  23.372  0.00  0.00    +0.000 A 
ATOM     33  C   UNL     1      -0.518   5.455  24.650  0.00  0.00    +0.000 A 
ATOM     36  C   UNL     1      -0.339   4.521  23.630  0.00  0.00    +0.000 A 
ENDBRANCH  17  22
ENDBRANCH   7  17
TORSDOF 7
ENDMDL
MODEL 8
REMARK VINA RESULT:      11.0      1.331      2.137
REMARK  Name = 26745446
REMARK  10 active torsions:
REMARK  status: ('A' for Active; 'I' for Inactive)
REMARK    1  A    between atoms: S_1  and  N_6
REMARK    2  A    between atoms: S_1  and  C_15
REMARK    3  A    between atoms: O_4  and  C_16
REMARK    4  A    between atoms: O_4  and  C_31
REMARK    5  A    between atoms: N_7  and  C_17
REMARK    6  A    between atoms: N_9  and  C_24
REMARK    7  A    between atoms: N_9  and  C_34
REMARK    8  A    between atoms: N_9  and  C_35
REMARK    9  A    between atoms: C_10  and  C_16
REMARK   10  A    between atoms: C_17  and  C_22
REMARK                            x       y       z     vdW  Elec       q    Type
REMARK                         _______ _______ _______ _____ _____    ______ ____
ROOT
ATOM      6  N   UNL     1      -2.240  -0.484  24.412  0.00  0.00    -0.157 NA
ATOM      7  N   UNL     1       0.454   2.027  25.063  0.00  0.00    -0.328 N 
ATOM      8  N   UNL     1       1.559   0.920  23.467  0.00  0.00    -0.240 NA
ATOM     10  C   UNL     1      -1.301  -1.542  23.891  0.00  0.00    +0.194 C 
ATOM     11  C   UNL     1      -1.630   0.576  25.294  0.00  0.00    +0.165 C 
ATOM     12  C   UNL     1      -0.130  -0.929  23.093  0.00  0.00    +0.089 C 
ATOM     13  C   UNL     1      -0.325   0.961  24.724  0.00  0.00    +0.057 A 
ATOM     14  C   UNL     1       0.376   0.296  23.749  0.00  0.00    +0.066 A 
ATOM     18  C   UNL     1       1.577   1.960  24.277  0.00  0.00    +0.200 A 
ENDROOT
BRANCH   6   1
ATOM      1  S   UNL     1      -3.806  -1.008  24.871  0.00  0.00    +0.062 S 
ATOM      2  O   UNL     1      -3.719  -1.691  26.143  0.00  0.00    -0.153 OA
ATOM      3  O   UNL     1      -4.445  -1.631  23.731  0.00  0.00    -0.153 OA
BRANCH   1  15
ATOM     15  C   UNL     1      -4.584   0.551  25.146  0.00  0.00    +0.113 A 
ATOM     19  C   UNL     1      -4.244   1.710  24.428  0.00  0.00    +0.010 A 
ATOM     20  C   UNL     1      -5.575   0.588  26.128  0.00  0.00    +0.029 A 
ATOM     21  C   UNL     1      -4.917   2.921  24.710  0.00  0.00    +0.005 A 
ATOM     23  C   UNL     1      -3.249   1.691  23.437  0.00  0.00    +0.010 A 
ATOM     24  C   UNL     1      -4.577   4.080  23.992  0.00  0.00    +0.037 A 
ATOM     25  C   UNL     1      -6.237   1.780  26.405  0.00  0.00    +0.003 A 
ATOM     26  C   UNL     1      -5.912   2.940  25.702  0.00  0.00    +0.010 A 
ATOM     27  C   UNL     1      -2.924   2.851  22.733  0.00  0.00    +0.002 A 
ATOM     28  C   UNL     1      -3.586   4.043  23.011  0.00  0.00    +0.024 A 
BRANCH  24   9
ATOM      9  N   UNL     1      -5.220   5.319  24.234  0.00  0.00    -0.336 N 
ATOM     34  C   UNL     1      -6.146   5.454  25.336  0.00  0.00    +0.129 C 
ATOM     35  C   UNL     1      -4.948   6.458  23.385  0.00  0.00    +0.129 C 
ENDBRANCH  24   9
ENDBRANCH   1  15
ENDBRANCH   6   1
BRANCH  10  16
ATOM      5  O   UNL     1       0.063  -2.028  25.811  0.00  0.00    -0.249 OA
ATOM     16  C   UNL     1      -0.822  -2.372  25.041  0.00  0.00    +0.326 C 
BRANCH  16   4
ATOM      4  O   UNL     1      -1.521  -3.542  25.081  0.00  0.00    -0.467 OA
ATOM     31  C   UNL     1      -2.273  -3.849  23.903  0.00  0.00    +0.280 C 
ENDBRANCH  16   4
ENDBRANCH  10  16
BRANCH   7  17
ATOM     17  C   UNL     1       0.171   3.035  26.055  0.00  0.00    +0.158 C 
BRANCH  17  22
ATOM     22  C   UNL     1       0.880   2.800  27.365  0.00  0.00    -0.028 A 
ATOM     29  C   UNL     1       0.182   2.269  28.450  0.00  0.00    +0.005 A 
ATOM     30  C   UNL     1       2.233   3.113  27.494  0.00  0.00    +0.005 A 
ATOM     32  C   UNL     1       0.837   2.052  29.662  0.00  0.00    +0.000 A 
ATOM     33  C   UNL     1       2.889   2.895  28.706  0.00  0.00    +0.000 A 
ATOM     36  C   UNL     1       2.190   2.364  29.790  0.00  0.00    +0.000 A 
ENDBRANCH  17  22
ENDBRANCH   7  17
TORSDOF 7
ENDMDL
MODEL 9
REMARK VINA RESULT:      11.2      3.097      7.735
REMARK  Name = 26745446
REMARK  10 active torsions:
REMARK  status: ('A' for Active; 'I' for Inactive)
REMARK    1  A    between atoms: S_1  and  N_6
REMARK    2  A    between atoms: S_1  and  C_15
REMARK    3  A    between atoms: O_4  and  C_16
REMARK    4  A    between atoms: O_4  and  C_31
REMARK    5  A    between atoms: N_7  and  C_17
REMARK    6  A    between atoms: N_9  and  C_24
REMARK    7  A    between atoms: N_9  and  C_34
REMARK    8  A    between atoms: N_9  and  C_35
REMARK    9  A    between atoms: C_10  and  C_16
REMARK   10  A    between atoms: C_17  and  C_22
REMARK                            x       y       z     vdW  Elec       q    Type
REMARK                         _______ _______ _______ _____ _____    ______ ____
ROOT
ATOM      6  N   UNL     1      -0.630   0.989  23.762  0.00  0.00    -0.157 NA
ATOM      7  N   UNL     1      -4.076   2.239  24.506  0.00  0.00    -0.328 N 
ATOM      8  N   UNL     1      -3.082   4.238  24.615  0.00  0.00    -0.240 NA
ATOM     10  C   UNL     1       0.069   2.124  24.466  0.00  0.00    +0.194 C 
ATOM     11  C   UNL     1      -2.055   0.719  24.179  0.00  0.00    +0.165 C 
ATOM     12  C   UNL     1      -0.693   3.457  24.304  0.00  0.00    +0.089 C 
ATOM     13  C   UNL     1      -2.740   2.013  24.357  0.00  0.00    +0.057 A 
ATOM     14  C   UNL     1      -2.153   3.252  24.432  0.00  0.00    +0.066 A 
ATOM     18  C   UNL     1      -4.232   3.594  24.657  0.00  0.00    +0.200 A 
ENDROOT
BRANCH   6   1
ATOM      1  S   UNL     1       0.312  -0.403  23.430  0.00  0.00    +0.062 S 
ATOM      2  O   UNL     1      -0.064  -0.929  22.137  0.00  0.00    -0.153 OA
ATOM      3  O   UNL     1       0.328  -1.250  24.605  0.00  0.00    -0.153 OA
BRANCH   1  15
ATOM     15  C   UNL     1       1.907   0.335  23.271  0.00  0.00    +0.113 A 
ATOM     19  C   UNL     1       3.099  -0.368  23.509  0.00  0.00    +0.010 A 
ATOM     20  C   UNL     1       1.936   1.677  22.890  0.00  0.00    +0.029 A 
ATOM     21  C   UNL     1       4.338   0.299  23.359  0.00  0.00    +0.005 A 
ATOM     23  C   UNL     1       3.089  -1.718  23.894  0.00  0.00    +0.010 A 
ATOM     24  C   UNL     1       5.530  -0.404  23.596  0.00  0.00    +0.037 A 
ATOM     25  C   UNL     1       3.154   2.333  22.742  0.00  0.00    +0.003 A 
ATOM     26  C   UNL     1       4.348   1.650  22.974  0.00  0.00    +0.010 A 
ATOM     27  C   UNL     1       4.283  -2.402  24.126  0.00  0.00    +0.002 A 
ATOM     28  C   UNL     1       5.501  -1.746  23.978  0.00  0.00    +0.024 A 
BRANCH  24   9
ATOM      9  N   UNL     1       6.797   0.216  23.460  0.00  0.00    -0.336 N 
ATOM     34  C   UNL     1       7.854  -0.445  22.728  0.00  0.00    +0.129 C 
ATOM     35  C   UNL     1       7.038   1.516  24.045  0.00  0.00    +0.129 C 
ENDBRANCH  24   9
ENDBRANCH   1  15
ENDBRANCH   6   1
BRANCH  10  16
ATOM      5  O   UNL     1      -0.253   0.782  26.435  0.00  0.00    -0.249 OA
ATOM     16  C   UNL     1       0.259   1.757  25.904  0.00  0.00    +0.326 C 
BRANCH  16   4
ATOM      4  O   UNL     1       1.077   2.669  26.502  0.00  0.00    -0.467 OA
ATOM     31  C   UNL     1       1.108   2.622  27.933  0.00  0.00    +0.280 C 
ENDBRANCH  16   4
ENDBRANCH  10  16
BRANCH   7  17
ATOM     17  C   UNL     1      -5.132   1.257  24.514  0.00  0.00    +0.158 C 
BRANCH  17  22
ATOM     22  C   UNL     1      -4.632  -0.158  24.657  0.00  0.00    -0.028 A 
ATOM     29  C   UNL     1      -4.762  -1.055  23.596  0.00  0.00    +0.005 A 
ATOM     30  C   UNL     1      -4.039  -0.572  25.850  0.00  0.00    +0.005 A 
ATOM     32  C   UNL     1      -4.300  -2.364  23.728  0.00  0.00    +0.000 A 
ATOM     33  C   UNL     1      -3.575  -1.882  25.982  0.00  0.00    +0.000 A 
ATOM     36  C   UNL     1      -3.706  -2.777  24.921  0.00  0.00    +0.000 A 
ENDBRANCH  17  22
ENDBRANCH   7  17
TORSDOF 7
ENDMDL
