MODEL 1
REMARK VINA RESULT:       2.2      0.000      0.000
REMARK  Name = 26743294
REMARK  12 active torsions:
REMARK  status: ('A' for Active; 'I' for Inactive)
REMARK    1  A    between atoms: N_4  and  C_17
REMARK    2  A    between atoms: C_6  and  C_12
REMARK    3  A    between atoms: C_7  and  C_11
REMARK    4  A    between atoms: C_11  and  C_13
REMARK    5  A    between atoms: C_12  and  C_14
REMARK    6  A    between atoms: C_16  and  C_19
REMARK    7  A    between atoms: C_17  and  C_21
REMARK    8  A    between atoms: C_17  and  C_22
REMARK    9  A    between atoms: C_18  and  C_20
REMARK   10  A    between atoms: C_18  and  C_27
REMARK   11  A    between atoms: C_18  and  C_28
REMARK   12  A    between atoms: C_18  and  C_29
REMARK                            x       y       z     vdW  Elec       q    Type
REMARK                         _______ _______ _______ _____ _____    ______ ____
ROOT
ATOM     11  C   UNL     1      -3.922   3.373  23.872  0.00  0.00    +0.064 C 
ENDROOT
BRANCH  11   7
ATOM      3  N   UNL     1      -6.534   2.778  26.603  0.00  0.00    -0.316 NA
ATOM      6  C   UNL     1      -4.317   1.301  25.333  0.00  0.00    +0.004 C 
ATOM      7  C   UNL     1      -4.499   2.829  25.180  0.00  0.00    +0.012 C 
ATOM      8  C   UNL     1      -5.000   0.842  26.633  0.00  0.00    +0.019 C 
ATOM      9  C   UNL     1      -5.972   3.245  25.335  0.00  0.00    +0.085 C 
ATOM     10  C   UNL     1      -6.446   1.325  26.734  0.00  0.00    +0.081 C 
ATOM     30  H   UNL     1      -7.510   3.064  26.665  0.00  0.00    +0.122 HD
BRANCH   6  12
ATOM     12  C   UNL     1      -4.823   0.489  24.135  0.00  0.00    +0.099 C 
BRANCH  12  14
ATOM      2  O   UNL     1      -4.728  -1.878  23.645  0.00  0.00    -0.276 OA
ATOM      4  N   UNL     1      -2.831  -0.802  24.447  0.00  0.00    -0.313 N 
ATOM     14  C   UNL     1      -4.155  -0.866  24.037  0.00  0.00    +0.213 C 
ATOM     31  H   UNL     1      -2.438   0.101  24.699  0.00  0.00    +0.149 HD
BRANCH   4  17
ATOM     17  C   UNL     1      -1.953  -1.949  24.461  0.00  0.00    +0.067 C 
ATOM     21  C   UNL     1      -2.719  -3.199  24.875  0.00  0.00    +0.027 C 
ATOM     22  C   UNL     1      -0.764  -1.701  25.382  0.00  0.00    +0.027 C 
ENDBRANCH   4  17
ENDBRANCH  12  14
ENDBRANCH   6  12
ENDBRANCH  11   7
BRANCH  11  13
ATOM      1  O   UNL     1      -1.504   1.260  22.245  0.00  0.00    -0.354 OA
ATOM      5  N   UNL     1      -2.768   1.827  22.350  0.00  0.00    -0.083 NA
ATOM     13  C   UNL     1      -2.713   2.594  23.443  0.00  0.00    +0.085 A 
ATOM     15  C   UNL     1      -1.452   2.551  24.061  0.00  0.00    +0.076 A 
ATOM     16  C   UNL     1      -0.730   1.699  23.269  0.00  0.00    +0.167 A 
BRANCH  16  19
ATOM     19  C   UNL     1       0.613   1.195  23.293  0.00  0.00    +0.020 A 
ATOM     20  C   UNL     1       3.226   0.216  23.339  0.00  0.00    -0.042 A 
ATOM     23  C   UNL     1       0.855  -0.159  23.059  0.00  0.00    +0.012 A 
ATOM     24  C   UNL     1       1.678   2.059  23.550  0.00  0.00    +0.012 A 
ATOM     25  C   UNL     1       2.161  -0.649  23.082  0.00  0.00    +0.005 A 
ATOM     26  C   UNL     1       2.984   1.570  23.573  0.00  0.00    +0.005 A 
BRANCH  20  18
ATOM     18  C   UNL     1       4.622  -0.307  23.364  0.00  0.00    -0.013 C 
ATOM     27  C   UNL     1       5.291  -0.200  21.959  0.00  0.00    +0.015 C 
ATOM     28  C   UNL     1       4.655  -1.809  23.787  0.00  0.00    +0.015 C 
ATOM     29  C   UNL     1       5.596   0.423  24.347  0.00  0.00    +0.015 C 
ENDBRANCH  20  18
ENDBRANCH  16  19
ENDBRANCH  11  13
TORSDOF 7
ENDMDL
MODEL 2
REMARK VINA RESULT:       3.5     14.488     16.109
REMARK  Name = 26743294
REMARK  12 active torsions:
REMARK  status: ('A' for Active; 'I' for Inactive)
REMARK    1  A    between atoms: N_4  and  C_17
REMARK    2  A    between atoms: C_6  and  C_12
REMARK    3  A    between atoms: C_7  and  C_11
REMARK    4  A    between atoms: C_11  and  C_13
REMARK    5  A    between atoms: C_12  and  C_14
REMARK    6  A    between atoms: C_16  and  C_19
REMARK    7  A    between atoms: C_17  and  C_21
REMARK    8  A    between atoms: C_17  and  C_22
REMARK    9  A    between atoms: C_18  and  C_20
REMARK   10  A    between atoms: C_18  and  C_27
REMARK   11  A    between atoms: C_18  and  C_28
REMARK   12  A    between atoms: C_18  and  C_29
REMARK                            x       y       z     vdW  Elec       q    Type
REMARK                         _______ _______ _______ _____ _____    ______ ____
ROOT
ATOM     11  C   UNL     1      -4.701 -10.557  11.347  0.00  0.00    +0.064 C 
ENDROOT
BRANCH  11   7
ATOM      3  N   UNL     1      -7.354 -10.159   8.619  0.00  0.00    -0.316 NA
ATOM      6  C   UNL     1      -7.070  -9.581  11.499  0.00  0.00    +0.004 C 
ATOM      7  C   UNL     1      -5.863  -9.911  10.589  0.00  0.00    +0.012 C 
ATOM      8  C   UNL     1      -8.210  -9.016  10.635  0.00  0.00    +0.019 C 
ATOM      9  C   UNL     1      -6.275 -10.780   9.390  0.00  0.00    +0.085 C 
ATOM     10  C   UNL     1      -8.536  -9.912   9.442  0.00  0.00    +0.081 C 
ATOM     30  H   UNL     1      -7.605 -10.767   7.841  0.00  0.00    +0.122 HD
BRANCH   6  12
ATOM     12  C   UNL     1      -7.560 -10.766  12.340  0.00  0.00    +0.099 C 
BRANCH  12  14
ATOM      2  O   UNL     1      -9.696 -10.265  13.359  0.00  0.00    -0.276 OA
ATOM      4  N   UNL     1      -7.752 -10.023  14.608  0.00  0.00    -0.313 N 
ATOM     14  C   UNL     1      -8.474 -10.331  13.465  0.00  0.00    +0.213 C 
ATOM     31  H   UNL     1      -6.745 -10.169  14.607  0.00  0.00    +0.149 HD
BRANCH   4  17
ATOM     17  C   UNL     1      -8.368  -9.576  15.836  0.00  0.00    +0.067 C 
ATOM     21  C   UNL     1      -7.345  -9.549  16.964  0.00  0.00    +0.027 C 
ATOM     22  C   UNL     1      -9.556 -10.462  16.190  0.00  0.00    +0.027 C 
ENDBRANCH   4  17
ENDBRANCH  12  14
ENDBRANCH   6  12
ENDBRANCH  11   7
BRANCH  11  13
ATOM      1  O   UNL     1      -1.924  -8.697  10.008  0.00  0.00    -0.354 OA
ATOM      5  N   UNL     1      -3.183  -9.276   9.900  0.00  0.00    -0.083 NA
ATOM     13  C   UNL     1      -3.413  -9.830  11.094  0.00  0.00    +0.085 A 
ATOM     15  C   UNL     1      -2.345  -9.634  11.987  0.00  0.00    +0.076 A 
ATOM     16  C   UNL     1      -1.436  -8.917  11.255  0.00  0.00    +0.167 A 
BRANCH  16  19
ATOM     19  C   UNL     1      -0.135  -8.374  11.518  0.00  0.00    +0.020 A 
ATOM     20  C   UNL     1       2.397  -7.318  12.029  0.00  0.00    -0.042 A 
ATOM     23  C   UNL     1       0.031  -7.410  12.513  0.00  0.00    +0.012 A 
ATOM     24  C   UNL     1       0.966  -8.809  10.778  0.00  0.00    +0.012 A 
ATOM     25  C   UNL     1       1.297  -6.882  12.769  0.00  0.00    +0.005 A 
ATOM     26  C   UNL     1       2.231  -8.281  11.034  0.00  0.00    +0.005 A 
BRANCH  20  18
ATOM     18  C   UNL     1       3.750  -6.754  12.302  0.00  0.00    -0.013 C 
ATOM     27  C   UNL     1       4.264  -7.175  13.714  0.00  0.00    +0.015 C 
ATOM     28  C   UNL     1       3.732  -5.194  12.254  0.00  0.00    +0.015 C 
ATOM     29  C   UNL     1       4.873  -7.188  11.303  0.00  0.00    +0.015 C 
ENDBRANCH  20  18
ENDBRANCH  16  19
ENDBRANCH  11  13
TORSDOF 7
ENDMDL
MODEL 3
REMARK VINA RESULT:       3.6      1.783      3.586
REMARK  Name = 26743294
REMARK  12 active torsions:
REMARK  status: ('A' for Active; 'I' for Inactive)
REMARK    1  A    between atoms: N_4  and  C_17
REMARK    2  A    between atoms: C_6  and  C_12
REMARK    3  A    between atoms: C_7  and  C_11
REMARK    4  A    between atoms: C_11  and  C_13
REMARK    5  A    between atoms: C_12  and  C_14
REMARK    6  A    between atoms: C_16  and  C_19
REMARK    7  A    between atoms: C_17  and  C_21
REMARK    8  A    between atoms: C_17  and  C_22
REMARK    9  A    between atoms: C_18  and  C_20
REMARK   10  A    between atoms: C_18  and  C_27
REMARK   11  A    between atoms: C_18  and  C_28
REMARK   12  A    between atoms: C_18  and  C_29
REMARK                            x       y       z     vdW  Elec       q    Type
REMARK                         _______ _______ _______ _____ _____    ______ ____
ROOT
ATOM     11  C   UNL     1      -3.953  -0.093  23.924  0.00  0.00    +0.064 C 
ENDROOT
BRANCH  11   7
ATOM      3  N   UNL     1      -6.606   2.017  25.697  0.00  0.00    -0.316 NA
ATOM      6  C   UNL     1      -3.825   2.331  24.758  0.00  0.00    +0.004 C 
ATOM      7  C   UNL     1      -4.736   1.166  24.303  0.00  0.00    +0.012 C 
ATOM      8  C   UNL     1      -4.706   3.515  25.194  0.00  0.00    +0.019 C 
ATOM      9  C   UNL     1      -5.809   0.838  25.354  0.00  0.00    +0.085 C 
ATOM     10  C   UNL     1      -5.774   3.104  26.207  0.00  0.00    +0.081 C 
ATOM     30  H   UNL     1      -7.298   1.763  26.400  0.00  0.00    +0.122 HD
BRANCH   6  12
ATOM     12  C   UNL     1      -2.834   1.952  25.865  0.00  0.00    +0.099 C 
BRANCH  12  14
ATOM      2  O   UNL     1      -0.548   2.512  26.423  0.00  0.00    -0.276 OA
ATOM      4  N   UNL     1      -1.765   3.931  25.043  0.00  0.00    -0.313 N 
ATOM     14  C   UNL     1      -1.582   2.801  25.828  0.00  0.00    +0.213 C 
ATOM     31  H   UNL     1      -2.645   4.046  24.546  0.00  0.00    +0.149 HD
BRANCH   4  17
ATOM     17  C   UNL     1      -0.735   4.921  24.831  0.00  0.00    +0.067 C 
ATOM     21  C   UNL     1      -1.343   6.317  24.787  0.00  0.00    +0.027 C 
ATOM     22  C   UNL     1       0.044   4.618  23.557  0.00  0.00    +0.027 C 
ENDBRANCH   4  17
ENDBRANCH  12  14
ENDBRANCH   6  12
ENDBRANCH  11   7
BRANCH  11  13
ATOM      1  O   UNL     1      -0.845   1.287  22.739  0.00  0.00    -0.354 OA
ATOM      5  N   UNL     1      -2.232   1.279  22.830  0.00  0.00    -0.083 NA
ATOM     13  C   UNL     1      -2.522   0.230  23.604  0.00  0.00    +0.085 A 
ATOM     15  C   UNL     1      -1.370  -0.455  24.028  0.00  0.00    +0.076 A 
ATOM     16  C   UNL     1      -0.344   0.250  23.456  0.00  0.00    +0.167 A 
BRANCH  16  19
ATOM     19  C   UNL     1       1.085   0.129  23.457  0.00  0.00    +0.020 A 
ATOM     20  C   UNL     1       3.866  -0.108  23.456  0.00  0.00    -0.042 A 
ATOM     23  C   UNL     1       1.682  -1.086  23.796  0.00  0.00    +0.012 A 
ATOM     24  C   UNL     1       1.879   1.225  23.117  0.00  0.00    +0.012 A 
ATOM     25  C   UNL     1       3.073  -1.204  23.796  0.00  0.00    +0.005 A 
ATOM     26  C   UNL     1       3.268   1.107  23.117  0.00  0.00    +0.005 A 
BRANCH  20  18
ATOM     18  C   UNL     1       5.351  -0.234  23.456  0.00  0.00    -0.013 C 
ATOM     27  C   UNL     1       5.812  -1.497  24.249  0.00  0.00    +0.015 C 
ATOM     28  C   UNL     1       6.024   1.008  24.119  0.00  0.00    +0.015 C 
ATOM     29  C   UNL     1       6.015  -0.363  22.045  0.00  0.00    +0.015 C 
ENDBRANCH  20  18
ENDBRANCH  16  19
ENDBRANCH  11  13
TORSDOF 7
ENDMDL
MODEL 4
REMARK VINA RESULT:       3.8      2.046      3.920
REMARK  Name = 26743294
REMARK  12 active torsions:
REMARK  status: ('A' for Active; 'I' for Inactive)
REMARK    1  A    between atoms: N_4  and  C_17
REMARK    2  A    between atoms: C_6  and  C_12
REMARK    3  A    between atoms: C_7  and  C_11
REMARK    4  A    between atoms: C_11  and  C_13
REMARK    5  A    between atoms: C_12  and  C_14
REMARK    6  A    between atoms: C_16  and  C_19
REMARK    7  A    between atoms: C_17  and  C_21
REMARK    8  A    between atoms: C_17  and  C_22
REMARK    9  A    between atoms: C_18  and  C_20
REMARK   10  A    between atoms: C_18  and  C_27
REMARK   11  A    between atoms: C_18  and  C_28
REMARK   12  A    between atoms: C_18  and  C_29
REMARK                            x       y       z     vdW  Elec       q    Type
REMARK                         _______ _______ _______ _____ _____    ______ ____
ROOT
ATOM     11  C   UNL     1      -5.147  -0.014  24.968  0.00  0.00    +0.064 C 
ENDROOT
BRANCH  11   7
ATOM      3  N   UNL     1      -6.880   3.292  25.805  0.00  0.00    -0.316 NA
ATOM      6  C   UNL     1      -4.326   2.394  24.631  0.00  0.00    +0.004 C 
ATOM      7  C   UNL     1      -5.543   1.454  24.804  0.00  0.00    +0.012 C 
ATOM      8  C   UNL     1      -4.821   3.848  24.559  0.00  0.00    +0.019 C 
ATOM      9  C   UNL     1      -6.447   1.903  25.964  0.00  0.00    +0.085 C 
ATOM     10  C   UNL     1      -5.745   4.208  25.721  0.00  0.00    +0.081 C 
ATOM     30  H   UNL     1      -7.469   3.554  26.595  0.00  0.00    +0.122 HD
BRANCH   6  12
ATOM     12  C   UNL     1      -3.256   2.236  25.719  0.00  0.00    +0.099 C 
BRANCH  12  14
ATOM      2  O   UNL     1      -2.552   4.229  26.895  0.00  0.00    -0.276 OA
ATOM      4  N   UNL     1      -1.587   3.713  24.845  0.00  0.00    -0.313 N 
ATOM     14  C   UNL     1      -2.446   3.499  25.913  0.00  0.00    +0.213 C 
ATOM     31  H   UNL     1      -1.536   3.015  24.108  0.00  0.00    +0.149 HD
BRANCH   4  17
ATOM     17  C   UNL     1      -0.696   4.847  24.763  0.00  0.00    +0.067 C 
ATOM     21  C   UNL     1      -1.478   6.147  24.893  0.00  0.00    +0.027 C 
ATOM     22  C   UNL     1       0.100   4.809  23.464  0.00  0.00    +0.027 C 
ENDBRANCH   4  17
ENDBRANCH  12  14
ENDBRANCH   6  12
ENDBRANCH  11   7
BRANCH  11  13
ATOM      1  O   UNL     1      -1.700  -0.949  25.421  0.00  0.00    -0.354 OA
ATOM      5  N   UNL     1      -3.049  -1.028  25.747  0.00  0.00    -0.083 NA
ATOM     13  C   UNL     1      -3.658  -0.189  24.905  0.00  0.00    +0.085 A 
ATOM     15  C   UNL     1      -2.753   0.442  24.034  0.00  0.00    +0.076 A 
ATOM     16  C   UNL     1      -1.537  -0.071  24.400  0.00  0.00    +0.167 A 
BRANCH  16  19
ATOM     19  C   UNL     1      -0.188   0.117  23.952  0.00  0.00    +0.020 A 
ATOM     20  C   UNL     1       2.438   0.481  23.080  0.00  0.00    -0.042 A 
ATOM     23  C   UNL     1       0.504   1.281  24.287  0.00  0.00    +0.012 A 
ATOM     24  C   UNL     1       0.434  -0.866  23.180  0.00  0.00    +0.012 A 
ATOM     25  C   UNL     1       1.817   1.464  23.851  0.00  0.00    +0.005 A 
ATOM     26  C   UNL     1       1.746  -0.683  22.744  0.00  0.00    +0.005 A 
BRANCH  20  18
ATOM     18  C   UNL     1       3.841   0.676  22.614  0.00  0.00    -0.013 C 
ATOM     27  C   UNL     1       4.244   2.183  22.647  0.00  0.00    +0.015 C 
ATOM     28  C   UNL     1       4.024   0.172  21.148  0.00  0.00    +0.015 C 
ATOM     29  C   UNL     1       4.936  -0.068  23.449  0.00  0.00    +0.015 C 
ENDBRANCH  20  18
ENDBRANCH  16  19
ENDBRANCH  11  13
TORSDOF 7
ENDMDL
MODEL 5
REMARK VINA RESULT:       5.6      1.368      2.127
REMARK  Name = 26743294
REMARK  12 active torsions:
REMARK  status: ('A' for Active; 'I' for Inactive)
REMARK    1  A    between atoms: N_4  and  C_17
REMARK    2  A    between atoms: C_6  and  C_12
REMARK    3  A    between atoms: C_7  and  C_11
REMARK    4  A    between atoms: C_11  and  C_13
REMARK    5  A    between atoms: C_12  and  C_14
REMARK    6  A    between atoms: C_16  and  C_19
REMARK    7  A    between atoms: C_17  and  C_21
REMARK    8  A    between atoms: C_17  and  C_22
REMARK    9  A    between atoms: C_18  and  C_20
REMARK   10  A    between atoms: C_18  and  C_27
REMARK   11  A    between atoms: C_18  and  C_28
REMARK   12  A    between atoms: C_18  and  C_29
REMARK                            x       y       z     vdW  Elec       q    Type
REMARK                         _______ _______ _______ _____ _____    ______ ____
ROOT
ATOM     11  C   UNL     1      -3.160   1.912  22.762  0.00  0.00    +0.064 C 
ENDROOT
BRANCH  11   7
ATOM      3  N   UNL     1      -4.619   4.820  24.773  0.00  0.00    -0.316 NA
ATOM      6  C   UNL     1      -3.727   2.049  25.261  0.00  0.00    +0.004 C 
ATOM      7  C   UNL     1      -3.377   2.826  23.969  0.00  0.00    +0.012 C 
ATOM      8  C   UNL     1      -4.007   3.056  26.390  0.00  0.00    +0.019 C 
ATOM      9  C   UNL     1      -4.429   3.902  23.650  0.00  0.00    +0.085 C 
ATOM     10  C   UNL     1      -5.030   4.116  25.986  0.00  0.00    +0.081 C 
ATOM     30  H   UNL     1      -5.327   5.511  24.528  0.00  0.00    +0.122 HD
BRANCH   6  12
ATOM     12  C   UNL     1      -4.895   1.069  25.103  0.00  0.00    +0.099 C 
BRANCH  12  14
ATOM      2  O   UNL     1      -4.891  -1.093  24.017  0.00  0.00    -0.276 OA
ATOM      4  N   UNL     1      -3.412  -0.691  25.763  0.00  0.00    -0.313 N 
ATOM     14  C   UNL     1      -4.424  -0.352  24.877  0.00  0.00    +0.213 C 
ATOM     31  H   UNL     1      -3.058   0.019  26.399  0.00  0.00    +0.149 HD
BRANCH   4  17
ATOM     17  C   UNL     1      -2.776  -1.988  25.776  0.00  0.00    +0.067 C 
ATOM     21  C   UNL     1      -1.277  -1.847  25.544  0.00  0.00    +0.027 C 
ATOM     22  C   UNL     1      -3.411  -2.905  24.738  0.00  0.00    +0.027 C 
ENDBRANCH   4  17
ENDBRANCH  12  14
ENDBRANCH   6  12
ENDBRANCH  11   7
BRANCH  11  13
ATOM      1  O   UNL     1      -0.530  -0.538  22.966  0.00  0.00    -0.354 OA
ATOM      5  N   UNL     1      -1.866  -0.176  22.845  0.00  0.00    -0.083 NA
ATOM     13  C   UNL     1      -1.866   1.160  22.871  0.00  0.00    +0.085 A 
ATOM     15  C   UNL     1      -0.571   1.690  23.006  0.00  0.00    +0.076 A 
ATOM     16  C   UNL     1       0.231   0.581  23.061  0.00  0.00    +0.167 A 
BRANCH  16  19
ATOM     19  C   UNL     1       1.642   0.363  23.193  0.00  0.00    +0.020 A 
ATOM     20  C   UNL     1       4.389  -0.060  23.449  0.00  0.00    -0.042 A 
ATOM     23  C   UNL     1       2.535   1.407  22.948  0.00  0.00    +0.012 A 
ATOM     24  C   UNL     1       2.123  -0.892  23.566  0.00  0.00    +0.012 A 
ATOM     25  C   UNL     1       3.908   1.196  23.076  0.00  0.00    +0.005 A 
ATOM     26  C   UNL     1       3.496  -1.104  23.694  0.00  0.00    +0.005 A 
BRANCH  20  18
ATOM     18  C   UNL     1       5.856  -0.286  23.587  0.00  0.00    -0.013 C 
ATOM     27  C   UNL     1       6.576   0.986  24.133  0.00  0.00    +0.015 C 
ATOM     28  C   UNL     1       6.504  -0.639  22.212  0.00  0.00    +0.015 C 
ATOM     29  C   UNL     1       6.270  -1.447  24.552  0.00  0.00    +0.015 C 
ENDBRANCH  20  18
ENDBRANCH  16  19
ENDBRANCH  11  13
TORSDOF 7
ENDMDL
