MODEL 1
REMARK VINA RESULT:      -1.8      0.000      0.000
REMARK  Name = 45784357
REMARK  5 active torsions:
REMARK  status: ('A' for Active; 'I' for Inactive)
REMARK    1  A    between atoms: O_3  and  C_23
REMARK    2  A    between atoms: O_3  and  C_24
REMARK    3  A    between atoms: N_5  and  C_7
REMARK    4  A    between atoms: C_8  and  C_14
REMARK    5  A    between atoms: C_19  and  C_23
REMARK                            x       y       z     vdW  Elec       q    Type
REMARK                         _______ _______ _______ _____ _____    ______ ____
ROOT
ATOM      2  O   UNL     1      17.341  -3.993  26.640  0.00  0.00    -0.439 OA
ATOM      6  N   UNL     1      17.287  -6.166  25.998  0.00  0.00    -0.213 NA
ATOM     14  C   UNL     1      17.340  -5.308  26.994  0.00  0.00    +0.201 A 
ATOM     17  C   UNL     1      17.280  -4.028  25.276  0.00  0.00    +0.169 A 
ATOM     18  C   UNL     1      17.246  -5.359  24.887  0.00  0.00    +0.110 A 
ATOM     19  C   UNL     1      17.254  -2.947  24.403  0.00  0.00    +0.103 A 
ATOM     20  C   UNL     1      17.182  -5.664  23.520  0.00  0.00    +0.031 A 
ATOM     21  C   UNL     1      17.189  -3.269  23.043  0.00  0.00    +0.019 A 
ATOM     22  C   UNL     1      17.154  -4.599  22.607  0.00  0.00    +0.003 A 
ENDROOT
BRANCH  14   8
ATOM      5  N   UNL     1      16.491  -6.948  30.158  0.00  0.00    -0.298 NA
ATOM      8  C   UNL     1      17.405  -5.593  28.476  0.00  0.00    +0.090 C 
ATOM      9  C   UNL     1      17.076  -7.052  28.820  0.00  0.00    +0.097 C 
ATOM     10  C   UNL     1      15.601  -5.789  30.092  0.00  0.00    +0.085 C 
ATOM     11  C   UNL     1      16.436  -4.763  29.337  0.00  0.00    +0.029 C 
BRANCH   5   7
ATOM      1  O   UNL     1      13.960 -10.288  29.893  0.00  0.00    -0.380 OA
ATOM      7  C   UNL     1      15.790  -8.166  30.556  0.00  0.00    +0.061 C 
ATOM     12  C   UNL     1      14.275  -7.955  30.495  0.00  0.00    +0.047 C 
ATOM     13  C   UNL     1      16.190  -9.348  29.668  0.00  0.00    +0.047 C 
ATOM     15  C   UNL     1      13.545  -9.259  30.792  0.00  0.00    +0.161 C 
ATOM     16  C   UNL     1      15.354 -10.576  30.010  0.00  0.00    +0.161 C 
ENDBRANCH   5   7
ENDBRANCH  14   8
BRANCH  19  23
ATOM      4  O   UNL     1      17.404  -0.584  24.126  0.00  0.00    -0.245 OA
ATOM     23  C   UNL     1      17.290  -1.574  24.865  0.00  0.00    +0.343 C 
BRANCH  23   3
ATOM      3  O   UNL     1      17.184  -1.494  26.228  0.00  0.00    -0.464 OA
ATOM     24  C   UNL     1      15.895  -1.176  26.764  0.00  0.00    +0.280 C 
ENDBRANCH  23   3
ENDBRANCH  19  23
TORSDOF 4
ENDMDL
MODEL 2
REMARK VINA RESULT:      -1.6     17.432     19.287
REMARK  Name = 45784357
REMARK  5 active torsions:
REMARK  status: ('A' for Active; 'I' for Inactive)
REMARK    1  A    between atoms: O_3  and  C_23
REMARK    2  A    between atoms: O_3  and  C_24
REMARK    3  A    between atoms: N_5  and  C_7
REMARK    4  A    between atoms: C_8  and  C_14
REMARK    5  A    between atoms: C_19  and  C_23
REMARK                            x       y       z     vdW  Elec       q    Type
REMARK                         _______ _______ _______ _____ _____    ______ ____
ROOT
ATOM      2  O   UNL     1      -2.127   0.857  24.293  0.00  0.00    -0.439 OA
ATOM      6  N   UNL     1      -0.341   2.247  24.415  0.00  0.00    -0.213 NA
ATOM     14  C   UNL     1      -0.795   1.057  24.089  0.00  0.00    +0.201 A 
ATOM     17  C   UNL     1      -2.555   2.050  24.801  0.00  0.00    +0.169 A 
ATOM     18  C   UNL     1      -1.461   2.898  24.874  0.00  0.00    +0.110 A 
ATOM     19  C   UNL     1      -3.847   2.390  25.186  0.00  0.00    +0.103 A 
ATOM     20  C   UNL     1      -1.641   4.198  25.369  0.00  0.00    +0.031 A 
ATOM     21  C   UNL     1      -4.010   3.690  25.677  0.00  0.00    +0.019 A 
ATOM     22  C   UNL     1      -2.931   4.577  25.768  0.00  0.00    +0.003 A 
ENDROOT
BRANCH  14   8
ATOM      5  N   UNL     1       2.105  -0.794  22.827  0.00  0.00    -0.298 NA
ATOM      8  C   UNL     1      -0.031  -0.116  23.521  0.00  0.00    +0.090 C 
ATOM      9  C   UNL     1       1.440  -0.140  23.957  0.00  0.00    +0.097 C 
ATOM     10  C   UNL     1       1.502  -0.196  21.637  0.00  0.00    +0.085 C 
ATOM     11  C   UNL     1       0.018  -0.173  21.984  0.00  0.00    +0.029 C 
BRANCH   5   7
ATOM      1  O   UNL     1       5.916   0.145  24.318  0.00  0.00    -0.380 OA
ATOM      7  C   UNL     1       3.556  -0.625  22.861  0.00  0.00    +0.061 C 
ATOM     12  C   UNL     1       3.917   0.839  23.123  0.00  0.00    +0.047 C 
ATOM     13  C   UNL     1       4.190  -1.521  23.929  0.00  0.00    +0.047 C 
ATOM     15  C   UNL     1       5.426   0.993  23.279  0.00  0.00    +0.161 C 
ATOM     16  C   UNL     1       5.683  -1.237  24.041  0.00  0.00    +0.161 C 
ENDBRANCH   5   7
ENDBRANCH  14   8
BRANCH  19  23
ATOM      4  O   UNL     1      -6.106   1.773  24.740  0.00  0.00    -0.245 OA
ATOM     23  C   UNL     1      -4.956   1.462  25.087  0.00  0.00    +0.343 C 
BRANCH  23   3
ATOM      3  O   UNL     1      -4.584   0.188  25.425  0.00  0.00    -0.464 OA
ATOM     24  C   UNL     1      -4.610  -0.796  24.385  0.00  0.00    +0.280 C 
ENDBRANCH  23   3
ENDBRANCH  19  23
TORSDOF 4
ENDMDL
MODEL 3
REMARK VINA RESULT:      -1.0     17.212     19.029
REMARK  Name = 45784357
REMARK  5 active torsions:
REMARK  status: ('A' for Active; 'I' for Inactive)
REMARK    1  A    between atoms: O_3  and  C_23
REMARK    2  A    between atoms: O_3  and  C_24
REMARK    3  A    between atoms: N_5  and  C_7
REMARK    4  A    between atoms: C_8  and  C_14
REMARK    5  A    between atoms: C_19  and  C_23
REMARK                            x       y       z     vdW  Elec       q    Type
REMARK                         _______ _______ _______ _____ _____    ______ ____
ROOT
ATOM      2  O   UNL     1      -1.364   1.435  24.343  0.00  0.00    -0.439 OA
ATOM      6  N   UNL     1      -2.968  -0.155  24.149  0.00  0.00    -0.213 NA
ATOM     14  C   UNL     1      -1.701   0.162  23.994  0.00  0.00    +0.201 A 
ATOM     17  C   UNL     1      -2.546   1.975  24.763  0.00  0.00    +0.169 A 
ATOM     18  C   UNL     1      -3.525   1.000  24.644  0.00  0.00    +0.110 A 
ATOM     19  C   UNL     1      -2.767   3.265  25.232  0.00  0.00    +0.103 A 
ATOM     20  C   UNL     1      -4.841   1.310  25.016  0.00  0.00    +0.031 A 
ATOM     21  C   UNL     1      -4.085   3.558  25.599  0.00  0.00    +0.019 A 
ATOM     22  C   UNL     1      -5.103   2.603  25.494  0.00  0.00    +0.003 A 
ENDROOT
BRANCH  14   8
ATOM      5  N   UNL     1       1.760  -0.793  23.264  0.00  0.00    -0.298 NA
ATOM      8  C   UNL     1      -0.574  -0.701  23.477  0.00  0.00    +0.090 C 
ATOM      9  C   UNL     1       0.729  -0.520  24.268  0.00  0.00    +0.097 C 
ATOM     10  C   UNL     1       1.306  -0.101  22.058  0.00  0.00    +0.085 C 
ATOM     11  C   UNL     1      -0.179  -0.441  22.013  0.00  0.00    +0.029 C 
BRANCH   5   7
ATOM      1  O   UNL     1       5.906  -0.140  23.159  0.00  0.00    -0.380 OA
ATOM      7  C   UNL     1       3.085  -0.352  23.693  0.00  0.00    +0.061 C 
ATOM     12  C   UNL     1       4.034  -1.548  23.807  0.00  0.00    +0.047 C 
ATOM     13  C   UNL     1       3.662   0.684  22.724  0.00  0.00    +0.047 C 
ATOM     15  C   UNL     1       5.446  -1.075  24.134  0.00  0.00    +0.161 C 
ATOM     16  C   UNL     1       5.094   1.033  23.111  0.00  0.00    +0.161 C 
ENDBRANCH   5   7
ENDBRANCH  14   8
BRANCH  19  23
ATOM      4  O   UNL     1      -1.882   5.473  25.394  0.00  0.00    -0.245 OA
ATOM     23  C   UNL     1      -1.705   4.245  25.336  0.00  0.00    +0.343 C 
BRANCH  23   3
ATOM      3  O   UNL     1      -0.469   3.656  25.363  0.00  0.00    -0.464 OA
ATOM     24  C   UNL     1      -0.125   2.918  26.541  0.00  0.00    +0.280 C 
ENDBRANCH  23   3
ENDBRANCH  19  23
TORSDOF 4
ENDMDL
MODEL 4
REMARK VINA RESULT:      -1.0     18.404     20.130
REMARK  Name = 45784357
REMARK  5 active torsions:
REMARK  status: ('A' for Active; 'I' for Inactive)
REMARK    1  A    between atoms: O_3  and  C_23
REMARK    2  A    between atoms: O_3  and  C_24
REMARK    3  A    between atoms: N_5  and  C_7
REMARK    4  A    between atoms: C_8  and  C_14
REMARK    5  A    between atoms: C_19  and  C_23
REMARK                            x       y       z     vdW  Elec       q    Type
REMARK                         _______ _______ _______ _____ _____    ______ ____
ROOT
ATOM      2  O   UNL     1      -2.491   1.375  25.336  0.00  0.00    -0.439 OA
ATOM      6  N   UNL     1      -3.937  -0.327  24.949  0.00  0.00    -0.213 NA
ATOM     14  C   UNL     1      -2.685   0.048  25.099  0.00  0.00    +0.201 A 
ATOM     17  C   UNL     1      -3.756   1.889  25.336  0.00  0.00    +0.169 A 
ATOM     18  C   UNL     1      -4.638   0.846  25.099  0.00  0.00    +0.110 A 
ATOM     19  C   UNL     1      -4.130   3.213  25.534  0.00  0.00    +0.103 A 
ATOM     20  C   UNL     1      -6.013   1.117  25.051  0.00  0.00    +0.031 A 
ATOM     21  C   UNL     1      -5.505   3.467  25.483  0.00  0.00    +0.019 A 
ATOM     22  C   UNL     1      -6.430   2.443  25.246  0.00  0.00    +0.003 A 
ENDROOT
BRANCH  14   8
ATOM      5  N   UNL     1       0.637  -0.999  23.963  0.00  0.00    -0.298 NA
ATOM      8  C   UNL     1      -1.437  -0.802  25.039  0.00  0.00    +0.090 C 
ATOM      9  C   UNL     1      -0.187  -0.002  24.650  0.00  0.00    +0.097 C 
ATOM     10  C   UNL     1      -0.294  -1.734  23.108  0.00  0.00    +0.085 C 
ATOM     11  C   UNL     1      -1.490  -1.958  24.024  0.00  0.00    +0.029 C 
BRANCH   5   7
ATOM      1  O   UNL     1       4.220   1.050  23.194  0.00  0.00    -0.380 OA
ATOM      7  C   UNL     1       1.729  -0.392  23.205  0.00  0.00    +0.061 C 
ATOM     12  C   UNL     1       1.810   1.109  23.494  0.00  0.00    +0.047 C 
ATOM     13  C   UNL     1       3.066  -1.062  23.533  0.00  0.00    +0.047 C 
ATOM     15  C   UNL     1       3.022   1.718  22.800  0.00  0.00    +0.161 C 
ATOM     16  C   UNL     1       4.210  -0.333  22.836  0.00  0.00    +0.161 C 
ENDBRANCH   5   7
ENDBRANCH  14   8
BRANCH  19  23
ATOM      4  O   UNL     1      -3.079   4.914  26.832  0.00  0.00    -0.245 OA
ATOM     23  C   UNL     1      -3.164   4.265  25.777  0.00  0.00    +0.343 C 
BRANCH  23   3
ATOM      3  O   UNL     1      -2.345   4.463  24.698  0.00  0.00    -0.464 OA
ATOM     24  C   UNL     1      -0.941   4.572  24.956  0.00  0.00    +0.280 C 
ENDBRANCH  23   3
ENDBRANCH  19  23
TORSDOF 4
ENDMDL
MODEL 5
REMARK VINA RESULT:      -0.9     18.748     20.686
REMARK  Name = 45784357
REMARK  5 active torsions:
REMARK  status: ('A' for Active; 'I' for Inactive)
REMARK    1  A    between atoms: O_3  and  C_23
REMARK    2  A    between atoms: O_3  and  C_24
REMARK    3  A    between atoms: N_5  and  C_7
REMARK    4  A    between atoms: C_8  and  C_14
REMARK    5  A    between atoms: C_19  and  C_23
REMARK                            x       y       z     vdW  Elec       q    Type
REMARK                         _______ _______ _______ _____ _____    ______ ____
ROOT
ATOM      2  O   UNL     1      -2.718   1.773  24.899  0.00  0.00    -0.439 OA
ATOM      6  N   UNL     1      -3.227   3.943  25.309  0.00  0.00    -0.213 NA
ATOM     14  C   UNL     1      -2.290   3.058  25.051  0.00  0.00    +0.201 A 
ATOM     17  C   UNL     1      -4.068   1.862  25.080  0.00  0.00    +0.169 A 
ATOM     18  C   UNL     1      -4.376   3.191  25.330  0.00  0.00    +0.110 A 
ATOM     19  C   UNL     1      -4.997   0.830  25.029  0.00  0.00    +0.103 A 
ATOM     20  C   UNL     1      -5.714   3.547  25.552  0.00  0.00    +0.031 A 
ATOM     21  C   UNL     1      -6.328   1.202  25.252  0.00  0.00    +0.019 A 
ATOM     22  C   UNL     1      -6.682   2.532  25.509  0.00  0.00    +0.003 A 
ENDROOT
BRANCH  14   8
ATOM      5  N   UNL     1       1.201   2.196  24.344  0.00  0.00    -0.298 NA
ATOM      8  C   UNL     1      -0.802   3.279  24.905  0.00  0.00    +0.090 C 
ATOM      9  C   UNL     1      -0.164   2.374  23.843  0.00  0.00    +0.097 C 
ATOM     10  C   UNL     1       1.049   1.972  25.782  0.00  0.00    +0.085 C 
ATOM     11  C   UNL     1       0.019   3.021  26.181  0.00  0.00    +0.029 C 
BRANCH   5   7
ATOM      1  O   UNL     1       2.825  -0.120  21.242  0.00  0.00    -0.380 OA
ATOM      7  C   UNL     1       1.899   1.098  23.680  0.00  0.00    +0.061 C 
ATOM     12  C   UNL     1       0.957   0.371  22.717  0.00  0.00    +0.047 C 
ATOM     13  C   UNL     1       3.132   1.605  22.926  0.00  0.00    +0.047 C 
ATOM     15  C   UNL     1       1.717  -0.694  21.935  0.00  0.00    +0.161 C 
ATOM     16  C   UNL     1       3.771   0.471  22.133  0.00  0.00    +0.161 C 
ENDBRANCH   5   7
ENDBRANCH  14   8
BRANCH  19  23
ATOM      4  O   UNL     1      -4.869  -1.152  23.711  0.00  0.00    -0.245 OA
ATOM     23  C   UNL     1      -4.619  -0.543  24.763  0.00  0.00    +0.343 C 
BRANCH  23   3
ATOM      3  O   UNL     1      -3.946  -1.099  25.819  0.00  0.00    -0.464 OA
ATOM     24  C   UNL     1      -3.204  -2.296  25.561  0.00  0.00    +0.280 C 
ENDBRANCH  23   3
ENDBRANCH  19  23
TORSDOF 4
ENDMDL
MODEL 6
REMARK VINA RESULT:      -0.1      2.001      2.565
REMARK  Name = 45784357
REMARK  5 active torsions:
REMARK  status: ('A' for Active; 'I' for Inactive)
REMARK    1  A    between atoms: O_3  and  C_23
REMARK    2  A    between atoms: O_3  and  C_24
REMARK    3  A    between atoms: N_5  and  C_7
REMARK    4  A    between atoms: C_8  and  C_14
REMARK    5  A    between atoms: C_19  and  C_23
REMARK                            x       y       z     vdW  Elec       q    Type
REMARK                         _______ _______ _______ _____ _____    ______ ____
ROOT
ATOM      2  O   UNL     1      16.768  -4.618  26.646  0.00  0.00    -0.439 OA
ATOM      6  N   UNL     1      16.541  -6.196  25.035  0.00  0.00    -0.213 NA
ATOM     14  C   UNL     1      16.537  -5.921  26.320  0.00  0.00    +0.201 A 
ATOM     17  C   UNL     1      16.935  -4.010  25.435  0.00  0.00    +0.169 A 
ATOM     18  C   UNL     1      16.795  -4.978  24.451  0.00  0.00    +0.110 A 
ATOM     19  C   UNL     1      17.198  -2.667  25.192  0.00  0.00    +0.103 A 
ATOM     20  C   UNL     1      16.923  -4.602  23.107  0.00  0.00    +0.031 A 
ATOM     21  C   UNL     1      17.323  -2.309  23.846  0.00  0.00    +0.019 A 
ATOM     22  C   UNL     1      17.190  -3.254  22.822  0.00  0.00    +0.003 A 
ENDROOT
BRANCH  14   8
ATOM      5  N   UNL     1      15.321  -7.005  29.602  0.00  0.00    -0.298 NA
ATOM      8  C   UNL     1      16.311  -6.862  27.481  0.00  0.00    +0.090 C 
ATOM      9  C   UNL     1      15.007  -6.577  28.238  0.00  0.00    +0.097 C 
ATOM     10  C   UNL     1      16.669  -6.498  29.857  0.00  0.00    +0.085 C 
ATOM     11  C   UNL     1      17.404  -6.827  28.564  0.00  0.00    +0.029 C 
BRANCH   5   7
ATOM      1  O   UNL     1      12.003  -4.951  31.149  0.00  0.00    -0.380 OA
ATOM      7  C   UNL     1      14.349  -6.518  30.578  0.00  0.00    +0.061 C 
ATOM     12  C   UNL     1      14.378  -4.989  30.641  0.00  0.00    +0.047 C 
ATOM     13  C   UNL     1      12.936  -7.001  30.236  0.00  0.00    +0.047 C 
ATOM     15  C   UNL     1      13.282  -4.475  31.567  0.00  0.00    +0.161 C 
ATOM     16  C   UNL     1      11.919  -6.376  31.185  0.00  0.00    +0.161 C 
ENDBRANCH   5   7
ENDBRANCH  14   8
BRANCH  19  23
ATOM      4  O   UNL     1      17.384  -0.469  26.095  0.00  0.00    -0.245 OA
ATOM     23  C   UNL     1      17.334  -1.698  26.260  0.00  0.00    +0.343 C 
BRANCH  23   3
ATOM      3  O   UNL     1      17.403  -2.300  27.488  0.00  0.00    -0.464 OA
ATOM     24  C   UNL     1      16.191  -2.376  28.246  0.00  0.00    +0.280 C 
ENDBRANCH  23   3
ENDBRANCH  19  23
TORSDOF 4
ENDMDL
MODEL 7
REMARK VINA RESULT:       0.2     17.076     18.775
REMARK  Name = 45784357
REMARK  5 active torsions:
REMARK  status: ('A' for Active; 'I' for Inactive)
REMARK    1  A    between atoms: O_3  and  C_23
REMARK    2  A    between atoms: O_3  and  C_24
REMARK    3  A    between atoms: N_5  and  C_7
REMARK    4  A    between atoms: C_8  and  C_14
REMARK    5  A    between atoms: C_19  and  C_23
REMARK                            x       y       z     vdW  Elec       q    Type
REMARK                         _______ _______ _______ _____ _____    ______ ____
ROOT
ATOM      2  O   UNL     1      -1.702   0.960  23.842  0.00  0.00    -0.439 OA
ATOM      6  N   UNL     1      -0.834  -1.127  24.009  0.00  0.00    -0.213 NA
ATOM     14  C   UNL     1      -0.682   0.101  23.564  0.00  0.00    +0.201 A 
ATOM     17  C   UNL     1      -2.590   0.188  24.537  0.00  0.00    +0.169 A 
ATOM     18  C   UNL     1      -2.055  -1.088  24.637  0.00  0.00    +0.110 A 
ATOM     19  C   UNL     1      -3.816   0.577  25.063  0.00  0.00    +0.103 A 
ATOM     20  C   UNL     1      -2.783  -2.077  25.313  0.00  0.00    +0.031 A 
ATOM     21  C   UNL     1      -4.530  -0.422  25.735  0.00  0.00    +0.019 A 
ATOM     22  C   UNL     1      -4.027  -1.723  25.858  0.00  0.00    +0.003 A 
ENDROOT
BRANCH  14   8
ATOM      5  N   UNL     1       2.807   0.586  22.556  0.00  0.00    -0.298 NA
ATOM      8  C   UNL     1       0.475   0.681  22.784  0.00  0.00    +0.090 C 
ATOM      9  C   UNL     1       1.644  -0.302  22.629  0.00  0.00    +0.097 C 
ATOM     10  C   UNL     1       2.577   1.596  23.588  0.00  0.00    +0.085 C 
ATOM     11  C   UNL     1       1.105   1.941  23.401  0.00  0.00    +0.029 C 
BRANCH   5   7
ATOM      1  O   UNL     1       6.125  -1.064  24.530  0.00  0.00    -0.380 OA
ATOM      7  C   UNL     1       4.067  -0.130  22.748  0.00  0.00    +0.061 C 
ATOM     12  C   UNL     1       5.125   0.804  23.340  0.00  0.00    +0.047 C 
ATOM     13  C   UNL     1       3.875  -1.348  23.655  0.00  0.00    +0.047 C 
ATOM     15  C   UNL     1       6.400   0.029  23.654  0.00  0.00    +0.161 C 
ATOM     16  C   UNL     1       5.219  -2.005  23.951  0.00  0.00    +0.161 C 
ENDBRANCH   5   7
ENDBRANCH  14   8
BRANCH  19  23
ATOM      4  O   UNL     1      -5.344   2.234  24.288  0.00  0.00    -0.245 OA
ATOM     23  C   UNL     1      -4.326   1.926  24.928  0.00  0.00    +0.343 C 
BRANCH  23   3
ATOM      3  O   UNL     1      -3.548   2.833  25.597  0.00  0.00    -0.464 OA
ATOM     24  C   UNL     1      -3.105   3.979  24.861  0.00  0.00    +0.280 C 
ENDBRANCH  23   3
ENDBRANCH  19  23
TORSDOF 4
ENDMDL
MODEL 8
REMARK VINA RESULT:       1.9     19.580     21.493
REMARK  Name = 45784357
REMARK  5 active torsions:
REMARK  status: ('A' for Active; 'I' for Inactive)
REMARK    1  A    between atoms: O_3  and  C_23
REMARK    2  A    between atoms: O_3  and  C_24
REMARK    3  A    between atoms: N_5  and  C_7
REMARK    4  A    between atoms: C_8  and  C_14
REMARK    5  A    between atoms: C_19  and  C_23
REMARK                            x       y       z     vdW  Elec       q    Type
REMARK                         _______ _______ _______ _____ _____    ______ ____
ROOT
ATOM      2  O   UNL     1      -3.152   0.011  24.506  0.00  0.00    -0.439 OA
ATOM      6  N   UNL     1      -5.236  -0.744  24.032  0.00  0.00    -0.213 NA
ATOM     14  C   UNL     1      -4.471   0.289  24.307  0.00  0.00    +0.201 A 
ATOM     17  C   UNL     1      -3.081  -1.342  24.336  0.00  0.00    +0.169 A 
ATOM     18  C   UNL     1      -4.357  -1.801  24.047  0.00  0.00    +0.110 A 
ATOM     19  C   UNL     1      -1.952  -2.147  24.430  0.00  0.00    +0.103 A 
ATOM     20  C   UNL     1      -4.552  -3.172  23.827  0.00  0.00    +0.031 A 
ATOM     21  C   UNL     1      -2.163  -3.513  24.208  0.00  0.00    +0.019 A 
ATOM     22  C   UNL     1      -3.435  -4.018  23.913  0.00  0.00    +0.003 A 
ENDROOT
BRANCH  14   8
ATOM      5  N   UNL     1      -4.057   3.846  25.081  0.00  0.00    -0.298 NA
ATOM      8  C   UNL     1      -4.865   1.742  24.434  0.00  0.00    +0.090 C 
ATOM      9  C   UNL     1      -3.682   2.702  24.248  0.00  0.00    +0.097 C 
ATOM     10  C   UNL     1      -4.589   3.260  26.311  0.00  0.00    +0.085 C 
ATOM     11  C   UNL     1      -5.472   2.132  25.794  0.00  0.00    +0.029 C 
BRANCH   5   7
ATOM      1  O   UNL     1      -0.413   5.841  24.475  0.00  0.00    -0.380 OA
ATOM      7  C   UNL     1      -2.932   4.744  25.333  0.00  0.00    +0.061 C 
ATOM     12  C   UNL     1      -1.624   3.953  25.407  0.00  0.00    +0.047 C 
ATOM     13  C   UNL     1      -2.832   5.820  24.248  0.00  0.00    +0.047 C 
ATOM     15  C   UNL     1      -0.438   4.899  25.548  0.00  0.00    +0.161 C 
ATOM     16  C   UNL     1      -1.579   6.665  24.453  0.00  0.00    +0.161 C 
ENDBRANCH   5   7
ENDBRANCH  14   8
BRANCH  19  23
ATOM      4  O   UNL     1      -0.017  -1.834  25.786  0.00  0.00    -0.245 OA
ATOM     23  C   UNL     1      -0.641  -1.614  24.735  0.00  0.00    +0.343 C 
BRANCH  23   3
ATOM      3  O   UNL     1      -0.161  -0.829  23.720  0.00  0.00    -0.464 OA
ATOM     24  C   UNL     1       0.121   0.539  24.032  0.00  0.00    +0.280 C 
ENDBRANCH  23   3
ENDBRANCH  19  23
TORSDOF 4
ENDMDL
