MODEL 1
REMARK VINA RESULT:      -1.4      0.000      0.000
REMARK  Name = 26743626
REMARK  6 active torsions:
REMARK  status: ('A' for Active; 'I' for Inactive)
REMARK    1  A    between atoms: O_4  and  C_12
REMARK    2  A    between atoms: N_6  and  C_14
REMARK    3  A    between atoms: C_10  and  C_15
REMARK    4  A    between atoms: C_14  and  C_16
REMARK    5  A    between atoms: C_20  and  C_23
REMARK    6  A    between atoms: C_30  and  C_31
REMARK                            x       y       z     vdW  Elec       q    Type
REMARK                         _______ _______ _______ _____ _____    ______ ____
ROOT
ATOM      6  N   UNL     1      -4.638   1.718  25.391  0.00  0.00    -0.285 NA
ATOM     10  C   UNL     1      -4.441   2.287  24.042  0.00  0.00    +0.149 C 
ATOM     11  C   UNL     1      -4.502   3.811  24.244  0.00  0.00    +0.061 C 
ATOM     12  C   UNL     1      -4.784   4.002  25.729  0.00  0.00    +0.130 C 
ATOM     13  C   UNL     1      -5.431   2.692  26.138  0.00  0.00    +0.116 C 
ENDROOT
BRANCH  10  15
ATOM      5  O   UNL     1      -3.199   1.521  22.081  0.00  0.00    -0.336 OA
ATOM      7  N   UNL     1      -1.960   1.691  23.938  0.00  0.00    -0.190 NA
ATOM      9  N   UNL     1      -1.902   1.133  21.720  0.00  0.00    -0.056 NA
ATOM     15  C   UNL     1      -3.145   1.832  23.402  0.00  0.00    +0.245 A 
ATOM     20  C   UNL     1      -1.231   1.260  22.869  0.00  0.00    +0.202 A 
BRANCH  20  23
ATOM     23  C   UNL     1       0.170   0.966  22.980  0.00  0.00    +0.022 A 
ATOM     26  C   UNL     1       0.701  -0.152  22.336  0.00  0.00    +0.012 A 
ATOM     27  C   UNL     1       0.999   1.799  23.731  0.00  0.00    +0.012 A 
ATOM     28  C   UNL     1       2.063  -0.436  22.444  0.00  0.00    +0.013 A 
ATOM     29  C   UNL     1       2.360   1.514  23.839  0.00  0.00    +0.013 A 
ATOM     30  C   UNL     1       2.892   0.396  23.195  0.00  0.00    +0.055 A 
BRANCH  30  31
ATOM      1  F   UNL     1       5.038   0.272  22.146  0.00  0.00    -0.166 F 
ATOM      2  F   UNL     1       4.585  -1.200  23.680  0.00  0.00    -0.166 F 
ATOM      3  F   UNL     1       4.996   0.863  24.233  0.00  0.00    -0.166 F 
ATOM     31  C   UNL     1       4.347   0.092  23.311  0.00  0.00    +0.417 C 
ENDBRANCH  30  31
ENDBRANCH  20  23
ENDBRANCH  10  15
BRANCH  12   4
ATOM      4  O   UNL     1      -5.646   5.103  25.940  0.00  0.00    -0.390 OA
ATOM     32  H   UNL     1      -5.916   5.434  25.066  0.00  0.00    +0.210 HD
ENDBRANCH  12   4
BRANCH   6  14
ATOM     14  C   UNL     1      -5.261   0.401  25.374  0.00  0.00    +0.122 C 
BRANCH  14  16
ATOM      8  N   UNL     1      -3.555  -2.331  23.594  0.00  0.00    -0.360 N 
ATOM     16  C   UNL     1      -4.340  -0.648  24.810  0.00  0.00    -0.008 A 
ATOM     17  C   UNL     1      -2.992  -0.887  25.199  0.00  0.00    +0.004 A 
ATOM     18  C   UNL     1      -4.658  -1.551  23.822  0.00  0.00    +0.088 A 
ATOM     19  C   UNL     1      -2.523  -1.947  24.419  0.00  0.00    +0.047 A 
ATOM     21  C   UNL     1      -2.122  -0.301  26.139  0.00  0.00    +0.010 A 
ATOM     22  C   UNL     1      -1.224  -2.454  24.535  0.00  0.00    +0.026 A 
ATOM     24  C   UNL     1      -0.819  -0.797  26.267  0.00  0.00    +0.001 A 
ATOM     25  C   UNL     1      -0.379  -1.856  25.476  0.00  0.00    +0.002 A 
ATOM     33  H   UNL     1      -3.507  -3.078  22.915  0.00  0.00    +0.165 HD
ENDBRANCH  14  16
ENDBRANCH   6  14
TORSDOF 6
ENDMDL
MODEL 2
REMARK VINA RESULT:      -0.1      1.099      1.405
REMARK  Name = 26743626
REMARK  6 active torsions:
REMARK  status: ('A' for Active; 'I' for Inactive)
REMARK    1  A    between atoms: O_4  and  C_12
REMARK    2  A    between atoms: N_6  and  C_14
REMARK    3  A    between atoms: C_10  and  C_15
REMARK    4  A    between atoms: C_14  and  C_16
REMARK    5  A    between atoms: C_20  and  C_23
REMARK    6  A    between atoms: C_30  and  C_31
REMARK                            x       y       z     vdW  Elec       q    Type
REMARK                         _______ _______ _______ _____ _____    ______ ____
ROOT
ATOM      6  N   UNL     1      -3.731   2.180  25.311  0.00  0.00    -0.285 NA
ATOM     10  C   UNL     1      -3.045   2.884  24.208  0.00  0.00    +0.149 C 
ATOM     11  C   UNL     1      -2.606   4.230  24.812  0.00  0.00    +0.061 C 
ATOM     12  C   UNL     1      -3.131   4.210  26.243  0.00  0.00    +0.130 C 
ATOM     13  C   UNL     1      -4.275   3.216  26.187  0.00  0.00    +0.116 C 
ENDROOT
BRANCH  10  15
ATOM      5  O   UNL     1      -2.149   1.332  22.546  0.00  0.00    -0.336 OA
ATOM      7  N   UNL     1      -0.647   2.020  24.058  0.00  0.00    -0.190 NA
ATOM      9  N   UNL     1      -0.944   0.700  22.212  0.00  0.00    -0.056 NA
ATOM     15  C   UNL     1      -1.886   2.089  23.643  0.00  0.00    +0.245 A 
ATOM     20  C   UNL     1      -0.107   1.156  23.150  0.00  0.00    +0.202 A 
BRANCH  20  23
ATOM     23  C   UNL     1       1.273   0.769  23.206  0.00  0.00    +0.022 A 
ATOM     26  C   UNL     1       2.273   1.733  23.075  0.00  0.00    +0.012 A 
ATOM     27  C   UNL     1       1.615  -0.570  23.392  0.00  0.00    +0.012 A 
ATOM     28  C   UNL     1       3.615   1.357  23.130  0.00  0.00    +0.013 A 
ATOM     29  C   UNL     1       2.958  -0.946  23.447  0.00  0.00    +0.013 A 
ATOM     30  C   UNL     1       3.958   0.018  23.316  0.00  0.00    +0.055 A 
BRANCH  30  31
ATOM      1  F   UNL     1       6.045  -0.258  22.181  0.00  0.00    -0.166 F 
ATOM      2  F   UNL     1       5.558  -1.687  23.746  0.00  0.00    -0.166 F 
ATOM      3  F   UNL     1       6.129   0.347  24.263  0.00  0.00    -0.166 F 
ATOM     31  C   UNL     1       5.393  -0.384  23.374  0.00  0.00    +0.417 C 
ENDBRANCH  30  31
ENDBRANCH  20  23
ENDBRANCH  10  15
BRANCH  12   4
ATOM      4  O   UNL     1      -3.571   5.496  26.634  0.00  0.00    -0.390 OA
ATOM     32  H   UNL     1      -3.247   6.130  25.971  0.00  0.00    +0.210 HD
ENDBRANCH  12   4
BRANCH   6  14
ATOM     14  C   UNL     1      -4.759   1.256  24.851  0.00  0.00    +0.122 C 
BRANCH  14  16
ATOM      8  N   UNL     1      -3.961  -2.162  23.744  0.00  0.00    -0.360 N 
ATOM     16  C   UNL     1      -4.195  -0.108  24.554  0.00  0.00    -0.008 A 
ATOM     17  C   UNL     1      -2.967  -0.639  25.038  0.00  0.00    +0.004 A 
ATOM     18  C   UNL     1      -4.783  -1.067  23.762  0.00  0.00    +0.088 A 
ATOM     19  C   UNL     1      -2.844  -1.928  24.514  0.00  0.00    +0.047 A 
ATOM     21  C   UNL     1      -1.944  -0.146  25.872  0.00  0.00    +0.010 A 
ATOM     22  C   UNL     1      -1.745  -2.752  24.785  0.00  0.00    +0.026 A 
ATOM     24  C   UNL     1      -0.839  -0.959  26.151  0.00  0.00    +0.001 A 
ATOM     25  C   UNL     1      -0.744  -2.241  25.616  0.00  0.00    +0.002 A 
ATOM     33  H   UNL     1      -4.146  -3.016  23.237  0.00  0.00    +0.165 HD
ENDBRANCH  14  16
ENDBRANCH   6  14
TORSDOF 6
ENDMDL
MODEL 3
REMARK VINA RESULT:       0.2      2.209      4.292
REMARK  Name = 26743626
REMARK  6 active torsions:
REMARK  status: ('A' for Active; 'I' for Inactive)
REMARK    1  A    between atoms: O_4  and  C_12
REMARK    2  A    between atoms: N_6  and  C_14
REMARK    3  A    between atoms: C_10  and  C_15
REMARK    4  A    between atoms: C_14  and  C_16
REMARK    5  A    between atoms: C_20  and  C_23
REMARK    6  A    between atoms: C_30  and  C_31
REMARK                            x       y       z     vdW  Elec       q    Type
REMARK                         _______ _______ _______ _____ _____    ______ ____
ROOT
ATOM      6  N   UNL     1      -3.665  -0.452  24.521  0.00  0.00    -0.285 NA
ATOM     10  C   UNL     1      -2.514  -1.368  24.658  0.00  0.00    +0.149 C 
ATOM     11  C   UNL     1      -2.944  -2.653  23.927  0.00  0.00    +0.061 C 
ATOM     12  C   UNL     1      -4.367  -2.381  23.455  0.00  0.00    +0.130 C 
ATOM     13  C   UNL     1      -4.852  -1.296  24.397  0.00  0.00    +0.116 C 
ENDROOT
BRANCH  10  15
ATOM      5  O   UNL     1      -1.369   0.242  23.218  0.00  0.00    -0.336 OA
ATOM      7  N   UNL     1       0.008  -1.112  24.353  0.00  0.00    -0.190 NA
ATOM      9  N   UNL     1      -0.069   0.614  22.851  0.00  0.00    -0.056 NA
ATOM     15  C   UNL     1      -1.233  -0.780  24.104  0.00  0.00    +0.245 A 
ATOM     20  C   UNL     1       0.686  -0.230  23.562  0.00  0.00    +0.202 A 
BRANCH  20  23
ATOM     23  C   UNL     1       2.120  -0.217  23.505  0.00  0.00    +0.022 A 
ATOM     26  C   UNL     1       2.789   0.926  23.065  0.00  0.00    +0.012 A 
ATOM     27  C   UNL     1       2.843  -1.345  23.891  0.00  0.00    +0.012 A 
ATOM     28  C   UNL     1       4.183   0.938  23.011  0.00  0.00    +0.013 A 
ATOM     29  C   UNL     1       4.237  -1.332  23.836  0.00  0.00    +0.013 A 
ATOM     30  C   UNL     1       4.907  -0.189  23.396  0.00  0.00    +0.055 A 
BRANCH  30  31
ATOM      1  F   UNL     1       6.903  -0.639  22.157  0.00  0.00    -0.166 F 
ATOM      2  F   UNL     1       6.967  -0.947  24.309  0.00  0.00    -0.166 F 
ATOM      3  F   UNL     1       6.938   1.069  23.494  0.00  0.00    -0.166 F 
ATOM     31  C   UNL     1       6.397  -0.175  23.338  0.00  0.00    +0.417 C 
ENDBRANCH  30  31
ENDBRANCH  20  23
ENDBRANCH  10  15
BRANCH  12   4
ATOM      4  O   UNL     1      -5.159  -3.549  23.547  0.00  0.00    -0.390 OA
ATOM     32  H   UNL     1      -4.554  -4.307  23.622  0.00  0.00    +0.210 HD
ENDBRANCH  12   4
BRANCH   6  14
ATOM     14  C   UNL     1      -3.778   0.496  25.622  0.00  0.00    +0.122 C 
BRANCH  14  16
ATOM      8  N   UNL     1      -4.249   3.893  24.287  0.00  0.00    -0.360 N 
ATOM     16  C   UNL     1      -3.696   1.922  25.145  0.00  0.00    -0.008 A 
ATOM     17  C   UNL     1      -2.549   2.763  25.190  0.00  0.00    +0.004 A 
ATOM     18  C   UNL     1      -4.725   2.644  24.586  0.00  0.00    +0.088 A 
ATOM     19  C   UNL     1      -2.924   3.994  24.646  0.00  0.00    +0.047 A 
ATOM     21  C   UNL     1      -1.226   2.597  25.643  0.00  0.00    +0.010 A 
ATOM     22  C   UNL     1      -2.037   5.071  24.531  0.00  0.00    +0.026 A 
ATOM     24  C   UNL     1      -0.327   3.665  25.534  0.00  0.00    +0.001 A 
ATOM     25  C   UNL     1      -0.729   4.881  24.986  0.00  0.00    +0.002 A 
ATOM     33  H   UNL     1      -4.793   4.633  23.867  0.00  0.00    +0.165 HD
ENDBRANCH  14  16
ENDBRANCH   6  14
TORSDOF 6
ENDMDL
MODEL 4
REMARK VINA RESULT:       0.7      0.908      1.846
REMARK  Name = 26743626
REMARK  6 active torsions:
REMARK  status: ('A' for Active; 'I' for Inactive)
REMARK    1  A    between atoms: O_4  and  C_12
REMARK    2  A    between atoms: N_6  and  C_14
REMARK    3  A    between atoms: C_10  and  C_15
REMARK    4  A    between atoms: C_14  and  C_16
REMARK    5  A    between atoms: C_20  and  C_23
REMARK    6  A    between atoms: C_30  and  C_31
REMARK                            x       y       z     vdW  Elec       q    Type
REMARK                         _______ _______ _______ _____ _____    ______ ____
ROOT
ATOM      6  N   UNL     1      -4.533   1.835  25.640  0.00  0.00    -0.285 NA
ATOM     10  C   UNL     1      -4.562   2.186  24.205  0.00  0.00    +0.149 C 
ATOM     11  C   UNL     1      -4.997   3.662  24.169  0.00  0.00    +0.061 C 
ATOM     12  C   UNL     1      -5.236   4.039  25.626  0.00  0.00    +0.130 C 
ATOM     13  C   UNL     1      -5.506   2.706  26.297  0.00  0.00    +0.116 C 
ENDROOT
BRANCH  10  15
ATOM      5  O   UNL     1      -3.191   2.171  22.182  0.00  0.00    -0.336 OA
ATOM      7  N   UNL     1      -2.091   1.562  24.036  0.00  0.00    -0.190 NA
ATOM      9  N   UNL     1      -1.877   1.892  21.781  0.00  0.00    -0.056 NA
ATOM     15  C   UNL     1      -3.230   1.951  23.522  0.00  0.00    +0.245 A 
ATOM     20  C   UNL     1      -1.292   1.540  22.930  0.00  0.00    +0.202 A 
BRANCH  20  23
ATOM     23  C   UNL     1       0.090   1.162  23.007  0.00  0.00    +0.022 A 
ATOM     26  C   UNL     1       0.984   1.934  23.750  0.00  0.00    +0.012 A 
ATOM     27  C   UNL     1       0.540   0.023  22.340  0.00  0.00    +0.012 A 
ATOM     28  C   UNL     1       2.327   1.566  23.826  0.00  0.00    +0.013 A 
ATOM     29  C   UNL     1       1.884  -0.345  22.415  0.00  0.00    +0.013 A 
ATOM     30  C   UNL     1       2.777   0.427  23.159  0.00  0.00    +0.055 A 
BRANCH  30  31
ATOM      1  F   UNL     1       4.884   0.167  22.057  0.00  0.00    -0.166 F 
ATOM      2  F   UNL     1       4.381  -1.268  23.611  0.00  0.00    -0.166 F 
ATOM      3  F   UNL     1       4.931   0.768  24.141  0.00  0.00    -0.166 F 
ATOM     31  C   UNL     1       4.214   0.034  23.239  0.00  0.00    +0.417 C 
ENDBRANCH  30  31
ENDBRANCH  20  23
ENDBRANCH  10  15
BRANCH  12   4
ATOM      4  O   UNL     1      -6.336   4.919  25.743  0.00  0.00    -0.390 OA
ATOM     32  H   UNL     1      -6.919   4.762  24.981  0.00  0.00    +0.210 HD
ENDBRANCH  12   4
BRANCH   6  14
ATOM     14  C   UNL     1      -4.801   0.425  25.892  0.00  0.00    +0.122 C 
BRANCH  14  16
ATOM      8  N   UNL     1      -1.511  -1.220  25.788  0.00  0.00    -0.360 N 
ATOM     16  C   UNL     1      -3.581  -0.427  25.665  0.00  0.00    -0.008 A 
ATOM     17  C   UNL     1      -3.488  -1.561  24.811  0.00  0.00    +0.004 A 
ATOM     18  C   UNL     1      -2.350  -0.242  26.252  0.00  0.00    +0.088 A 
ATOM     19  C   UNL     1      -2.180  -2.040  24.907  0.00  0.00    +0.047 A 
ATOM     21  C   UNL     1      -4.394  -2.229  23.963  0.00  0.00    +0.010 A 
ATOM     22  C   UNL     1      -1.729  -3.158  24.195  0.00  0.00    +0.026 A 
ATOM     24  C   UNL     1      -3.958  -3.348  23.244  0.00  0.00    +0.001 A 
ATOM     25  C   UNL     1      -2.647  -3.803  23.360  0.00  0.00    +0.002 A 
ATOM     33  H   UNL     1      -0.543  -1.326  26.055  0.00  0.00    +0.165 HD
ENDBRANCH  14  16
ENDBRANCH   6  14
TORSDOF 6
ENDMDL
MODEL 5
REMARK VINA RESULT:       1.2      1.977      2.790
REMARK  Name = 26743626
REMARK  6 active torsions:
REMARK  status: ('A' for Active; 'I' for Inactive)
REMARK    1  A    between atoms: O_4  and  C_12
REMARK    2  A    between atoms: N_6  and  C_14
REMARK    3  A    between atoms: C_10  and  C_15
REMARK    4  A    between atoms: C_14  and  C_16
REMARK    5  A    between atoms: C_20  and  C_23
REMARK    6  A    between atoms: C_30  and  C_31
REMARK                            x       y       z     vdW  Elec       q    Type
REMARK                         _______ _______ _______ _____ _____    ______ ____
ROOT
ATOM      6  N   UNL     1      -2.186   2.769  25.462  0.00  0.00    -0.285 NA
ATOM     10  C   UNL     1      -1.790   2.929  24.048  0.00  0.00    +0.149 C 
ATOM     11  C   UNL     1      -1.370   4.404  23.920  0.00  0.00    +0.061 C 
ATOM     12  C   UNL     1      -1.609   5.003  25.301  0.00  0.00    +0.130 C 
ATOM     13  C   UNL     1      -2.646   4.081  25.912  0.00  0.00    +0.116 C 
ENDROOT
BRANCH  10  15
ATOM      5  O   UNL     1      -1.070   0.900  22.890  0.00  0.00    -0.336 OA
ATOM      7  N   UNL     1       0.589   2.014  23.902  0.00  0.00    -0.190 NA
ATOM      9  N   UNL     1       0.099   0.169  22.640  0.00  0.00    -0.056 NA
ATOM     15  C   UNL     1      -0.692   1.969  23.639  0.00  0.00    +0.245 A 
ATOM     20  C   UNL     1       1.033   0.889  23.269  0.00  0.00    +0.202 A 
BRANCH  20  23
ATOM     23  C   UNL     1       2.417   0.513  23.283  0.00  0.00    +0.022 A 
ATOM     26  C   UNL     1       2.783  -0.789  23.627  0.00  0.00    +0.012 A 
ATOM     27  C   UNL     1       3.397   1.449  22.951  0.00  0.00    +0.012 A 
ATOM     28  C   UNL     1       4.129  -1.154  23.639  0.00  0.00    +0.013 A 
ATOM     29  C   UNL     1       4.743   1.083  22.963  0.00  0.00    +0.013 A 
ATOM     30  C   UNL     1       5.109  -0.219  23.308  0.00  0.00    +0.055 A 
BRANCH  30  31
ATOM      1  F   UNL     1       6.979  -1.151  22.144  0.00  0.00    -0.166 F 
ATOM      2  F   UNL     1       6.830  -1.541  24.277  0.00  0.00    -0.166 F 
ATOM      3  F   UNL     1       7.396   0.434  23.564  0.00  0.00    -0.166 F 
ATOM     31  C   UNL     1       6.548  -0.609  23.321  0.00  0.00    +0.417 C 
ENDBRANCH  30  31
ENDBRANCH  20  23
ENDBRANCH  10  15
BRANCH  12   4
ATOM      4  O   UNL     1      -2.082   6.332  25.196  0.00  0.00    -0.390 OA
ATOM     32  H   UNL     1      -1.351   6.923  25.444  0.00  0.00    +0.210 HD
ENDBRANCH  12   4
BRANCH   6  14
ATOM     14  C   UNL     1      -3.194   1.736  25.663  0.00  0.00    +0.122 C 
BRANCH  14  16
ATOM      8  N   UNL     1      -1.233  -1.376  25.759  0.00  0.00    -0.360 N 
ATOM     16  C   UNL     1      -2.609   0.353  25.552  0.00  0.00    -0.008 A 
ATOM     17  C   UNL     1      -3.196  -0.763  24.894  0.00  0.00    +0.004 A 
ATOM     18  C   UNL     1      -1.403  -0.055  26.075  0.00  0.00    +0.088 A 
ATOM     19  C   UNL     1      -2.312  -1.835  25.039  0.00  0.00    +0.047 A 
ATOM     21  C   UNL     1      -4.397  -0.966  24.187  0.00  0.00    +0.010 A 
ATOM     22  C   UNL     1      -2.571  -3.105  24.510  0.00  0.00    +0.026 A 
ATOM     24  C   UNL     1      -4.670  -2.231  23.651  0.00  0.00    +0.001 A 
ATOM     25  C   UNL     1      -3.770  -3.281  23.811  0.00  0.00    +0.002 A 
ATOM     33  H   UNL     1      -0.432  -1.934  26.019  0.00  0.00    +0.165 HD
ENDBRANCH  14  16
ENDBRANCH   6  14
TORSDOF 6
ENDMDL
