MODEL 1
REMARK VINA RESULT:      -3.0      0.000      0.000
REMARK  Name = 25338476
REMARK  5 active torsions:
REMARK  status: ('A' for Active; 'I' for Inactive)
REMARK    1  A    between atoms: N_3  and  C_20
REMARK    2  A    between atoms: N_4  and  C_8
REMARK    3  A    between atoms: C_10  and  C_19
REMARK    4  A    between atoms: C_12  and  C_17
REMARK    5  A    between atoms: C_21  and  C_22
REMARK                            x       y       z     vdW  Elec       q    Type
REMARK                         _______ _______ _______ _____ _____    ______ ____
ROOT
ATOM      3  N   UNL     1      -2.152  -0.687  25.783  0.00  0.00    -0.293 NA
ATOM      8  C   UNL     1      -4.083  -0.516  24.489  0.00  0.00    +0.089 C 
ATOM      9  C   UNL     1      -2.989  -1.085  23.585  0.00  0.00    +0.052 C 
ATOM     10  C   UNL     1      -1.777  -1.324  24.506  0.00  0.00    +0.147 C 
ATOM     11  C   UNL     1      -3.606  -0.839  25.897  0.00  0.00    +0.107 C 
ATOM     20  C   UNL     1      -1.455  -1.252  26.932  0.00  0.00    +0.105 C 
ENDROOT
BRANCH  10  19
ATOM      1  O   UNL     1      -0.610   0.108  22.907  0.00  0.00    -0.336 OA
ATOM      5  N   UNL     1       0.749  -1.068  24.244  0.00  0.00    -0.190 NA
ATOM      6  N   UNL     1       0.696   0.452  22.534  0.00  0.00    -0.056 NA
ATOM     19  C   UNL     1      -0.488  -0.790  23.920  0.00  0.00    +0.245 A 
ATOM     21  C   UNL     1       1.440  -0.282  23.367  0.00  0.00    +0.204 A 
BRANCH  21  22
ATOM      7  N   UNL     1       4.966  -1.368  23.826  0.00  0.00    -0.263 NA
ATOM     22  C   UNL     1       2.874  -0.254  23.350  0.00  0.00    +0.041 A 
ATOM     23  C   UNL     1       3.564   0.851  22.867  0.00  0.00    +0.014 A 
ATOM     24  C   UNL     1       3.614  -1.329  23.815  0.00  0.00    +0.122 A 
ATOM     25  C   UNL     1       4.954   0.850  22.863  0.00  0.00    +0.020 A 
ATOM     26  C   UNL     1       5.603  -0.274  23.348  0.00  0.00    +0.111 A 
ENDBRANCH  21  22
ENDBRANCH  10  19
BRANCH   8   4
ATOM      2  O   UNL     1      -5.757   1.292  26.024  0.00  0.00    -0.276 OA
ATOM      4  N   UNL     1      -4.240   0.908  24.301  0.00  0.00    -0.311 N 
ATOM     17  C   UNL     1      -5.067   1.688  25.089  0.00  0.00    +0.216 C 
ATOM     27  H   UNL     1      -3.695   1.340  23.562  0.00  0.00    +0.149 HD
BRANCH  17  12
ATOM     12  C   UNL     1      -5.024   3.137  24.697  0.00  0.00    +0.075 C 
ATOM     13  C   UNL     1      -4.006   3.349  23.574  0.00  0.00    +0.013 C 
ATOM     14  C   UNL     1      -4.758   4.027  25.913  0.00  0.00    +0.013 C 
ATOM     15  C   UNL     1      -2.559   3.322  24.064  0.00  0.00    +0.001 C 
ATOM     16  C   UNL     1      -3.300   4.011  26.372  0.00  0.00    +0.001 C 
ATOM     18  C   UNL     1      -2.339   4.289  25.222  0.00  0.00    +0.000 C 
ENDBRANCH  17  12
ENDBRANCH   8   4
TORSDOF 4
ENDMDL
MODEL 2
REMARK VINA RESULT:      -1.0      1.658      3.944
REMARK  Name = 25338476
REMARK  5 active torsions:
REMARK  status: ('A' for Active; 'I' for Inactive)
REMARK    1  A    between atoms: N_3  and  C_20
REMARK    2  A    between atoms: N_4  and  C_8
REMARK    3  A    between atoms: C_10  and  C_19
REMARK    4  A    between atoms: C_12  and  C_17
REMARK    5  A    between atoms: C_21  and  C_22
REMARK                            x       y       z     vdW  Elec       q    Type
REMARK                         _______ _______ _______ _____ _____    ______ ____
ROOT
ATOM      3  N   UNL     1      -2.409   2.182  22.824  0.00  0.00    -0.293 NA
ATOM      8  C   UNL     1      -3.216   2.383  25.002  0.00  0.00    +0.089 C 
ATOM      9  C   UNL     1      -1.691   2.461  25.082  0.00  0.00    +0.052 C 
ATOM     10  C   UNL     1      -1.203   2.476  23.620  0.00  0.00    +0.147 C 
ATOM     11  C   UNL     1      -3.531   2.768  23.564  0.00  0.00    +0.107 C 
ATOM     20  C   UNL     1      -2.334   2.691  21.460  0.00  0.00    +0.105 C 
ENDROOT
BRANCH  10  19
ATOM      1  O   UNL     1      -0.387   0.349  22.738  0.00  0.00    -0.336 OA
ATOM      5  N   UNL     1       1.197   1.609  23.698  0.00  0.00    -0.190 NA
ATOM      6  N   UNL     1       0.807  -0.377  22.630  0.00  0.00    -0.056 NA
ATOM     19  C   UNL     1      -0.068   1.505  23.377  0.00  0.00    +0.245 A 
ATOM     21  C   UNL     1       1.694   0.432  23.218  0.00  0.00    +0.204 A 
BRANCH  21  22
ATOM      7  N   UNL     1       4.764  -1.562  23.871  0.00  0.00    -0.263 NA
ATOM     22  C   UNL     1       3.082   0.093  23.344  0.00  0.00    +0.041 A 
ATOM     23  C   UNL     1       4.075   1.028  23.076  0.00  0.00    +0.014 A 
ATOM     24  C   UNL     1       3.475  -1.177  23.734  0.00  0.00    +0.122 A 
ATOM     25  C   UNL     1       5.413   0.670  23.206  0.00  0.00    +0.020 A 
ATOM     26  C   UNL     1       5.702  -0.626  23.602  0.00  0.00    +0.111 A 
ENDBRANCH  21  22
ENDBRANCH  10  19
BRANCH   8   4
ATOM      2  O   UNL     1      -1.635   0.064  25.743  0.00  0.00    -0.276 OA
ATOM      4  N   UNL     1      -3.696   1.056  25.309  0.00  0.00    -0.311 N 
ATOM     17  C   UNL     1      -2.859   0.009  25.654  0.00  0.00    +0.216 C 
ATOM     27  H   UNL     1      -4.699   0.909  25.283  0.00  0.00    +0.149 HD
BRANCH  17  12
ATOM     12  C   UNL     1      -3.618  -1.253  25.947  0.00  0.00    +0.075 C 
ATOM     13  C   UNL     1      -2.661  -2.446  25.989  0.00  0.00    +0.013 C 
ATOM     14  C   UNL     1      -4.764  -1.447  24.952  0.00  0.00    +0.013 C 
ATOM     15  C   UNL     1      -2.214  -2.903  24.601  0.00  0.00    +0.001 C 
ATOM     16  C   UNL     1      -4.302  -1.933  23.579  0.00  0.00    +0.001 C 
ATOM     18  C   UNL     1      -3.403  -3.159  23.682  0.00  0.00    +0.000 C 
ENDBRANCH  17  12
ENDBRANCH   8   4
TORSDOF 4
ENDMDL
MODEL 3
REMARK VINA RESULT:      -0.9      1.542      2.086
REMARK  Name = 25338476
REMARK  5 active torsions:
REMARK  status: ('A' for Active; 'I' for Inactive)
REMARK    1  A    between atoms: N_3  and  C_20
REMARK    2  A    between atoms: N_4  and  C_8
REMARK    3  A    between atoms: C_10  and  C_19
REMARK    4  A    between atoms: C_12  and  C_17
REMARK    5  A    between atoms: C_21  and  C_22
REMARK                            x       y       z     vdW  Elec       q    Type
REMARK                         _______ _______ _______ _____ _____    ______ ____
ROOT
ATOM      3  N   UNL     1      -3.298  -0.588  25.206  0.00  0.00    -0.293 NA
ATOM      8  C   UNL     1      -4.060   1.332  24.127  0.00  0.00    +0.089 C 
ATOM      9  C   UNL     1      -3.011   0.694  23.215  0.00  0.00    +0.052 C 
ATOM     10  C   UNL     1      -2.641  -0.643  23.886  0.00  0.00    +0.147 C 
ATOM     11  C   UNL     1      -4.528   0.186  25.011  0.00  0.00    +0.107 C 
ATOM     20  C   UNL     1      -3.570  -1.906  25.767  0.00  0.00    +0.105 C 
ENDROOT
BRANCH  10  19
ATOM      1  O   UNL     1      -0.726  -1.936  24.680  0.00  0.00    -0.336 OA
ATOM      5  N   UNL     1      -0.176  -0.151  23.443  0.00  0.00    -0.190 NA
ATOM      6  N   UNL     1       0.673  -1.927  24.611  0.00  0.00    -0.056 NA
ATOM     19  C   UNL     1      -1.145  -0.859  23.965  0.00  0.00    +0.245 A 
ATOM     21  C   UNL     1       0.921  -0.846  23.865  0.00  0.00    +0.204 A 
BRANCH  21  22
ATOM      7  N   UNL     1       4.620  -0.918  23.490  0.00  0.00    -0.263 NA
ATOM     22  C   UNL     1       2.251  -0.432  23.524  0.00  0.00    +0.041 A 
ATOM     23  C   UNL     1       2.488   0.797  22.919  0.00  0.00    +0.014 A 
ATOM     24  C   UNL     1       3.341  -1.246  23.786  0.00  0.00    +0.122 A 
ATOM     25  C   UNL     1       3.788   1.171  22.600  0.00  0.00    +0.020 A 
ATOM     26  C   UNL     1       4.810   0.285  22.903  0.00  0.00    +0.111 A 
ENDBRANCH  21  22
ENDBRANCH  10  19
BRANCH   8   4
ATOM      2  O   UNL     1      -4.201   4.179  23.573  0.00  0.00    -0.276 OA
ATOM      4  N   UNL     1      -3.498   2.407  24.911  0.00  0.00    -0.311 N 
ATOM     17  C   UNL     1      -3.620   3.741  24.563  0.00  0.00    +0.216 C 
ATOM     27  H   UNL     1      -3.012   2.153  25.764  0.00  0.00    +0.149 HD
BRANCH  17  12
ATOM     12  C   UNL     1      -2.967   4.651  25.563  0.00  0.00    +0.075 C 
ATOM     13  C   UNL     1      -1.939   5.546  24.869  0.00  0.00    +0.013 C 
ATOM     14  C   UNL     1      -2.371   3.852  26.724  0.00  0.00    +0.013 C 
ATOM     15  C   UNL     1      -0.643   4.812  24.523  0.00  0.00    +0.001 C 
ATOM     16  C   UNL     1      -1.061   3.148  26.369  0.00  0.00    +0.001 C 
ATOM     18  C   UNL     1      -0.055   4.104  25.738  0.00  0.00    +0.000 C 
ENDBRANCH  17  12
ENDBRANCH   8   4
TORSDOF 4
ENDMDL
MODEL 4
REMARK VINA RESULT:      -0.1      1.863      4.343
REMARK  Name = 25338476
REMARK  5 active torsions:
REMARK  status: ('A' for Active; 'I' for Inactive)
REMARK    1  A    between atoms: N_3  and  C_20
REMARK    2  A    between atoms: N_4  and  C_8
REMARK    3  A    between atoms: C_10  and  C_19
REMARK    4  A    between atoms: C_12  and  C_17
REMARK    5  A    between atoms: C_21  and  C_22
REMARK                            x       y       z     vdW  Elec       q    Type
REMARK                         _______ _______ _______ _____ _____    ______ ____
ROOT
ATOM      3  N   UNL     1      -3.870   2.998  23.676  0.00  0.00    -0.293 NA
ATOM      8  C   UNL     1      -4.963   2.560  25.688  0.00  0.00    +0.089 C 
ATOM      9  C   UNL     1      -3.605   3.168  26.041  0.00  0.00    +0.052 C 
ATOM     10  C   UNL     1      -2.977   3.580  24.696  0.00  0.00    +0.147 C 
ATOM     11  C   UNL     1      -5.215   3.021  24.260  0.00  0.00    +0.107 C 
ATOM     20  C   UNL     1      -3.820   3.700  22.400  0.00  0.00    +0.105 C 
ENDROOT
BRANCH  10  19
ATOM      1  O   UNL     1      -0.631   3.764  25.355  0.00  0.00    -0.336 OA
ATOM      5  N   UNL     1      -1.022   2.210  23.790  0.00  0.00    -0.190 NA
ATOM      6  N   UNL     1       0.611   3.187  25.061  0.00  0.00    -0.056 NA
ATOM     19  C   UNL     1      -1.537   3.131  24.565  0.00  0.00    +0.245 A 
ATOM     21  C   UNL     1       0.298   2.280  24.130  0.00  0.00    +0.204 A 
BRANCH  21  22
ATOM      7  N   UNL     1       1.810  -0.676  22.458  0.00  0.00    -0.263 NA
ATOM     22  C   UNL     1       1.278   1.429  23.520  0.00  0.00    +0.041 A 
ATOM     23  C   UNL     1       2.600   1.838  23.388  0.00  0.00    +0.014 A 
ATOM     24  C   UNL     1       0.937   0.174  23.043  0.00  0.00    +0.122 A 
ATOM     25  C   UNL     1       3.528   0.992  22.792  0.00  0.00    +0.020 A 
ATOM     26  C   UNL     1       3.087  -0.244  22.347  0.00  0.00    +0.111 A 
ENDBRANCH  21  22
ENDBRANCH  10  19
BRANCH   8   4
ATOM      2  O   UNL     1      -3.819   0.691  23.785  0.00  0.00    -0.276 OA
ATOM      4  N   UNL     1      -4.940   1.119  25.780  0.00  0.00    -0.311 N 
ATOM     17  C   UNL     1      -4.367   0.309  24.816  0.00  0.00    +0.216 C 
ATOM     27  H   UNL     1      -5.351   0.701  26.608  0.00  0.00    +0.149 HD
BRANCH  17  12
ATOM     12  C   UNL     1      -4.457  -1.147  25.170  0.00  0.00    +0.075 C 
ATOM     13  C   UNL     1      -3.506  -1.468  26.325  0.00  0.00    +0.013 C 
ATOM     14  C   UNL     1      -4.215  -2.027  23.941  0.00  0.00    +0.013 C 
ATOM     15  C   UNL     1      -2.043  -1.549  25.891  0.00  0.00    +0.001 C 
ATOM     16  C   UNL     1      -2.743  -2.119  23.539  0.00  0.00    +0.001 C 
ATOM     18  C   UNL     1      -1.855  -2.502  24.717  0.00  0.00    +0.000 C 
ENDBRANCH  17  12
ENDBRANCH   8   4
TORSDOF 4
ENDMDL
MODEL 5
REMARK VINA RESULT:       0.0      1.669      2.118
REMARK  Name = 25338476
REMARK  5 active torsions:
REMARK  status: ('A' for Active; 'I' for Inactive)
REMARK    1  A    between atoms: N_3  and  C_20
REMARK    2  A    between atoms: N_4  and  C_8
REMARK    3  A    between atoms: C_10  and  C_19
REMARK    4  A    between atoms: C_12  and  C_17
REMARK    5  A    between atoms: C_21  and  C_22
REMARK                            x       y       z     vdW  Elec       q    Type
REMARK                         _______ _______ _______ _____ _____    ______ ____
ROOT
ATOM      3  N   UNL     1      -1.838  -1.443  24.927  0.00  0.00    -0.293 NA
ATOM      8  C   UNL     1      -3.437   0.227  24.630  0.00  0.00    +0.089 C 
ATOM      9  C   UNL     1      -2.653   0.121  23.321  0.00  0.00    +0.052 C 
ATOM     10  C   UNL     1      -1.712  -1.086  23.501  0.00  0.00    +0.147 C 
ATOM     11  C   UNL     1      -3.218  -1.120  25.302  0.00  0.00    +0.107 C 
ATOM     20  C   UNL     1      -1.513  -2.837  25.201  0.00  0.00    +0.105 C 
ENDROOT
BRANCH  10  19
ATOM      1  O   UNL     1      -0.104  -0.469  21.769  0.00  0.00    -0.336 OA
ATOM      5  N   UNL     1       0.805  -0.781  23.792  0.00  0.00    -0.190 NA
ATOM      6  N   UNL     1       1.269  -0.234  21.619  0.00  0.00    -0.056 NA
ATOM     19  C   UNL     1      -0.291  -0.783  23.078  0.00  0.00    +0.245 A 
ATOM     21  C   UNL     1       1.736  -0.438  22.855  0.00  0.00    +0.204 A 
BRANCH  21  22
ATOM      7  N   UNL     1       5.132  -1.298  24.103  0.00  0.00    -0.263 NA
ATOM     22  C   UNL     1       3.126  -0.307  23.186  0.00  0.00    +0.041 A 
ATOM     23  C   UNL     1       3.815   0.873  22.934  0.00  0.00    +0.014 A 
ATOM     24  C   UNL     1       3.823  -1.354  23.766  0.00  0.00    +0.122 A 
ATOM     25  C   UNL     1       5.162   0.971  23.266  0.00  0.00    +0.020 A 
ATOM     26  C   UNL     1       5.769  -0.133  23.842  0.00  0.00    +0.111 A 
ENDBRANCH  21  22
ENDBRANCH  10  19
BRANCH   8   4
ATOM      2  O   UNL     1      -1.248   2.041  24.043  0.00  0.00    -0.276 OA
ATOM      4  N   UNL     1      -2.951   1.311  25.452  0.00  0.00    -0.311 N 
ATOM     17  C   UNL     1      -1.895   2.126  25.083  0.00  0.00    +0.216 C 
ATOM     27  H   UNL     1      -3.433   1.479  26.329  0.00  0.00    +0.149 HD
BRANCH  17  12
ATOM     12  C   UNL     1      -1.613   3.188  26.107  0.00  0.00    +0.075 C 
ATOM     13  C   UNL     1      -2.836   4.090  26.280  0.00  0.00    +0.013 C 
ATOM     14  C   UNL     1      -0.346   3.969  25.751  0.00  0.00    +0.013 C 
ATOM     15  C   UNL     1      -3.016   5.084  25.133  0.00  0.00    +0.001 C 
ATOM     16  C   UNL     1      -0.551   4.979  24.621  0.00  0.00    +0.001 C 
ATOM     18  C   UNL     1      -1.746   5.888  24.882  0.00  0.00    +0.000 C 
ENDBRANCH  17  12
ENDBRANCH   8   4
TORSDOF 4
ENDMDL
