MODEL 1
REMARK VINA RESULT:       2.0      0.000      0.000
REMARK  Name = 26744678
REMARK  7 active torsions:
REMARK  status: ('A' for Active; 'I' for Inactive)
REMARK    1  A    between atoms: O_3  and  C_12
REMARK    2  A    between atoms: O_4  and  C_13
REMARK    3  A    between atoms: N_9  and  C_16
REMARK    4  A    between atoms: C_11  and  C_15
REMARK    5  A    between atoms: C_14  and  C_16
REMARK    6  A    between atoms: C_15  and  C_17
REMARK    7  A    between atoms: C_23  and  C_25
REMARK                            x       y       z     vdW  Elec       q    Type
REMARK                         _______ _______ _______ _____ _____    ______ ____
ROOT
ATOM      2  O   UNL     1      -5.119   4.239  25.332  0.00  0.00    -0.366 OA
ATOM     11  C   UNL     1      -4.117   5.064  24.695  0.00  0.00    +0.159 C 
ATOM     12  C   UNL     1      -3.590   4.263  23.510  0.00  0.00    +0.175 C 
ATOM     13  C   UNL     1      -3.790   2.837  23.980  0.00  0.00    +0.176 C 
ATOM     14  C   UNL     1      -5.116   2.941  24.713  0.00  0.00    +0.167 C 
ENDROOT
BRANCH  12   3
ATOM      3  O   UNL     1      -4.426   4.535  22.384  0.00  0.00    -0.387 OA
ATOM     34  H   UNL     1      -4.916   3.719  22.183  0.00  0.00    +0.210 HD
ENDBRANCH  12   3
BRANCH  13   4
ATOM      4  O   UNL     1      -3.838   1.902  22.924  0.00  0.00    -0.387 OA
ATOM     35  H   UNL     1      -3.332   2.272  22.182  0.00  0.00    +0.210 HD
ENDBRANCH  13   4
BRANCH  11  15
ATOM     15  C   UNL     1      -3.044   5.377  25.728  0.00  0.00    +0.130 C 
BRANCH  15  17
ATOM      5  O   UNL     1      -3.050   3.670  27.378  0.00  0.00    -0.276 OA
ATOM      7  N   UNL     1      -1.478   3.473  25.679  0.00  0.00    -0.298 N 
ATOM      8  N   UNL     1       0.563   1.979  24.268  0.00  0.00    -0.312 N 
ATOM     10  N   UNL     1       2.721   1.817  23.323  0.00  0.00    -0.240 NA
ATOM     17  C   UNL     1      -2.533   4.097  26.344  0.00  0.00    +0.218 C 
ATOM     18  C   UNL     1      -0.924   2.231  26.214  0.00  0.00    +0.126 C 
ATOM     19  C   UNL     1      -0.872   3.976  24.444  0.00  0.00    +0.126 C 
ATOM     20  C   UNL     1      -0.429   1.303  25.108  0.00  0.00    +0.125 C 
ATOM     21  C   UNL     1       0.542   3.444  24.218  0.00  0.00    +0.125 C 
ATOM     22  C   UNL     1       1.518   1.250  23.565  0.00  0.00    +0.121 A 
ATOM     24  C   UNL     1       1.165  -0.027  23.157  0.00  0.00    +0.043 A 
ATOM     26  C   UNL     1       2.109  -0.769  22.455  0.00  0.00    +0.005 A 
ATOM     27  C   UNL     1       3.612   1.065  22.638  0.00  0.00    +0.113 A 
ATOM     28  C   UNL     1       3.357  -0.219  22.186  0.00  0.00    +0.020 A 
ENDBRANCH  15  17
ENDBRANCH  11  15
BRANCH  14  16
ATOM     16  C   UNL     1      -5.305   1.869  25.771  0.00  0.00    +0.138 C 
BRANCH  16   9
ATOM      6  O   UNL     1      -5.649  -0.419  24.071  0.00  0.00    -0.270 OA
ATOM      9  N   UNL     1      -4.378   0.792  25.588  0.00  0.00    -0.309 N 
ATOM     23  C   UNL     1      -4.627  -0.284  24.738  0.00  0.00    +0.244 C 
ATOM     36  H   UNL     1      -3.488   0.867  26.069  0.00  0.00    +0.149 HD
BRANCH  23  25
ATOM      1  F   UNL     1      -0.106  -1.819  25.657  0.00  0.00    -0.205 F 
ATOM     25  C   UNL     1      -3.577  -1.332  24.680  0.00  0.00    +0.039 A 
ATOM     29  C   UNL     1      -2.309  -1.078  25.206  0.00  0.00    +0.051 A 
ATOM     30  C   UNL     1      -3.856  -2.568  24.098  0.00  0.00    +0.013 A 
ATOM     31  C   UNL     1      -1.322  -2.063  25.150  0.00  0.00    +0.124 A 
ATOM     32  C   UNL     1      -2.868  -3.552  24.043  0.00  0.00    +0.004 A 
ATOM     33  C   UNL     1      -1.602  -3.299  24.569  0.00  0.00    +0.038 A 
ENDBRANCH  23  25
ENDBRANCH  16   9
ENDBRANCH  14  16
TORSDOF 7
ENDMDL
MODEL 2
REMARK VINA RESULT:       2.4      1.552      2.541
REMARK  Name = 26744678
REMARK  7 active torsions:
REMARK  status: ('A' for Active; 'I' for Inactive)
REMARK    1  A    between atoms: O_3  and  C_12
REMARK    2  A    between atoms: O_4  and  C_13
REMARK    3  A    between atoms: N_9  and  C_16
REMARK    4  A    between atoms: C_11  and  C_15
REMARK    5  A    between atoms: C_14  and  C_16
REMARK    6  A    between atoms: C_15  and  C_17
REMARK    7  A    between atoms: C_23  and  C_25
REMARK                            x       y       z     vdW  Elec       q    Type
REMARK                         _______ _______ _______ _____ _____    ______ ____
ROOT
ATOM      2  O   UNL     1      -3.624   2.317  25.443  0.00  0.00    -0.366 OA
ATOM     11  C   UNL     1      -2.929   3.523  25.051  0.00  0.00    +0.159 C 
ATOM     12  C   UNL     1      -3.882   4.679  25.331  0.00  0.00    +0.175 C 
ATOM     13  C   UNL     1      -5.235   4.018  25.173  0.00  0.00    +0.176 C 
ATOM     14  C   UNL     1      -4.980   2.652  25.787  0.00  0.00    +0.167 C 
ENDROOT
BRANCH  12   3
ATOM      3  O   UNL     1      -3.688   5.095  26.683  0.00  0.00    -0.387 OA
ATOM     34  H   UNL     1      -3.268   5.971  26.660  0.00  0.00    +0.210 HD
ENDBRANCH  12   3
BRANCH  13   4
ATOM      4  O   UNL     1      -6.275   4.710  25.829  0.00  0.00    -0.387 OA
ATOM     35  H   UNL     1      -5.872   5.436  26.333  0.00  0.00    +0.210 HD
ENDBRANCH  13   4
BRANCH  11  15
ATOM     15  C   UNL     1      -2.565   3.392  23.578  0.00  0.00    +0.130 C 
BRANCH  15  17
ATOM      5  O   UNL     1      -3.085   1.166  22.938  0.00  0.00    -0.276 OA
ATOM      7  N   UNL     1      -0.850   1.633  23.369  0.00  0.00    -0.298 N 
ATOM      8  N   UNL     1       1.949   0.892  23.347  0.00  0.00    -0.312 N 
ATOM     10  N   UNL     1       4.036   0.675  24.430  0.00  0.00    -0.240 NA
ATOM     17  C   UNL     1      -2.201   1.962  23.263  0.00  0.00    +0.218 C 
ATOM     18  C   UNL     1      -0.417   0.266  23.085  0.00  0.00    +0.126 C 
ATOM     19  C   UNL     1       0.200   2.583  23.744  0.00  0.00    +0.126 C 
ATOM     20  C   UNL     1       0.981   0.225  22.473  0.00  0.00    +0.125 C 
ATOM     21  C   UNL     1       1.452   1.897  24.290  0.00  0.00    +0.125 C 
ATOM     22  C   UNL     1       3.299   0.554  23.303  0.00  0.00    +0.121 A 
ATOM     24  C   UNL     1       3.802   0.107  22.091  0.00  0.00    +0.043 A 
ATOM     26  C   UNL     1       5.148  -0.236  22.031  0.00  0.00    +0.005 A 
ATOM     27  C   UNL     1       5.341   0.333  24.334  0.00  0.00    +0.113 A 
ATOM     28  C   UNL     1       5.939  -0.123  23.170  0.00  0.00    +0.020 A 
ENDBRANCH  15  17
ENDBRANCH  11  15
BRANCH  14  16
ATOM     16  C   UNL     1      -5.919   1.575  25.273  0.00  0.00    +0.138 C 
BRANCH  16   9
ATOM      6  O   UNL     1      -4.344  -0.270  26.809  0.00  0.00    -0.270 OA
ATOM      9  N   UNL     1      -5.190   0.449  24.771  0.00  0.00    -0.309 N 
ATOM     23  C   UNL     1      -4.449  -0.398  25.592  0.00  0.00    +0.244 C 
ATOM     36  H   UNL     1      -5.276   0.252  23.780  0.00  0.00    +0.149 HD
BRANCH  23  25
ATOM      1  F   UNL     1      -0.443  -3.070  24.916  0.00  0.00    -0.205 F 
ATOM     25  C   UNL     1      -3.728  -1.505  24.914  0.00  0.00    +0.039 A 
ATOM     29  C   UNL     1      -2.397  -1.773  25.239  0.00  0.00    +0.051 A 
ATOM     30  C   UNL     1      -4.379  -2.276  23.951  0.00  0.00    +0.013 A 
ATOM     31  C   UNL     1      -1.720  -2.813  24.602  0.00  0.00    +0.124 A 
ATOM     32  C   UNL     1      -3.701  -3.316  23.315  0.00  0.00    +0.004 A 
ATOM     33  C   UNL     1      -2.372  -3.584  23.641  0.00  0.00    +0.038 A 
ENDBRANCH  23  25
ENDBRANCH  16   9
ENDBRANCH  14  16
TORSDOF 7
ENDMDL
MODEL 3
REMARK VINA RESULT:       3.1      2.428      4.608
REMARK  Name = 26744678
REMARK  7 active torsions:
REMARK  status: ('A' for Active; 'I' for Inactive)
REMARK    1  A    between atoms: O_3  and  C_12
REMARK    2  A    between atoms: O_4  and  C_13
REMARK    3  A    between atoms: N_9  and  C_16
REMARK    4  A    between atoms: C_11  and  C_15
REMARK    5  A    between atoms: C_14  and  C_16
REMARK    6  A    between atoms: C_15  and  C_17
REMARK    7  A    between atoms: C_23  and  C_25
REMARK                            x       y       z     vdW  Elec       q    Type
REMARK                         _______ _______ _______ _____ _____    ______ ____
ROOT
ATOM      2  O   UNL     1      -4.070   3.047  23.728  0.00  0.00    -0.366 OA
ATOM     11  C   UNL     1      -5.097   2.135  24.179  0.00  0.00    +0.159 C 
ATOM     12  C   UNL     1      -5.270   2.386  25.672  0.00  0.00    +0.175 C 
ATOM     13  C   UNL     1      -3.892   2.869  26.072  0.00  0.00    +0.176 C 
ATOM     14  C   UNL     1      -3.504   3.713  24.870  0.00  0.00    +0.167 C 
ENDROOT
BRANCH  12   3
ATOM      3  O   UNL     1      -6.228   3.432  25.838  0.00  0.00    -0.387 OA
ATOM     34  H   UNL     1      -5.886   4.216  25.374  0.00  0.00    +0.210 HD
ENDBRANCH  12   3
BRANCH  13   4
ATOM      4  O   UNL     1      -3.886   3.616  27.270  0.00  0.00    -0.387 OA
ATOM     35  H   UNL     1      -2.959   3.752  27.526  0.00  0.00    +0.210 HD
ENDBRANCH  13   4
BRANCH  11  15
ATOM     15  C   UNL     1      -4.636   0.719  23.861  0.00  0.00    +0.130 C 
BRANCH  15  17
ATOM      5  O   UNL     1      -4.045  -0.147  25.991  0.00  0.00    -0.276 OA
ATOM      7  N   UNL     1      -2.296   0.329  24.537  0.00  0.00    -0.298 N 
ATOM      8  N   UNL     1       0.507   0.230  23.818  0.00  0.00    -0.312 N 
ATOM     10  N   UNL     1       2.490   1.284  23.089  0.00  0.00    -0.240 NA
ATOM     17  C   UNL     1      -3.642   0.258  24.899  0.00  0.00    +0.218 C 
ATOM     18  C   UNL     1      -1.272  -0.095  25.489  0.00  0.00    +0.126 C 
ATOM     19  C   UNL     1      -1.819   0.801  23.235  0.00  0.00    +0.126 C 
ATOM     20  C   UNL     1      -0.061  -0.709  24.789  0.00  0.00    +0.125 C 
ATOM     21  C   UNL     1      -0.367   1.272  23.271  0.00  0.00    +0.125 C 
ATOM     22  C   UNL     1       1.848   0.151  23.451  0.00  0.00    +0.121 A 
ATOM     24  C   UNL     1       2.441  -1.101  23.485  0.00  0.00    +0.043 A 
ATOM     26  C   UNL     1       3.781  -1.196  23.123  0.00  0.00    +0.005 A 
ATOM     27  C   UNL     1       3.791   1.152  22.744  0.00  0.00    +0.113 A 
ATOM     28  C   UNL     1       4.475  -0.052  22.744  0.00  0.00    +0.020 A 
ENDBRANCH  15  17
ENDBRANCH  11  15
BRANCH  14  16
ATOM     16  C   UNL     1      -2.002   3.850  24.690  0.00  0.00    +0.138 C 
BRANCH  16   9
ATOM      6  O   UNL     1       0.719   2.978  24.976  0.00  0.00    -0.270 OA
ATOM      9  N   UNL     1      -1.308   3.600  25.918  0.00  0.00    -0.309 N 
ATOM     23  C   UNL     1       0.018   3.178  25.965  0.00  0.00    +0.244 C 
ATOM     36  H   UNL     1      -1.812   3.797  26.777  0.00  0.00    +0.149 HD
BRANCH  23  25
ATOM      1  F   UNL     1       3.808   2.951  29.002  0.00  0.00    -0.205 F 
ATOM     25  C   UNL     1       0.584   2.937  27.317  0.00  0.00    +0.039 A 
ATOM     29  C   UNL     1       1.958   3.059  27.529  0.00  0.00    +0.051 A 
ATOM     30  C   UNL     1      -0.257   2.586  28.373  0.00  0.00    +0.013 A 
ATOM     31  C   UNL     1       2.490   2.833  28.799  0.00  0.00    +0.124 A 
ATOM     32  C   UNL     1       0.276   2.361  29.643  0.00  0.00    +0.004 A 
ATOM     33  C   UNL     1       1.649   2.484  29.855  0.00  0.00    +0.038 A 
ENDBRANCH  23  25
ENDBRANCH  16   9
ENDBRANCH  14  16
TORSDOF 7
ENDMDL
MODEL 4
REMARK VINA RESULT:       4.0      2.153      4.671
REMARK  Name = 26744678
REMARK  7 active torsions:
REMARK  status: ('A' for Active; 'I' for Inactive)
REMARK    1  A    between atoms: O_3  and  C_12
REMARK    2  A    between atoms: O_4  and  C_13
REMARK    3  A    between atoms: N_9  and  C_16
REMARK    4  A    between atoms: C_11  and  C_15
REMARK    5  A    between atoms: C_14  and  C_16
REMARK    6  A    between atoms: C_15  and  C_17
REMARK    7  A    between atoms: C_23  and  C_25
REMARK                            x       y       z     vdW  Elec       q    Type
REMARK                         _______ _______ _______ _____ _____    ______ ____
ROOT
ATOM      2  O   UNL     1      -4.101   1.427  24.090  0.00  0.00    -0.366 OA
ATOM     11  C   UNL     1      -4.958   0.641  24.949  0.00  0.00    +0.159 C 
ATOM     12  C   UNL     1      -5.894   1.625  25.640  0.00  0.00    +0.175 C 
ATOM     13  C   UNL     1      -5.054   2.884  25.680  0.00  0.00    +0.176 C 
ATOM     14  C   UNL     1      -4.348   2.822  24.336  0.00  0.00    +0.167 C 
ENDROOT
BRANCH  12   3
ATOM      3  O   UNL     1      -7.033   1.817  24.800  0.00  0.00    -0.387 OA
ATOM     34  H   UNL     1      -6.963   1.184  24.066  0.00  0.00    +0.210 HD
ENDBRANCH  12   3
BRANCH  13   4
ATOM      4  O   UNL     1      -5.817   4.062  25.825  0.00  0.00    -0.387 OA
ATOM     35  H   UNL     1      -6.589   3.845  26.374  0.00  0.00    +0.210 HD
ENDBRANCH  13   4
BRANCH  11  15
ATOM     15  C   UNL     1      -4.069  -0.122  25.922  0.00  0.00    +0.130 C 
BRANCH  15  17
ATOM      5  O   UNL     1      -3.896  -2.311  25.021  0.00  0.00    -0.276 OA
ATOM      7  N   UNL     1      -2.046  -0.929  24.767  0.00  0.00    -0.298 N 
ATOM      8  N   UNL     1       0.560  -0.355  23.643  0.00  0.00    -0.312 N 
ATOM     10  N   UNL     1       2.812   0.314  23.885  0.00  0.00    -0.240 NA
ATOM     17  C   UNL     1      -3.340  -1.225  25.196  0.00  0.00    +0.218 C 
ATOM     18  C   UNL     1      -1.271  -1.947  24.061  0.00  0.00    +0.126 C 
ATOM     19  C   UNL     1      -1.390   0.365  24.967  0.00  0.00    +0.126 C 
ATOM     20  C   UNL     1      -0.336  -1.334  23.021  0.00  0.00    +0.125 C 
ATOM     21  C   UNL     1       0.134   0.275  24.895  0.00  0.00    +0.125 C 
ATOM     22  C   UNL     1       1.797  -0.060  23.075  0.00  0.00    +0.121 A 
ATOM     24  C   UNL     1       1.904  -0.174  21.697  0.00  0.00    +0.043 A 
ATOM     26  C   UNL     1       3.133   0.117  21.115  0.00  0.00    +0.005 A 
ATOM     27  C   UNL     1       3.991   0.589  23.283  0.00  0.00    +0.113 A 
ATOM     28  C   UNL     1       4.201   0.506  21.916  0.00  0.00    +0.020 A 
ENDBRANCH  15  17
ENDBRANCH  11  15
BRANCH  14  16
ATOM     16  C   UNL     1      -3.036   3.587  24.309  0.00  0.00    +0.138 C 
BRANCH  16   9
ATOM      6  O   UNL     1      -0.178   3.707  24.563  0.00  0.00    -0.270 OA
ATOM      9  N   UNL     1      -2.271   3.345  25.496  0.00  0.00    -0.309 N 
ATOM     23  C   UNL     1      -0.881   3.426  25.530  0.00  0.00    +0.244 C 
ATOM     36  H   UNL     1      -2.793   3.160  26.346  0.00  0.00    +0.149 HD
BRANCH  23  25
ATOM      1  F   UNL     1       3.090   2.601  28.211  0.00  0.00    -0.205 F 
ATOM     25  C   UNL     1      -0.236   3.120  26.832  0.00  0.00    +0.039 A 
ATOM     29  C   UNL     1       1.152   3.001  26.911  0.00  0.00    +0.051 A 
ATOM     30  C   UNL     1      -1.017   2.951  27.975  0.00  0.00    +0.013 A 
ATOM     31  C   UNL     1       1.758   2.714  28.135  0.00  0.00    +0.124 A 
ATOM     32  C   UNL     1      -0.411   2.664  29.198  0.00  0.00    +0.004 A 
ATOM     33  C   UNL     1       0.976   2.546  29.278  0.00  0.00    +0.038 A 
ENDBRANCH  23  25
ENDBRANCH  16   9
ENDBRANCH  14  16
TORSDOF 7
ENDMDL
MODEL 5
REMARK VINA RESULT:       4.0      1.314      1.952
REMARK  Name = 26744678
REMARK  7 active torsions:
REMARK  status: ('A' for Active; 'I' for Inactive)
REMARK    1  A    between atoms: O_3  and  C_12
REMARK    2  A    between atoms: O_4  and  C_13
REMARK    3  A    between atoms: N_9  and  C_16
REMARK    4  A    between atoms: C_11  and  C_15
REMARK    5  A    between atoms: C_14  and  C_16
REMARK    6  A    between atoms: C_15  and  C_17
REMARK    7  A    between atoms: C_23  and  C_25
REMARK                            x       y       z     vdW  Elec       q    Type
REMARK                         _______ _______ _______ _____ _____    ______ ____
ROOT
ATOM      2  O   UNL     1      -5.433   3.201  26.825  0.00  0.00    -0.366 OA
ATOM     11  C   UNL     1      -4.571   4.210  26.252  0.00  0.00    +0.159 C 
ATOM     12  C   UNL     1      -4.649   4.035  24.740  0.00  0.00    +0.175 C 
ATOM     13  C   UNL     1      -4.948   2.556  24.609  0.00  0.00    +0.176 C 
ATOM     14  C   UNL     1      -5.896   2.333  25.775  0.00  0.00    +0.167 C 
ENDROOT
BRANCH  12   3
ATOM      3  O   UNL     1      -5.750   4.807  24.260  0.00  0.00    -0.387 OA
ATOM     34  H   UNL     1      -5.497   5.168  23.393  0.00  0.00    +0.210 HD
ENDBRANCH  12   3
BRANCH  13   4
ATOM      4  O   UNL     1      -5.536   2.212  23.373  0.00  0.00    -0.387 OA
ATOM     35  H   UNL     1      -5.268   1.301  23.165  0.00  0.00    +0.210 HD
ENDBRANCH  13   4
BRANCH  11  15
ATOM     15  C   UNL     1      -3.170   3.995  26.806  0.00  0.00    +0.130 C 
BRANCH  15  17
ATOM      5  O   UNL     1      -2.048   5.812  25.768  0.00  0.00    -0.276 OA
ATOM      7  N   UNL     1      -1.370   3.677  25.151  0.00  0.00    -0.298 N 
ATOM      8  N   UNL     1       0.446   1.888  23.778  0.00  0.00    -0.312 N 
ATOM     10  N   UNL     1       0.850   0.086  22.307  0.00  0.00    -0.240 NA
ATOM     17  C   UNL     1      -2.148   4.587  25.867  0.00  0.00    +0.218 C 
ATOM     18  C   UNL     1      -0.361   4.172  24.216  0.00  0.00    +0.126 C 
ATOM     19  C   UNL     1      -1.482   2.222  25.277  0.00  0.00    +0.126 C 
ATOM     20  C   UNL     1       0.852   3.248  24.143  0.00  0.00    +0.125 C 
ATOM     21  C   UNL     1      -0.933   1.479  24.060  0.00  0.00    +0.125 C 
ATOM     22  C   UNL     1       1.338   1.023  23.150  0.00  0.00    +0.121 A 
ATOM     24  C   UNL     1       2.685   1.184  23.435  0.00  0.00    +0.043 A 
ATOM     26  C   UNL     1       3.589   0.329  22.815  0.00  0.00    +0.005 A 
ATOM     27  C   UNL     1       1.759  -0.728  21.722  0.00  0.00    +0.113 A 
ATOM     28  C   UNL     1       3.124  -0.648  21.942  0.00  0.00    +0.020 A 
ENDBRANCH  15  17
ENDBRANCH  11  15
BRANCH  14  16
ATOM     16  C   UNL     1      -5.915   0.897  26.269  0.00  0.00    +0.138 C 
BRANCH  16   9
ATOM      6  O   UNL     1      -5.141  -0.927  24.191  0.00  0.00    -0.270 OA
ATOM      9  N   UNL     1      -4.633   0.277  26.108  0.00  0.00    -0.309 N 
ATOM     23  C   UNL     1      -4.343  -0.599  25.066  0.00  0.00    +0.244 C 
ATOM     36  H   UNL     1      -3.909   0.546  26.766  0.00  0.00    +0.149 HD
BRANCH  23  25
ATOM      1  F   UNL     1      -1.009  -3.580  23.158  0.00  0.00    -0.205 F 
ATOM     25  C   UNL     1      -2.975  -1.178  25.055  0.00  0.00    +0.039 A 
ATOM     29  C   UNL     1      -2.627  -2.127  24.093  0.00  0.00    +0.051 A 
ATOM     30  C   UNL     1      -2.039  -0.775  26.007  0.00  0.00    +0.013 A 
ATOM     31  C   UNL     1      -1.342  -2.670  24.083  0.00  0.00    +0.124 A 
ATOM     32  C   UNL     1      -0.754  -1.318  25.996  0.00  0.00    +0.004 A 
ATOM     33  C   UNL     1      -0.406  -2.266  25.034  0.00  0.00    +0.038 A 
ENDBRANCH  23  25
ENDBRANCH  16   9
ENDBRANCH  14  16
TORSDOF 7
ENDMDL
MODEL 6
REMARK VINA RESULT:       4.8      2.359      3.853
REMARK  Name = 26744678
REMARK  7 active torsions:
REMARK  status: ('A' for Active; 'I' for Inactive)
REMARK    1  A    between atoms: O_3  and  C_12
REMARK    2  A    between atoms: O_4  and  C_13
REMARK    3  A    between atoms: N_9  and  C_16
REMARK    4  A    between atoms: C_11  and  C_15
REMARK    5  A    between atoms: C_14  and  C_16
REMARK    6  A    between atoms: C_15  and  C_17
REMARK    7  A    between atoms: C_23  and  C_25
REMARK                            x       y       z     vdW  Elec       q    Type
REMARK                         _______ _______ _______ _____ _____    ______ ____
ROOT
ATOM      2  O   UNL     1      -4.126   2.261  25.365  0.00  0.00    -0.366 OA
ATOM     11  C   UNL     1      -4.423   3.578  24.848  0.00  0.00    +0.159 C 
ATOM     12  C   UNL     1      -5.941   3.667  24.744  0.00  0.00    +0.175 C 
ATOM     13  C   UNL     1      -6.327   2.220  24.521  0.00  0.00    +0.176 C 
ATOM     14  C   UNL     1      -5.345   1.499  25.428  0.00  0.00    +0.167 C 
ENDROOT
BRANCH  12   3
ATOM      3  O   UNL     1      -6.445   4.126  26.000  0.00  0.00    -0.387 OA
ATOM     34  H   UNL     1      -7.414   4.158  25.929  0.00  0.00    +0.210 HD
ENDBRANCH  12   3
BRANCH  13   4
ATOM      4  O   UNL     1      -7.668   1.940  24.861  0.00  0.00    -0.387 OA
ATOM     35  H   UNL     1      -7.683   1.668  25.794  0.00  0.00    +0.210 HD
ENDBRANCH  13   4
BRANCH  11  15
ATOM     15  C   UNL     1      -3.723   3.720  23.503  0.00  0.00    +0.130 C 
BRANCH  15  17
ATOM      5  O   UNL     1      -2.321   2.149  22.407  0.00  0.00    -0.276 OA
ATOM      7  N   UNL     1      -1.754   2.708  24.590  0.00  0.00    -0.298 N 
ATOM      8  N   UNL     1       0.065   2.629  26.841  0.00  0.00    -0.312 N 
ATOM     10  N   UNL     1       0.503   2.246  29.130  0.00  0.00    -0.240 NA
ATOM     17  C   UNL     1      -2.539   2.787  23.439  0.00  0.00    +0.218 C 
ATOM     18  C   UNL     1      -0.592   1.823  24.609  0.00  0.00    +0.126 C 
ATOM     19  C   UNL     1      -2.009   3.475  25.812  0.00  0.00    +0.126 C 
ATOM     20  C   UNL     1       0.535   2.380  25.476  0.00  0.00    +0.125 C 
ATOM     21  C   UNL     1      -1.369   2.847  27.049  0.00  0.00    +0.125 C 
ATOM     22  C   UNL     1       0.954   2.624  27.913  0.00  0.00    +0.121 A 
ATOM     24  C   UNL     1       2.260   3.010  27.655  0.00  0.00    +0.043 A 
ATOM     26  C   UNL     1       3.160   3.009  28.715  0.00  0.00    +0.005 A 
ATOM     27  C   UNL     1       1.406   2.258  30.136  0.00  0.00    +0.113 A 
ATOM     28  C   UNL     1       2.732   2.627  29.982  0.00  0.00    +0.020 A 
ENDBRANCH  15  17
ENDBRANCH  11  15
BRANCH  14  16
ATOM     16  C   UNL     1      -5.074   0.066  25.004  0.00  0.00    +0.138 C 
BRANCH  16   9
ATOM      6  O   UNL     1      -3.817  -2.316  24.009  0.00  0.00    -0.270 OA
ATOM      9  N   UNL     1      -3.667  -0.200  24.949  0.00  0.00    -0.309 N 
ATOM     23  C   UNL     1      -3.142  -1.389  24.448  0.00  0.00    +0.244 C 
ATOM     36  H   UNL     1      -3.048   0.547  25.246  0.00  0.00    +0.149 HD
BRANCH  23  25
ATOM      1  F   UNL     1       1.267  -0.231  22.756  0.00  0.00    -0.205 F 
ATOM     25  C   UNL     1      -1.663  -1.521  24.484  0.00  0.00    +0.039 A 
ATOM     29  C   UNL     1      -0.877  -0.800  23.585  0.00  0.00    +0.051 A 
ATOM     30  C   UNL     1      -1.061  -2.366  25.416  0.00  0.00    +0.013 A 
ATOM     31  C   UNL     1       0.513  -0.924  23.619  0.00  0.00    +0.124 A 
ATOM     32  C   UNL     1       0.328  -2.489  25.450  0.00  0.00    +0.004 A 
ATOM     33  C   UNL     1       1.114  -1.769  24.551  0.00  0.00    +0.038 A 
ENDBRANCH  23  25
ENDBRANCH  16   9
ENDBRANCH  14  16
TORSDOF 7
ENDMDL
MODEL 7
REMARK VINA RESULT:       5.3      2.562      5.600
REMARK  Name = 26744678
REMARK  7 active torsions:
REMARK  status: ('A' for Active; 'I' for Inactive)
REMARK    1  A    between atoms: O_3  and  C_12
REMARK    2  A    between atoms: O_4  and  C_13
REMARK    3  A    between atoms: N_9  and  C_16
REMARK    4  A    between atoms: C_11  and  C_15
REMARK    5  A    between atoms: C_14  and  C_16
REMARK    6  A    between atoms: C_15  and  C_17
REMARK    7  A    between atoms: C_23  and  C_25
REMARK                            x       y       z     vdW  Elec       q    Type
REMARK                         _______ _______ _______ _____ _____    ______ ____
ROOT
ATOM      2  O   UNL     1      -3.114  -0.497  25.306  0.00  0.00    -0.366 OA
ATOM     11  C   UNL     1      -3.537  -1.309  24.188  0.00  0.00    +0.159 C 
ATOM     12  C   UNL     1      -2.735  -2.603  24.269  0.00  0.00    +0.175 C 
ATOM     13  C   UNL     1      -1.464  -2.144  24.953  0.00  0.00    +0.176 C 
ATOM     14  C   UNL     1      -2.005  -1.141  25.958  0.00  0.00    +0.167 C 
ENDROOT
BRANCH  12   3
ATOM      3  O   UNL     1      -3.447  -3.514  25.107  0.00  0.00    -0.387 OA
ATOM     34  H   UNL     1      -2.791  -3.979  25.654  0.00  0.00    +0.210 HD
ENDBRANCH  12   3
BRANCH  13   4
ATOM      4  O   UNL     1      -0.756  -3.193  25.578  0.00  0.00    -0.387 OA
ATOM     35  H   UNL     1       0.135  -2.863  25.783  0.00  0.00    +0.210 HD
ENDBRANCH  13   4
BRANCH  11  15
ATOM     15  C   UNL     1      -3.272  -0.521  22.913  0.00  0.00    +0.130 C 
BRANCH  15  17
ATOM      5  O   UNL     1      -3.029   1.736  23.605  0.00  0.00    -0.276 OA
ATOM      7  N   UNL     1      -1.079   0.597  23.061  0.00  0.00    -0.298 N 
ATOM      8  N   UNL     1       1.809   0.411  22.959  0.00  0.00    -0.312 N 
ATOM     10  N   UNL     1       3.810  -0.015  21.780  0.00  0.00    -0.240 NA
ATOM     17  C   UNL     1      -2.459   0.710  23.228  0.00  0.00    +0.218 C 
ATOM     18  C   UNL     1      -0.223   1.747  23.342  0.00  0.00    +0.126 C 
ATOM     19  C   UNL     1      -0.402  -0.626  22.624  0.00  0.00    +0.126 C 
ATOM     20  C   UNL     1       1.140   1.327  23.887  0.00  0.00    +0.125 C 
ATOM     21  C   UNL     1       0.979  -0.358  22.027  0.00  0.00    +0.125 C 
ATOM     22  C   UNL     1       3.197   0.303  22.942  0.00  0.00    +0.121 A 
ATOM     24  C   UNL     1       3.865   0.533  24.134  0.00  0.00    +0.043 A 
ATOM     26  C   UNL     1       5.252   0.430  24.134  0.00  0.00    +0.005 A 
ATOM     27  C   UNL     1       5.159  -0.107  21.818  0.00  0.00    +0.113 A 
ATOM     28  C   UNL     1       5.918   0.104  22.957  0.00  0.00    +0.020 A 
ENDBRANCH  15  17
ENDBRANCH  11  15
BRANCH  14  16
ATOM     16  C   UNL     1      -0.983  -0.099  26.378  0.00  0.00    +0.138 C 
BRANCH  16   9
ATOM      6  O   UNL     1       0.464   2.346  26.793  0.00  0.00    -0.270 OA
ATOM      9  N   UNL     1      -1.410   1.220  26.016  0.00  0.00    -0.309 N 
ATOM     23  C   UNL     1      -0.641   2.356  26.256  0.00  0.00    +0.244 C 
ATOM     36  H   UNL     1      -2.291   1.295  25.519  0.00  0.00    +0.149 HD
BRANCH  23  25
ATOM      1  F   UNL     1      -4.408   5.424  26.064  0.00  0.00    -0.205 F 
ATOM     25  C   UNL     1      -1.238   3.653  25.846  0.00  0.00    +0.039 A 
ATOM     29  C   UNL     1      -2.569   3.935  26.154  0.00  0.00    +0.051 A 
ATOM     30  C   UNL     1      -0.469   4.586  25.152  0.00  0.00    +0.013 A 
ATOM     31  C   UNL     1      -3.130   5.153  25.768  0.00  0.00    +0.124 A 
ATOM     32  C   UNL     1      -1.030   5.804  24.768  0.00  0.00    +0.004 A 
ATOM     33  C   UNL     1      -2.361   6.087  25.075  0.00  0.00    +0.038 A 
ENDBRANCH  23  25
ENDBRANCH  16   9
ENDBRANCH  14  16
TORSDOF 7
ENDMDL
MODEL 8
REMARK VINA RESULT:       5.5      2.217      5.189
REMARK  Name = 26744678
REMARK  7 active torsions:
REMARK  status: ('A' for Active; 'I' for Inactive)
REMARK    1  A    between atoms: O_3  and  C_12
REMARK    2  A    between atoms: O_4  and  C_13
REMARK    3  A    between atoms: N_9  and  C_16
REMARK    4  A    between atoms: C_11  and  C_15
REMARK    5  A    between atoms: C_14  and  C_16
REMARK    6  A    between atoms: C_15  and  C_17
REMARK    7  A    between atoms: C_23  and  C_25
REMARK                            x       y       z     vdW  Elec       q    Type
REMARK                         _______ _______ _______ _____ _____    ______ ____
ROOT
ATOM      2  O   UNL     1      -3.466   4.359  24.081  0.00  0.00    -0.366 OA
ATOM     11  C   UNL     1      -3.296   5.295  25.169  0.00  0.00    +0.159 C 
ATOM     12  C   UNL     1      -1.793   5.450  25.372  0.00  0.00    +0.175 C 
ATOM     13  C   UNL     1      -1.272   4.106  24.907  0.00  0.00    +0.176 C 
ATOM     14  C   UNL     1      -2.181   3.820  23.724  0.00  0.00    +0.167 C 
ENDROOT
BRANCH  12   3
ATOM      3  O   UNL     1      -1.333   6.487  24.504  0.00  0.00    -0.387 OA
ATOM     34  H   UNL     1      -0.582   6.130  23.998  0.00  0.00    +0.210 HD
ENDBRANCH  12   3
BRANCH  13   4
ATOM      4  O   UNL     1       0.090   4.132  24.538  0.00  0.00    -0.387 OA
ATOM     35  H   UNL     1       0.279   3.308  24.059  0.00  0.00    +0.210 HD
ENDBRANCH  13   4
BRANCH  11  15
ATOM     15  C   UNL     1      -4.008   4.727  26.389  0.00  0.00    +0.130 C 
BRANCH  15  17
ATOM      5  O   UNL     1      -6.282   4.352  25.820  0.00  0.00    -0.276 OA
ATOM      7  N   UNL     1      -4.866   2.512  25.728  0.00  0.00    -0.298 N 
ATOM      8  N   UNL     1      -4.327  -0.245  25.025  0.00  0.00    -0.312 N 
ATOM     10  N   UNL     1      -3.541  -2.401  25.580  0.00  0.00    -0.240 NA
ATOM     17  C   UNL     1      -5.161   3.857  25.952  0.00  0.00    +0.218 C 
ATOM     18  C   UNL     1      -5.930   1.602  25.308  0.00  0.00    +0.126 C 
ATOM     19  C   UNL     1      -3.531   1.928  25.875  0.00  0.00    +0.126 C 
ATOM     20  C   UNL     1      -5.411   0.504  24.383  0.00  0.00    +0.125 C 
ATOM     21  C   UNL     1      -3.567   0.415  26.090  0.00  0.00    +0.125 C 
ATOM     22  C   UNL     1      -4.053  -1.559  24.655  0.00  0.00    +0.121 A 
ATOM     24  C   UNL     1      -4.329  -1.919  23.345  0.00  0.00    +0.043 A 
ATOM     26  C   UNL     1      -4.062  -3.228  22.960  0.00  0.00    +0.005 A 
ATOM     27  C   UNL     1      -3.294  -3.666  25.169  0.00  0.00    +0.113 A 
ATOM     28  C   UNL     1      -3.534  -4.124  23.884  0.00  0.00    +0.020 A 
ENDBRANCH  15  17
ENDBRANCH  11  15
BRANCH  14  16
ATOM     16  C   UNL     1      -2.315   2.340  23.412  0.00  0.00    +0.138 C 
BRANCH  16   9
ATOM      6  O   UNL     1      -0.315   0.990  24.969  0.00  0.00    -0.270 OA
ATOM      9  N   UNL     1      -1.079   1.798  22.932  0.00  0.00    -0.309 N 
ATOM     23  C   UNL     1      -0.162   1.155  23.761  0.00  0.00    +0.244 C 
ATOM     36  H   UNL     1      -0.913   1.852  21.933  0.00  0.00    +0.149 HD
BRANCH  23  25
ATOM      1  F   UNL     1       4.682   1.164  23.343  0.00  0.00    -0.205 F 
ATOM     25  C   UNL     1       1.084   0.673  23.114  0.00  0.00    +0.039 A 
ATOM     29  C   UNL     1       2.322   1.155  23.540  0.00  0.00    +0.051 A 
ATOM     30  C   UNL     1       1.017  -0.260  22.079  0.00  0.00    +0.013 A 
ATOM     31  C   UNL     1       3.493   0.702  22.932  0.00  0.00    +0.124 A 
ATOM     32  C   UNL     1       2.189  -0.713  21.472  0.00  0.00    +0.004 A 
ATOM     33  C   UNL     1       3.426  -0.232  21.898  0.00  0.00    +0.038 A 
ENDBRANCH  23  25
ENDBRANCH  16   9
ENDBRANCH  14  16
TORSDOF 7
ENDMDL
