MODEL 1
REMARK VINA RESULT:      -2.7      0.000      0.000
REMARK  Name = 45783417
REMARK  11 active torsions:
REMARK  status: ('A' for Active; 'I' for Inactive)
REMARK    1  A    between atoms: O_2  and  C_19
REMARK    2  A    between atoms: O_2  and  C_23
REMARK    3  A    between atoms: O_3  and  C_24
REMARK    4  A    between atoms: O_3  and  C_25
REMARK    5  A    between atoms: N_4  and  C_12
REMARK    6  A    between atoms: C_8  and  C_14
REMARK    7  A    between atoms: C_12  and  C_13
REMARK    8  A    between atoms: C_13  and  C_15
REMARK    9  A    between atoms: C_13  and  C_16
REMARK   10  A    between atoms: C_17  and  C_18
REMARK   11  A    between atoms: C_23  and  C_24
REMARK                            x       y       z     vdW  Elec       q    Type
REMARK                         _______ _______ _______ _____ _____    ______ ____
ROOT
ATOM      1  O   UNL     1      -0.689   3.000  26.004  0.00  0.00    -0.336 OA
ATOM      5  N   UNL     1      -0.811   2.467  23.833  0.00  0.00    -0.190 NA
ATOM      6  N   UNL     1       0.462   2.255  25.721  0.00  0.00    -0.056 NA
ATOM     14  C   UNL     1      -1.383   3.078  24.839  0.00  0.00    +0.245 A 
ATOM     17  C   UNL     1       0.318   1.978  24.422  0.00  0.00    +0.207 A 
ENDROOT
BRANCH  17  18
ATOM      7  N   UNL     1       1.928  -0.862  22.624  0.00  0.00    -0.221 NA
ATOM     18  C   UNL     1       1.282   1.212  23.685  0.00  0.00    +0.084 A 
ATOM     19  C   UNL     1       1.050  -0.104  23.317  0.00  0.00    +0.226 A 
ATOM     20  C   UNL     1       2.493   1.787  23.314  0.00  0.00    +0.018 A 
ATOM     21  C   UNL     1       3.421   1.040  22.599  0.00  0.00    +0.021 A 
ATOM     22  C   UNL     1       3.093  -0.269  22.281  0.00  0.00    +0.114 A 
BRANCH  19   2
ATOM      2  O   UNL     1      -0.129  -0.715  23.661  0.00  0.00    -0.474 OA
BRANCH   2  23
ATOM     23  C   UNL     1      -0.127  -1.477  24.862  0.00  0.00    +0.258 C 
BRANCH  23  24
ATOM     24  C   UNL     1      -1.552  -1.856  25.211  0.00  0.00    +0.200 C 
BRANCH  24   3
ATOM      3  O   UNL     1      -2.059  -2.730  24.210  0.00  0.00    -0.380 OA
ATOM     25  C   UNL     1      -3.424  -3.051  24.440  0.00  0.00    +0.194 C 
ENDBRANCH  24   3
ENDBRANCH  23  24
ENDBRANCH   2  23
ENDBRANCH  19   2
ENDBRANCH  17  18
BRANCH  14   8
ATOM      4  N   UNL     1      -3.853   2.974  25.126  0.00  0.00    -0.291 NA
ATOM      8  C   UNL     1      -2.687   3.847  24.880  0.00  0.00    +0.146 C 
ATOM      9  C   UNL     1      -2.729   4.886  26.015  0.00  0.00    +0.030 C 
ATOM     10  C   UNL     1      -4.844   3.796  25.821  0.00  0.00    +0.085 C 
ATOM     11  C   UNL     1      -3.984   4.556  26.810  0.00  0.00    +0.017 C 
BRANCH   4  12
ATOM     12  C   UNL     1      -4.391   2.376  23.912  0.00  0.00    +0.088 C 
BRANCH  12  13
ATOM     13  C   UNL     1      -4.437   0.840  23.982  0.00  0.00    -0.003 C 
ATOM     15  C   UNL     1      -3.323   0.250  23.114  0.00  0.00    +0.008 C 
ATOM     16  C   UNL     1      -4.307   0.313  25.413  0.00  0.00    +0.008 C 
ENDBRANCH  12  13
ENDBRANCH   4  12
ENDBRANCH  14   8
TORSDOF 8
ENDMDL
MODEL 2
REMARK VINA RESULT:      -2.0      1.999      4.510
REMARK  Name = 45783417
REMARK  11 active torsions:
REMARK  status: ('A' for Active; 'I' for Inactive)
REMARK    1  A    between atoms: O_2  and  C_19
REMARK    2  A    between atoms: O_2  and  C_23
REMARK    3  A    between atoms: O_3  and  C_24
REMARK    4  A    between atoms: O_3  and  C_25
REMARK    5  A    between atoms: N_4  and  C_12
REMARK    6  A    between atoms: C_8  and  C_14
REMARK    7  A    between atoms: C_12  and  C_13
REMARK    8  A    between atoms: C_13  and  C_15
REMARK    9  A    between atoms: C_13  and  C_16
REMARK   10  A    between atoms: C_17  and  C_18
REMARK   11  A    between atoms: C_23  and  C_24
REMARK                            x       y       z     vdW  Elec       q    Type
REMARK                         _______ _______ _______ _____ _____    ______ ____
ROOT
ATOM      1  O   UNL     1      -2.856   2.293  22.595  0.00  0.00    -0.336 OA
ATOM      5  N   UNL     1      -3.036   1.438  24.657  0.00  0.00    -0.190 NA
ATOM      6  N   UNL     1      -2.894   0.902  22.438  0.00  0.00    -0.056 NA
ATOM     14  C   UNL     1      -2.945   2.523  23.931  0.00  0.00    +0.245 A 
ATOM     17  C   UNL     1      -3.001   0.469  23.697  0.00  0.00    +0.207 A 
ENDROOT
BRANCH  17  18
ATOM      7  N   UNL     1      -2.047  -2.897  24.980  0.00  0.00    -0.221 NA
ATOM     18  C   UNL     1      -3.072  -0.924  24.030  0.00  0.00    +0.084 A 
ATOM     19  C   UNL     1      -2.024  -1.587  24.649  0.00  0.00    +0.226 A 
ATOM     20  C   UNL     1      -4.218  -1.654  23.734  0.00  0.00    +0.018 A 
ATOM     21  C   UNL     1      -4.281  -3.004  24.060  0.00  0.00    +0.021 A 
ATOM     22  C   UNL     1      -3.177  -3.573  24.677  0.00  0.00    +0.114 A 
BRANCH  19   2
ATOM      2  O   UNL     1      -0.872  -0.910  24.960  0.00  0.00    -0.474 OA
BRANCH   2  23
ATOM     23  C   UNL     1       0.243  -1.119  24.101  0.00  0.00    +0.258 C 
BRANCH  23  24
ATOM     24  C   UNL     1       0.577   0.181  23.399  0.00  0.00    +0.200 C 
BRANCH  24   3
ATOM      3  O   UNL     1       1.468  -0.087  22.323  0.00  0.00    -0.380 OA
ATOM     25  C   UNL     1       2.795   0.314  22.632  0.00  0.00    +0.194 C 
ENDBRANCH  24   3
ENDBRANCH  23  24
ENDBRANCH   2  23
ENDBRANCH  19   2
ENDBRANCH  17  18
BRANCH  14   8
ATOM      4  N   UNL     1      -2.814   4.122  25.835  0.00  0.00    -0.291 NA
ATOM      8  C   UNL     1      -2.927   3.973  24.370  0.00  0.00    +0.146 C 
ATOM      9  C   UNL     1      -1.725   4.751  23.804  0.00  0.00    +0.030 C 
ATOM     10  C   UNL     1      -2.123   5.390  26.070  0.00  0.00    +0.085 C 
ATOM     11  C   UNL     1      -1.032   5.351  25.018  0.00  0.00    +0.017 C 
BRANCH   4  12
ATOM     12  C   UNL     1      -4.099   4.063  26.519  0.00  0.00    +0.088 C 
BRANCH  12  13
ATOM     13  C   UNL     1      -5.266   3.788  25.556  0.00  0.00    -0.003 C 
ATOM     15  C   UNL     1      -5.988   2.504  25.973  0.00  0.00    +0.008 C 
ATOM     16  C   UNL     1      -6.267   4.944  25.499  0.00  0.00    +0.008 C 
ENDBRANCH  12  13
ENDBRANCH   4  12
ENDBRANCH  14   8
TORSDOF 8
ENDMDL
MODEL 3
REMARK VINA RESULT:      -1.7      1.439      2.685
REMARK  Name = 45783417
REMARK  11 active torsions:
REMARK  status: ('A' for Active; 'I' for Inactive)
REMARK    1  A    between atoms: O_2  and  C_19
REMARK    2  A    between atoms: O_2  and  C_23
REMARK    3  A    between atoms: O_3  and  C_24
REMARK    4  A    between atoms: O_3  and  C_25
REMARK    5  A    between atoms: N_4  and  C_12
REMARK    6  A    between atoms: C_8  and  C_14
REMARK    7  A    between atoms: C_12  and  C_13
REMARK    8  A    between atoms: C_13  and  C_15
REMARK    9  A    between atoms: C_13  and  C_16
REMARK   10  A    between atoms: C_17  and  C_18
REMARK   11  A    between atoms: C_23  and  C_24
REMARK                            x       y       z     vdW  Elec       q    Type
REMARK                         _______ _______ _______ _____ _____    ______ ____
ROOT
ATOM      1  O   UNL     1      -2.894   1.876  23.261  0.00  0.00    -0.336 OA
ATOM      5  N   UNL     1      -1.437   1.291  24.857  0.00  0.00    -0.190 NA
ATOM      6  N   UNL     1      -1.706   1.540  22.599  0.00  0.00    -0.056 NA
ATOM     14  C   UNL     1      -2.649   1.702  24.586  0.00  0.00    +0.245 A 
ATOM     17  C   UNL     1      -0.896   1.206  23.607  0.00  0.00    +0.207 A 
ENDROOT
BRANCH  17  18
ATOM      7  N   UNL     1       2.071  -0.992  23.105  0.00  0.00    -0.221 NA
ATOM     18  C   UNL     1       0.460   0.786  23.400  0.00  0.00    +0.084 A 
ATOM     19  C   UNL     1       0.809  -0.552  23.299  0.00  0.00    +0.226 A 
ATOM     20  C   UNL     1       1.474   1.732  23.293  0.00  0.00    +0.018 A 
ATOM     21  C   UNL     1       2.786   1.318  23.091  0.00  0.00    +0.021 A 
ATOM     22  C   UNL     1       3.029  -0.044  23.004  0.00  0.00    +0.114 A 
BRANCH  19   2
ATOM      2  O   UNL     1      -0.156  -1.521  23.400  0.00  0.00    -0.474 OA
BRANCH   2  23
ATOM     23  C   UNL     1      -0.585  -1.862  24.713  0.00  0.00    +0.258 C 
BRANCH  23  24
ATOM     24  C   UNL     1      -1.931  -2.553  24.631  0.00  0.00    +0.200 C 
BRANCH  24   3
ATOM      3  O   UNL     1      -2.922  -1.600  24.273  0.00  0.00    -0.380 OA
ATOM     25  C   UNL     1      -4.144  -2.228  23.910  0.00  0.00    +0.194 C 
ENDBRANCH  24   3
ENDBRANCH  23  24
ENDBRANCH   2  23
ENDBRANCH  19   2
ENDBRANCH  17  18
BRANCH  14   8
ATOM      4  N   UNL     1      -4.278   3.394  25.413  0.00  0.00    -0.291 NA
ATOM      8  C   UNL     1      -3.795   2.002  25.529  0.00  0.00    +0.146 C 
ATOM      9  C   UNL     1      -5.036   1.133  25.254  0.00  0.00    +0.030 C 
ATOM     10  C   UNL     1      -5.697   3.369  25.766  0.00  0.00    +0.085 C 
ATOM     11  C   UNL     1      -6.177   2.120  25.054  0.00  0.00    +0.017 C 
BRANCH   4  12
ATOM     12  C   UNL     1      -3.524   4.333  26.232  0.00  0.00    +0.088 C 
BRANCH  12  13
ATOM     13  C   UNL     1      -2.574   5.210  25.398  0.00  0.00    -0.003 C 
ATOM     15  C   UNL     1      -1.166   4.611  25.420  0.00  0.00    +0.008 C 
ATOM     16  C   UNL     1      -3.042   5.372  23.950  0.00  0.00    +0.008 C 
ENDBRANCH  12  13
ENDBRANCH   4  12
ENDBRANCH  14   8
TORSDOF 8
ENDMDL
MODEL 4
REMARK VINA RESULT:      -1.6      1.775      6.817
REMARK  Name = 45783417
REMARK  11 active torsions:
REMARK  status: ('A' for Active; 'I' for Inactive)
REMARK    1  A    between atoms: O_2  and  C_19
REMARK    2  A    between atoms: O_2  and  C_23
REMARK    3  A    between atoms: O_3  and  C_24
REMARK    4  A    between atoms: O_3  and  C_25
REMARK    5  A    between atoms: N_4  and  C_12
REMARK    6  A    between atoms: C_8  and  C_14
REMARK    7  A    between atoms: C_12  and  C_13
REMARK    8  A    between atoms: C_13  and  C_15
REMARK    9  A    between atoms: C_13  and  C_16
REMARK   10  A    between atoms: C_17  and  C_18
REMARK   11  A    between atoms: C_23  and  C_24
REMARK                            x       y       z     vdW  Elec       q    Type
REMARK                         _______ _______ _______ _____ _____    ______ ____
ROOT
ATOM      1  O   UNL     1      -3.713  -1.239  23.940  0.00  0.00    -0.336 OA
ATOM      5  N   UNL     1      -2.712   0.657  24.585  0.00  0.00    -0.190 NA
ATOM      6  N   UNL     1      -4.742  -0.329  24.216  0.00  0.00    -0.056 NA
ATOM     14  C   UNL     1      -2.551  -0.578  24.183  0.00  0.00    +0.245 A 
ATOM     17  C   UNL     1      -4.072   0.764  24.589  0.00  0.00    +0.207 A 
ENDROOT
BRANCH  17  18
ATOM      7  N   UNL     1      -4.761   4.394  25.078  0.00  0.00    -0.221 NA
ATOM     18  C   UNL     1      -4.731   1.978  24.975  0.00  0.00    +0.084 A 
ATOM     19  C   UNL     1      -4.177   3.226  24.732  0.00  0.00    +0.226 A 
ATOM     20  C   UNL     1      -5.965   1.929  25.613  0.00  0.00    +0.018 A 
ATOM     21  C   UNL     1      -6.599   3.109  25.984  0.00  0.00    +0.021 A 
ATOM     22  C   UNL     1      -5.960   4.306  25.696  0.00  0.00    +0.114 A 
BRANCH  19   2
ATOM      2  O   UNL     1      -2.960   3.326  24.106  0.00  0.00    -0.474 OA
BRANCH   2  23
ATOM     23  C   UNL     1      -2.083   4.344  24.575  0.00  0.00    +0.258 C 
BRANCH  23  24
ATOM     24  C   UNL     1      -0.768   3.713  24.987  0.00  0.00    +0.200 C 
BRANCH  24   3
ATOM      3  O   UNL     1      -0.945   3.034  26.224  0.00  0.00    -0.380 OA
ATOM     25  C   UNL     1       0.234   2.343  26.613  0.00  0.00    +0.194 C 
ENDBRANCH  24   3
ENDBRANCH  23  24
ENDBRANCH   2  23
ENDBRANCH  19   2
ENDBRANCH  17  18
BRANCH  14   8
ATOM      4  N   UNL     1      -0.077  -0.641  24.450  0.00  0.00    -0.291 NA
ATOM      8  C   UNL     1      -1.272  -1.355  23.955  0.00  0.00    +0.146 C 
ATOM      9  C   UNL     1      -1.256  -2.705  24.696  0.00  0.00    +0.030 C 
ATOM     10  C   UNL     1       0.892  -1.669  24.829  0.00  0.00    +0.085 C 
ATOM     11  C   UNL     1       0.013  -2.683  25.535  0.00  0.00    +0.017 C 
BRANCH   4  12
ATOM     12  C   UNL     1       0.472   0.300  23.483  0.00  0.00    +0.088 C 
BRANCH  12  13
ATOM     13  C   UNL     1       1.714  -0.252  22.764  0.00  0.00    -0.003 C 
ATOM     15  C   UNL     1       1.374  -0.551  21.302  0.00  0.00    +0.008 C 
ATOM     16  C   UNL     1       2.906   0.706  22.829  0.00  0.00    +0.008 C 
ENDBRANCH  12  13
ENDBRANCH   4  12
ENDBRANCH  14   8
TORSDOF 8
ENDMDL
MODEL 5
REMARK VINA RESULT:      -1.5      1.870      6.591
REMARK  Name = 45783417
REMARK  11 active torsions:
REMARK  status: ('A' for Active; 'I' for Inactive)
REMARK    1  A    between atoms: O_2  and  C_19
REMARK    2  A    between atoms: O_2  and  C_23
REMARK    3  A    between atoms: O_3  and  C_24
REMARK    4  A    between atoms: O_3  and  C_25
REMARK    5  A    between atoms: N_4  and  C_12
REMARK    6  A    between atoms: C_8  and  C_14
REMARK    7  A    between atoms: C_12  and  C_13
REMARK    8  A    between atoms: C_13  and  C_15
REMARK    9  A    between atoms: C_13  and  C_16
REMARK   10  A    between atoms: C_17  and  C_18
REMARK   11  A    between atoms: C_23  and  C_24
REMARK                            x       y       z     vdW  Elec       q    Type
REMARK                         _______ _______ _______ _____ _____    ______ ____
ROOT
ATOM      1  O   UNL     1      -1.557   1.516  22.759  0.00  0.00    -0.336 OA
ATOM      5  N   UNL     1      -2.131   1.321  24.915  0.00  0.00    -0.190 NA
ATOM      6  N   UNL     1      -2.847   2.050  22.868  0.00  0.00    -0.056 NA
ATOM     14  C   UNL     1      -1.211   1.110  24.009  0.00  0.00    +0.245 A 
ATOM     17  C   UNL     1      -3.116   1.900  24.168  0.00  0.00    +0.207 A 
ENDROOT
BRANCH  17  18
ATOM      7  N   UNL     1      -5.756   4.065  25.661  0.00  0.00    -0.221 NA
ATOM     18  C   UNL     1      -4.359   2.314  24.751  0.00  0.00    +0.084 A 
ATOM     19  C   UNL     1      -4.602   3.631  25.109  0.00  0.00    +0.226 A 
ATOM     20  C   UNL     1      -5.369   1.384  24.973  0.00  0.00    +0.018 A 
ATOM     21  C   UNL     1      -6.572   1.792  25.537  0.00  0.00    +0.021 A 
ATOM     22  C   UNL     1      -6.714   3.132  25.860  0.00  0.00    +0.114 A 
BRANCH  19   2
ATOM      2  O   UNL     1      -3.636   4.584  24.911  0.00  0.00    -0.474 OA
BRANCH   2  23
ATOM     23  C   UNL     1      -2.524   4.561  25.799  0.00  0.00    +0.258 C 
BRANCH  23  24
ATOM     24  C   UNL     1      -1.325   5.175  25.105  0.00  0.00    +0.200 C 
BRANCH  24   3
ATOM      3  O   UNL     1      -0.327   4.177  24.930  0.00  0.00    -0.380 OA
ATOM     25  C   UNL     1      -0.151   3.402  26.107  0.00  0.00    +0.194 C 
ENDBRANCH  24   3
ENDBRANCH  23  24
ENDBRANCH   2  23
ENDBRANCH  19   2
ENDBRANCH  17  18
BRANCH  14   8
ATOM      4  N   UNL     1       0.141  -0.980  24.002  0.00  0.00    -0.291 NA
ATOM      8  C   UNL     1       0.162   0.489  24.161  0.00  0.00    +0.146 C 
ATOM      9  C   UNL     1       1.160   0.984  23.098  0.00  0.00    +0.030 C 
ATOM     10  C   UNL     1       1.452  -1.356  23.473  0.00  0.00    +0.085 C 
ATOM     11  C   UNL     1       1.693  -0.278  22.436  0.00  0.00    +0.017 C 
BRANCH   4  12
ATOM     12  C   UNL     1      -0.176  -1.687  25.236  0.00  0.00    +0.088 C 
BRANCH  12  13
ATOM     13  C   UNL     1      -1.566  -2.345  25.196  0.00  0.00    -0.003 C 
ATOM     15  C   UNL     1      -2.559  -1.503  26.001  0.00  0.00    +0.008 C 
ATOM     16  C   UNL     1      -2.088  -2.530  23.769  0.00  0.00    +0.008 C 
ENDBRANCH  12  13
ENDBRANCH   4  12
ENDBRANCH  14   8
TORSDOF 8
ENDMDL
MODEL 6
REMARK VINA RESULT:      -1.5      2.011      4.751
REMARK  Name = 45783417
REMARK  11 active torsions:
REMARK  status: ('A' for Active; 'I' for Inactive)
REMARK    1  A    between atoms: O_2  and  C_19
REMARK    2  A    between atoms: O_2  and  C_23
REMARK    3  A    between atoms: O_3  and  C_24
REMARK    4  A    between atoms: O_3  and  C_25
REMARK    5  A    between atoms: N_4  and  C_12
REMARK    6  A    between atoms: C_8  and  C_14
REMARK    7  A    between atoms: C_12  and  C_13
REMARK    8  A    between atoms: C_13  and  C_15
REMARK    9  A    between atoms: C_13  and  C_16
REMARK   10  A    between atoms: C_17  and  C_18
REMARK   11  A    between atoms: C_23  and  C_24
REMARK                            x       y       z     vdW  Elec       q    Type
REMARK                         _______ _______ _______ _____ _____    ______ ____
ROOT
ATOM      1  O   UNL     1      -5.370   1.920  25.110  0.00  0.00    -0.336 OA
ATOM      5  N   UNL     1      -3.224   1.345  24.827  0.00  0.00    -0.190 NA
ATOM      6  N   UNL     1      -5.364   0.539  24.879  0.00  0.00    -0.056 NA
ATOM     14  C   UNL     1      -4.071   2.315  25.062  0.00  0.00    +0.245 A 
ATOM     17  C   UNL     1      -4.064   0.275  24.722  0.00  0.00    +0.207 A 
ENDROOT
BRANCH  17  18
ATOM      7  N   UNL     1      -1.716  -2.587  24.298  0.00  0.00    -0.221 NA
ATOM     18  C   UNL     1      -3.571  -1.046  24.457  0.00  0.00    +0.084 A 
ATOM     19  C   UNL     1      -2.224  -1.359  24.540  0.00  0.00    +0.226 A 
ATOM     20  C   UNL     1      -4.454  -2.061  24.105  0.00  0.00    +0.018 A 
ATOM     21  C   UNL     1      -3.970  -3.339  23.850  0.00  0.00    +0.021 A 
ATOM     22  C   UNL     1      -2.604  -3.548  23.960  0.00  0.00    +0.114 A 
BRANCH  19   2
ATOM      2  O   UNL     1      -1.314  -0.391  24.882  0.00  0.00    -0.474 OA
BRANCH   2  23
ATOM     23  C   UNL     1       0.016  -0.570  24.410  0.00  0.00    +0.258 C 
BRANCH  23  24
ATOM     24  C   UNL     1       0.192   0.208  23.122  0.00  0.00    +0.200 C 
BRANCH  24   3
ATOM      3  O   UNL     1       1.255  -0.367  22.372  0.00  0.00    -0.380 OA
ATOM     25  C   UNL     1       2.508   0.208  22.717  0.00  0.00    +0.194 C 
ENDBRANCH  24   3
ENDBRANCH  23  24
ENDBRANCH   2  23
ENDBRANCH  19   2
ENDBRANCH  17  18
BRANCH  14   8
ATOM      4  N   UNL     1      -2.400   4.161  25.015  0.00  0.00    -0.291 NA
ATOM      8  C   UNL     1      -3.804   3.789  25.286  0.00  0.00    +0.146 C 
ATOM      9  C   UNL     1      -4.635   4.692  24.355  0.00  0.00    +0.030 C 
ATOM     10  C   UNL     1      -2.420   5.556  24.575  0.00  0.00    +0.085 C 
ATOM     11  C   UNL     1      -3.618   5.576  23.648  0.00  0.00    +0.017 C 
BRANCH   4  12
ATOM     12  C   UNL     1      -1.521   3.958  26.159  0.00  0.00    +0.088 C 
BRANCH  12  13
ATOM     13  C   UNL     1      -0.132   3.440  25.749  0.00  0.00    -0.003 C 
ATOM     15  C   UNL     1       0.241   2.229  26.608  0.00  0.00    +0.008 C 
ATOM     16  C   UNL     1      -0.060   3.061  24.268  0.00  0.00    +0.008 C 
ENDBRANCH  12  13
ENDBRANCH   4  12
ENDBRANCH  14   8
TORSDOF 8
ENDMDL
MODEL 7
REMARK VINA RESULT:      -1.4      1.198      1.475
REMARK  Name = 45783417
REMARK  11 active torsions:
REMARK  status: ('A' for Active; 'I' for Inactive)
REMARK    1  A    between atoms: O_2  and  C_19
REMARK    2  A    between atoms: O_2  and  C_23
REMARK    3  A    between atoms: O_3  and  C_24
REMARK    4  A    between atoms: O_3  and  C_25
REMARK    5  A    between atoms: N_4  and  C_12
REMARK    6  A    between atoms: C_8  and  C_14
REMARK    7  A    between atoms: C_12  and  C_13
REMARK    8  A    between atoms: C_13  and  C_15
REMARK    9  A    between atoms: C_13  and  C_16
REMARK   10  A    between atoms: C_17  and  C_18
REMARK   11  A    between atoms: C_23  and  C_24
REMARK                            x       y       z     vdW  Elec       q    Type
REMARK                         _______ _______ _______ _____ _____    ______ ____
ROOT
ATOM      1  O   UNL     1      -2.276   1.810  22.980  0.00  0.00    -0.336 OA
ATOM      5  N   UNL     1      -0.477   2.409  24.170  0.00  0.00    -0.190 NA
ATOM      6  N   UNL     1      -1.250   0.935  22.602  0.00  0.00    -0.056 NA
ATOM     14  C   UNL     1      -1.736   2.645  23.906  0.00  0.00    +0.245 A 
ATOM     17  C   UNL     1      -0.223   1.351  23.347  0.00  0.00    +0.207 A 
ENDROOT
BRANCH  17  18
ATOM      7  N   UNL     1       2.450  -1.243  23.481  0.00  0.00    -0.221 NA
ATOM     18  C   UNL     1       1.071   0.734  23.290  0.00  0.00    +0.084 A 
ATOM     19  C   UNL     1       1.251  -0.620  23.524  0.00  0.00    +0.226 A 
ATOM     20  C   UNL     1       2.195   1.497  22.991  0.00  0.00    +0.018 A 
ATOM     21  C   UNL     1       3.445   0.893  22.936  0.00  0.00    +0.021 A 
ATOM     22  C   UNL     1       3.518  -0.469  23.187  0.00  0.00    +0.114 A 
BRANCH  19   2
ATOM      2  O   UNL     1       0.174  -1.414  23.823  0.00  0.00    -0.474 OA
BRANCH   2  23
ATOM     23  C   UNL     1      -0.248  -1.432  25.182  0.00  0.00    +0.258 C 
BRANCH  23  24
ATOM     24  C   UNL     1      -1.752  -1.606  25.231  0.00  0.00    +0.200 C 
BRANCH  24   3
ATOM      3  O   UNL     1      -2.144  -2.551  24.243  0.00  0.00    -0.380 OA
ATOM     25  C   UNL     1      -3.514  -2.902  24.370  0.00  0.00    +0.194 C 
ENDBRANCH  24   3
ENDBRANCH  23  24
ENDBRANCH   2  23
ENDBRANCH  19   2
ENDBRANCH  17  18
BRANCH  14   8
ATOM      4  N   UNL     1      -3.779   3.120  25.247  0.00  0.00    -0.291 NA
ATOM      8  C   UNL     1      -2.657   3.700  24.481  0.00  0.00    +0.146 C 
ATOM      9  C   UNL     1      -1.943   4.632  25.479  0.00  0.00    +0.030 C 
ATOM     10  C   UNL     1      -4.132   4.102  26.272  0.00  0.00    +0.085 C 
ATOM     11  C   UNL     1      -2.769   4.556  26.754  0.00  0.00    +0.017 C 
BRANCH   4  12
ATOM     12  C   UNL     1      -4.919   2.762  24.414  0.00  0.00    +0.088 C 
BRANCH  12  13
ATOM     13  C   UNL     1      -5.619   1.479  24.894  0.00  0.00    -0.003 C 
ATOM     15  C   UNL     1      -4.581   0.377  25.119  0.00  0.00    +0.008 C 
ATOM     16  C   UNL     1      -6.425   1.695  26.177  0.00  0.00    +0.008 C 
ENDBRANCH  12  13
ENDBRANCH   4  12
ENDBRANCH  14   8
TORSDOF 8
ENDMDL
MODEL 8
REMARK VINA RESULT:      -1.3      1.726      4.488
REMARK  Name = 45783417
REMARK  11 active torsions:
REMARK  status: ('A' for Active; 'I' for Inactive)
REMARK    1  A    between atoms: O_2  and  C_19
REMARK    2  A    between atoms: O_2  and  C_23
REMARK    3  A    between atoms: O_3  and  C_24
REMARK    4  A    between atoms: O_3  and  C_25
REMARK    5  A    between atoms: N_4  and  C_12
REMARK    6  A    between atoms: C_8  and  C_14
REMARK    7  A    between atoms: C_12  and  C_13
REMARK    8  A    between atoms: C_13  and  C_15
REMARK    9  A    between atoms: C_13  and  C_16
REMARK   10  A    between atoms: C_17  and  C_18
REMARK   11  A    between atoms: C_23  and  C_24
REMARK                            x       y       z     vdW  Elec       q    Type
REMARK                         _______ _______ _______ _____ _____    ______ ____
ROOT
ATOM      1  O   UNL     1      -0.861  -2.217  25.370  0.00  0.00    -0.336 OA
ATOM      5  N   UNL     1      -1.075  -0.391  24.091  0.00  0.00    -0.190 NA
ATOM      6  N   UNL     1       0.438  -1.843  25.004  0.00  0.00    -0.056 NA
ATOM     14  C   UNL     1      -1.691  -1.310  24.790  0.00  0.00    +0.245 A 
ATOM     17  C   UNL     1       0.228  -0.758  24.252  0.00  0.00    +0.207 A 
ENDROOT
BRANCH  17  18
ATOM      7  N   UNL     1       2.483   2.062  23.333  0.00  0.00    -0.221 NA
ATOM     18  C   UNL     1       1.299  -0.023  23.645  0.00  0.00    +0.084 A 
ATOM     19  C   UNL     1       1.490   1.330  23.882  0.00  0.00    +0.226 A 
ATOM     20  C   UNL     1       2.188  -0.663  22.789  0.00  0.00    +0.018 A 
ATOM     21  C   UNL     1       3.225   0.055  22.205  0.00  0.00    +0.021 A 
ATOM     22  C   UNL     1       3.328   1.405  22.507  0.00  0.00    +0.114 A 
BRANCH  19   2
ATOM      2  O   UNL     1       0.639   2.006  24.718  0.00  0.00    -0.474 OA
BRANCH   2  23
ATOM     23  C   UNL     1      -0.287   2.895  24.104  0.00  0.00    +0.258 C 
BRANCH  23  24
ATOM     24  C   UNL     1      -0.348   4.179  24.907  0.00  0.00    +0.200 C 
BRANCH  24   3
ATOM      3  O   UNL     1      -1.697   4.623  24.972  0.00  0.00    -0.380 OA
ATOM     25  C   UNL     1      -2.371   4.081  26.099  0.00  0.00    +0.194 C 
ENDBRANCH  24   3
ENDBRANCH  23  24
ENDBRANCH   2  23
ENDBRANCH  19   2
ENDBRANCH  17  18
BRANCH  14   8
ATOM      4  N   UNL     1      -3.992  -0.438  24.411  0.00  0.00    -0.291 NA
ATOM      8  C   UNL     1      -3.173  -1.496  25.038  0.00  0.00    +0.146 C 
ATOM      9  C   UNL     1      -3.715  -2.811  24.448  0.00  0.00    +0.030 C 
ATOM     10  C   UNL     1      -5.285  -1.046  24.098  0.00  0.00    +0.085 C 
ATOM     11  C   UNL     1      -4.871  -2.397  23.550  0.00  0.00    +0.017 C 
BRANCH   4  12
ATOM     12  C   UNL     1      -4.130   0.750  25.243  0.00  0.00    +0.088 C 
BRANCH  12  13
ATOM     13  C   UNL     1      -5.023   1.822  24.595  0.00  0.00    -0.003 C 
ATOM     15  C   UNL     1      -5.691   2.665  25.684  0.00  0.00    +0.008 C 
ATOM     16  C   UNL     1      -4.249   2.734  23.641  0.00  0.00    +0.008 C 
ENDBRANCH  12  13
ENDBRANCH   4  12
ENDBRANCH  14   8
TORSDOF 8
ENDMDL
MODEL 9
REMARK VINA RESULT:      -0.6      1.594      5.769
REMARK  Name = 45783417
REMARK  11 active torsions:
REMARK  status: ('A' for Active; 'I' for Inactive)
REMARK    1  A    between atoms: O_2  and  C_19
REMARK    2  A    between atoms: O_2  and  C_23
REMARK    3  A    between atoms: O_3  and  C_24
REMARK    4  A    between atoms: O_3  and  C_25
REMARK    5  A    between atoms: N_4  and  C_12
REMARK    6  A    between atoms: C_8  and  C_14
REMARK    7  A    between atoms: C_12  and  C_13
REMARK    8  A    between atoms: C_13  and  C_15
REMARK    9  A    between atoms: C_13  and  C_16
REMARK   10  A    between atoms: C_17  and  C_18
REMARK   11  A    between atoms: C_23  and  C_24
REMARK                            x       y       z     vdW  Elec       q    Type
REMARK                         _______ _______ _______ _____ _____    ______ ____
ROOT
ATOM      1  O   UNL     1      -0.113   3.158  24.427  0.00  0.00    -0.336 OA
ATOM      5  N   UNL     1      -1.720   1.627  24.720  0.00  0.00    -0.190 NA
ATOM      6  N   UNL     1      -1.293   3.873  24.666  0.00  0.00    -0.056 NA
ATOM     14  C   UNL     1      -0.453   1.844  24.476  0.00  0.00    +0.245 A 
ATOM     17  C   UNL     1      -2.195   2.901  24.830  0.00  0.00    +0.207 A 
ENDROOT
BRANCH  17  18
ATOM      7  N   UNL     1      -5.799   2.362  25.610  0.00  0.00    -0.221 NA
ATOM     18  C   UNL     1      -3.578   3.170  25.100  0.00  0.00    +0.084 A 
ATOM     19  C   UNL     1      -4.489   2.156  25.351  0.00  0.00    +0.226 A 
ATOM     20  C   UNL     1      -4.043   4.480  25.116  0.00  0.00    +0.018 A 
ATOM     21  C   UNL     1      -5.384   4.734  25.380  0.00  0.00    +0.021 A 
ATOM     22  C   UNL     1      -6.214   3.649  25.618  0.00  0.00    +0.114 A 
BRANCH  19   2
ATOM      2  O   UNL     1      -4.078   0.848  25.345  0.00  0.00    -0.474 OA
BRANCH   2  23
ATOM     23  C   UNL     1      -4.888  -0.072  24.621  0.00  0.00    +0.258 C 
BRANCH  23  24
ATOM     24  C   UNL     1      -4.016  -0.839  23.647  0.00  0.00    +0.200 C 
BRANCH  24   3
ATOM      3  O   UNL     1      -4.424  -2.200  23.629  0.00  0.00    -0.380 OA
ATOM     25  C   UNL     1      -3.651  -2.989  24.522  0.00  0.00    +0.194 C 
ENDBRANCH  24   3
ENDBRANCH  23  24
ENDBRANCH   2  23
ENDBRANCH  19   2
ENDBRANCH  17  18
BRANCH  14   8
ATOM      4  N   UNL     1       0.322  -0.167  23.230  0.00  0.00    -0.291 NA
ATOM      8  C   UNL     1       0.665   0.848  24.248  0.00  0.00    +0.146 C 
ATOM      9  C   UNL     1       1.952   1.509  23.722  0.00  0.00    +0.030 C 
ATOM     10  C   UNL     1       1.583  -0.570  22.607  0.00  0.00    +0.085 C 
ATOM     11  C   UNL     1       2.289   0.761  22.441  0.00  0.00    +0.017 C 
BRANCH   4  12
ATOM     12  C   UNL     1      -0.408  -1.304  23.776  0.00  0.00    +0.088 C 
BRANCH  12  13
ATOM     13  C   UNL     1      -0.146  -1.505  25.278  0.00  0.00    -0.003 C 
ATOM     15  C   UNL     1      -1.426  -1.218  26.068  0.00  0.00    +0.008 C 
ATOM     16  C   UNL     1       0.355  -2.913  25.605  0.00  0.00    +0.008 C 
ENDBRANCH  12  13
ENDBRANCH   4  12
ENDBRANCH  14   8
TORSDOF 8
ENDMDL
MODEL 10
REMARK VINA RESULT:      -0.3      2.405      5.513
REMARK  Name = 45783417
REMARK  11 active torsions:
REMARK  status: ('A' for Active; 'I' for Inactive)
REMARK    1  A    between atoms: O_2  and  C_19
REMARK    2  A    between atoms: O_2  and  C_23
REMARK    3  A    between atoms: O_3  and  C_24
REMARK    4  A    between atoms: O_3  and  C_25
REMARK    5  A    between atoms: N_4  and  C_12
REMARK    6  A    between atoms: C_8  and  C_14
REMARK    7  A    between atoms: C_12  and  C_13
REMARK    8  A    between atoms: C_13  and  C_15
REMARK    9  A    between atoms: C_13  and  C_16
REMARK   10  A    between atoms: C_17  and  C_18
REMARK   11  A    between atoms: C_23  and  C_24
REMARK                            x       y       z     vdW  Elec       q    Type
REMARK                         _______ _______ _______ _____ _____    ______ ____
ROOT
ATOM      1  O   UNL     1       0.149   0.457  24.461  0.00  0.00    -0.336 OA
ATOM      5  N   UNL     1      -1.509   1.339  25.682  0.00  0.00    -0.190 NA
ATOM      6  N   UNL     1       0.166   1.833  24.204  0.00  0.00    -0.056 NA
ATOM     14  C   UNL     1      -0.867   0.251  25.340  0.00  0.00    +0.245 A 
ATOM     17  C   UNL     1      -0.839   2.284  24.960  0.00  0.00    +0.207 A 
ENDROOT
BRANCH  17  18
ATOM      7  N   UNL     1      -2.809   5.385  25.582  0.00  0.00    -0.221 NA
ATOM     18  C   UNL     1      -1.202   3.670  25.014  0.00  0.00    +0.084 A 
ATOM     19  C   UNL     1      -2.425   4.092  25.512  0.00  0.00    +0.226 A 
ATOM     20  C   UNL     1      -0.316   4.641  24.560  0.00  0.00    +0.018 A 
ATOM     21  C   UNL     1      -0.674   5.983  24.616  0.00  0.00    +0.021 A 
ATOM     22  C   UNL     1      -1.921   6.300  25.132  0.00  0.00    +0.114 A 
BRANCH  19   2
ATOM      2  O   UNL     1      -3.333   3.172  25.971  0.00  0.00    -0.474 OA
BRANCH   2  23
ATOM     23  C   UNL     1      -4.708   3.476  25.768  0.00  0.00    +0.258 C 
BRANCH  23  24
ATOM     24  C   UNL     1      -5.215   2.702  24.568  0.00  0.00    +0.200 C 
BRANCH  24   3
ATOM      3  O   UNL     1      -6.261   1.833  24.982  0.00  0.00    -0.380 OA
ATOM     25  C   UNL     1      -6.413   1.835  26.395  0.00  0.00    +0.194 C 
ENDBRANCH  24   3
ENDBRANCH  23  24
ENDBRANCH   2  23
ENDBRANCH  19   2
ENDBRANCH  17  18
BRANCH  14   8
ATOM      4  N   UNL     1      -2.121  -1.868  24.975  0.00  0.00    -0.291 NA
ATOM      8  C   UNL     1      -1.096  -1.179  25.785  0.00  0.00    +0.146 C 
ATOM      9  C   UNL     1       0.164  -2.053  25.648  0.00  0.00    +0.030 C 
ATOM     10  C   UNL     1      -1.769  -3.288  24.983  0.00  0.00    +0.085 C 
ATOM     11  C   UNL     1      -0.266  -3.239  24.796  0.00  0.00    +0.017 C 
BRANCH   4  12
ATOM     12  C   UNL     1      -3.479  -1.637  25.450  0.00  0.00    +0.088 C 
BRANCH  12  13
ATOM     13  C   UNL     1      -4.445  -1.266  24.312  0.00  0.00    -0.003 C 
ATOM     15  C   UNL     1      -3.829  -0.161  23.450  0.00  0.00    +0.008 C 
ATOM     16  C   UNL     1      -4.803  -2.465  23.431  0.00  0.00    +0.008 C 
ENDBRANCH  12  13
ENDBRANCH   4  12
ENDBRANCH  14   8
TORSDOF 8
ENDMDL
