MODEL 1
REMARK VINA RESULT:      -2.6      0.000      0.000
REMARK  Name = 56775426
REMARK  9 active torsions:
REMARK  status: ('A' for Active; 'I' for Inactive)
REMARK    1  A    between atoms: N_4  and  C_8
REMARK    2  A    between atoms: N_4  and  C_9
REMARK    3  A    between atoms: N_7  and  C_22
REMARK    4  A    between atoms: N_7  and  C_23
REMARK    5  A    between atoms: N_7  and  C_24
REMARK    6  A    between atoms: C_8  and  C_12
REMARK    7  A    between atoms: C_12  and  C_17
REMARK    8  A    between atoms: C_18  and  C_21
REMARK    9  A    between atoms: C_20  and  C_22
REMARK                            x       y       z     vdW  Elec       q    Type
REMARK                         _______ _______ _______ _____ _____    ______ ____
ROOT
ATOM      1  O   UNL     1      14.645  -3.670  32.032  0.00  0.00    -0.376 OA
ATOM      8  C   UNL     1      14.777  -5.739  31.525  0.00  0.00    +0.072 C 
ATOM     10  C   UNL     1      14.324  -4.902  32.716  0.00  0.00    +0.184 C 
ATOM     11  C   UNL     1      15.178  -4.405  30.906  0.00  0.00    +0.184 C 
ENDROOT
BRANCH   8   4
ATOM      4  N   UNL     1      13.591  -6.246  30.826  0.00  0.00    -0.304 NA
ATOM     25  H   UNL     1      13.785  -6.824  30.008  0.00  0.00    +0.123 HD
BRANCH   4   9
ATOM      3  O   UNL     1       8.943 -10.165  31.741  0.00  0.00    -0.276 OA
ATOM      5  N   UNL     1      10.296  -8.387  32.380  0.00  0.00    -0.302 N 
ATOM      9  C   UNL     1      12.746  -6.968  31.771  0.00  0.00    +0.057 C 
ATOM     13  C   UNL     1      12.498  -8.398  31.271  0.00  0.00    +0.037 C 
ATOM     14  C   UNL     1      11.415  -6.229  31.960  0.00  0.00    +0.037 C 
ATOM     15  C   UNL     1      11.538  -9.141  32.198  0.00  0.00    +0.109 C 
ATOM     16  C   UNL     1      10.475  -7.017  32.873  0.00  0.00    +0.109 C 
ATOM     18  C   UNL     1       9.069  -8.999  32.123  0.00  0.00    +0.212 C 
ATOM     21  C   UNL     1       7.838  -8.154  32.330  0.00  0.00    +0.109 C 
ENDBRANCH   4   9
ENDBRANCH   8   4
BRANCH   8  12
ATOM     12  C   UNL     1      15.824  -6.790  31.732  0.00  0.00    +0.085 C 
BRANCH  12  17
ATOM      2  O   UNL     1      16.120  -9.092  28.965  0.00  0.00    -0.358 OA
ATOM      6  N   UNL     1      15.663  -8.741  30.228  0.00  0.00    -0.083 NA
ATOM     17  C   UNL     1      16.132  -7.506  30.434  0.00  0.00    +0.086 A 
ATOM     19  C   UNL     1      16.883  -7.033  29.344  0.00  0.00    +0.072 A 
ATOM     20  C   UNL     1      16.844  -8.067  28.448  0.00  0.00    +0.151 A 
BRANCH  20  22
ATOM     22  C   UNL     1      17.405  -8.271  27.107  0.00  0.00    +0.161 C 
BRANCH  22   7
ATOM      7  N   UNL     1      16.437  -8.014  26.027  0.00  0.00    -0.301 NA
ATOM     23  C   UNL     1      16.014  -9.273  25.424  0.00  0.00    +0.105 C 
ATOM     24  C   UNL     1      17.025  -7.131  25.027  0.00  0.00    +0.105 C 
ENDBRANCH  22   7
ENDBRANCH  20  22
ENDBRANCH  12  17
ENDBRANCH   8  12
TORSDOF 6
ENDMDL
MODEL 2
REMARK VINA RESULT:      -2.5     15.546     17.984
REMARK  Name = 56775426
REMARK  9 active torsions:
REMARK  status: ('A' for Active; 'I' for Inactive)
REMARK    1  A    between atoms: N_4  and  C_8
REMARK    2  A    between atoms: N_4  and  C_9
REMARK    3  A    between atoms: N_7  and  C_22
REMARK    4  A    between atoms: N_7  and  C_23
REMARK    5  A    between atoms: N_7  and  C_24
REMARK    6  A    between atoms: C_8  and  C_12
REMARK    7  A    between atoms: C_12  and  C_17
REMARK    8  A    between atoms: C_18  and  C_21
REMARK    9  A    between atoms: C_20  and  C_22
REMARK                            x       y       z     vdW  Elec       q    Type
REMARK                         _______ _______ _______ _____ _____    ______ ____
ROOT
ATOM      1  O   UNL     1      -0.898  -3.002  25.348  0.00  0.00    -0.376 OA
ATOM      8  C   UNL     1      -0.797  -1.077  24.431  0.00  0.00    +0.072 C 
ATOM     10  C   UNL     1      -1.823  -2.195  24.584  0.00  0.00    +0.184 C 
ATOM     11  C   UNL     1       0.150  -2.024  25.159  0.00  0.00    +0.184 C 
ENDROOT
BRANCH   8   4
ATOM      4  N   UNL     1      -1.155   0.021  25.335  0.00  0.00    -0.304 NA
ATOM     25  H   UNL     1      -0.378   0.616  25.623  0.00  0.00    +0.123 HD
BRANCH   4   9
ATOM      3  O   UNL     1      -5.465   4.355  25.995  0.00  0.00    -0.276 OA
ATOM      5  N   UNL     1      -4.584   2.464  24.973  0.00  0.00    -0.302 N 
ATOM      9  C   UNL     1      -2.211   0.823  24.725  0.00  0.00    +0.057 C 
ATOM     13  C   UNL     1      -2.141   2.266  25.241  0.00  0.00    +0.037 C 
ATOM     14  C   UNL     1      -3.584   0.210  25.034  0.00  0.00    +0.037 C 
ATOM     15  C   UNL     1      -3.296   3.100  24.688  0.00  0.00    +0.109 C 
ATOM     16  C   UNL     1      -4.711   1.086  24.486  0.00  0.00    +0.109 C 
ATOM     18  C   UNL     1      -5.583   3.185  25.626  0.00  0.00    +0.212 C 
ATOM     21  C   UNL     1      -6.879   2.459  25.885  0.00  0.00    +0.109 C 
ENDBRANCH   4   9
ENDBRANCH   8   4
BRANCH   8  12
ATOM     12  C   UNL     1      -0.440  -0.605  23.054  0.00  0.00    +0.085 C 
BRANCH  12  17
ATOM      2  O   UNL     1       2.499   1.453  23.475  0.00  0.00    -0.358 OA
ATOM      6  N   UNL     1       1.155   1.171  23.684  0.00  0.00    -0.083 NA
ATOM     17  C   UNL     1       0.940   0.019  23.041  0.00  0.00    +0.086 A 
ATOM     19  C   UNL     1       2.101  -0.467  22.416  0.00  0.00    +0.072 A 
ATOM     20  C   UNL     1       3.052   0.471  22.720  0.00  0.00    +0.151 A 
BRANCH  20  22
ATOM     22  C   UNL     1       4.478   0.612  22.402  0.00  0.00    +0.161 C 
BRANCH  22   7
ATOM      7  N   UNL     1       5.354  -0.136  23.322  0.00  0.00    -0.301 NA
ATOM     23  C   UNL     1       4.673  -1.335  23.797  0.00  0.00    +0.105 C 
ATOM     24  C   UNL     1       5.749   0.714  24.439  0.00  0.00    +0.105 C 
ENDBRANCH  22   7
ENDBRANCH  20  22
ENDBRANCH  12  17
ENDBRANCH   8  12
TORSDOF 6
ENDMDL
MODEL 3
REMARK VINA RESULT:      -2.2     16.033     18.850
REMARK  Name = 56775426
REMARK  9 active torsions:
REMARK  status: ('A' for Active; 'I' for Inactive)
REMARK    1  A    between atoms: N_4  and  C_8
REMARK    2  A    between atoms: N_4  and  C_9
REMARK    3  A    between atoms: N_7  and  C_22
REMARK    4  A    between atoms: N_7  and  C_23
REMARK    5  A    between atoms: N_7  and  C_24
REMARK    6  A    between atoms: C_8  and  C_12
REMARK    7  A    between atoms: C_12  and  C_17
REMARK    8  A    between atoms: C_18  and  C_21
REMARK    9  A    between atoms: C_20  and  C_22
REMARK                            x       y       z     vdW  Elec       q    Type
REMARK                         _______ _______ _______ _____ _____    ______ ____
ROOT
ATOM      1  O   UNL     1      -3.228  -3.279  24.988  0.00  0.00    -0.376 OA
ATOM      8  C   UNL     1      -2.809  -1.219  24.620  0.00  0.00    +0.072 C 
ATOM     10  C   UNL     1      -2.155  -2.566  24.334  0.00  0.00    +0.184 C 
ATOM     11  C   UNL     1      -3.854  -2.033  25.374  0.00  0.00    +0.184 C 
ENDROOT
BRANCH   8   4
ATOM      4  N   UNL     1      -3.409  -0.713  23.381  0.00  0.00    -0.304 NA
ATOM     25  H   UNL     1      -4.152  -1.294  22.991  0.00  0.00    +0.123 HD
BRANCH   4   9
ATOM      3  O   UNL     1      -2.145   5.074  25.028  0.00  0.00    -0.276 OA
ATOM      5  N   UNL     1      -3.582   3.261  24.806  0.00  0.00    -0.302 N 
ATOM      9  C   UNL     1      -3.890   0.648  23.598  0.00  0.00    +0.057 C 
ATOM     13  C   UNL     1      -2.862   1.660  23.075  0.00  0.00    +0.037 C 
ATOM     14  C   UNL     1      -4.159   0.880  25.091  0.00  0.00    +0.037 C 
ATOM     15  C   UNL     1      -3.303   3.091  23.379  0.00  0.00    +0.109 C 
ATOM     16  C   UNL     1      -4.572   2.328  25.355  0.00  0.00    +0.109 C 
ATOM     18  C   UNL     1      -2.949   4.279  25.520  0.00  0.00    +0.212 C 
ATOM     21  C   UNL     1      -3.287   4.386  26.985  0.00  0.00    +0.109 C 
ENDBRANCH   4   9
ENDBRANCH   8   4
BRANCH   8  12
ATOM     12  C   UNL     1      -2.028  -0.175  25.358  0.00  0.00    +0.085 C 
BRANCH  12  17
ATOM      2  O   UNL     1       0.942   1.328  23.954  0.00  0.00    -0.358 OA
ATOM      6  N   UNL     1      -0.209   1.372  24.730  0.00  0.00    -0.083 NA
ATOM     17  C   UNL     1      -0.742   0.150  24.627  0.00  0.00    +0.086 A 
ATOM     19  C   UNL     1       0.024  -0.698  23.808  0.00  0.00    +0.072 A 
ATOM     20  C   UNL     1       1.070   0.091  23.411  0.00  0.00    +0.151 A 
BRANCH  20  22
ATOM     22  C   UNL     1       2.243  -0.132  22.556  0.00  0.00    +0.161 C 
BRANCH  22   7
ATOM      7  N   UNL     1       3.519   0.159  23.233  0.00  0.00    -0.301 NA
ATOM     23  C   UNL     1       4.340   1.031  22.400  0.00  0.00    +0.105 C 
ATOM     24  C   UNL     1       4.221  -1.084  23.533  0.00  0.00    +0.105 C 
ENDBRANCH  22   7
ENDBRANCH  20  22
ENDBRANCH  12  17
ENDBRANCH   8  12
TORSDOF 6
ENDMDL
MODEL 4
REMARK VINA RESULT:      -2.1     16.131     19.402
REMARK  Name = 56775426
REMARK  9 active torsions:
REMARK  status: ('A' for Active; 'I' for Inactive)
REMARK    1  A    between atoms: N_4  and  C_8
REMARK    2  A    between atoms: N_4  and  C_9
REMARK    3  A    between atoms: N_7  and  C_22
REMARK    4  A    between atoms: N_7  and  C_23
REMARK    5  A    between atoms: N_7  and  C_24
REMARK    6  A    between atoms: C_8  and  C_12
REMARK    7  A    between atoms: C_12  and  C_17
REMARK    8  A    between atoms: C_18  and  C_21
REMARK    9  A    between atoms: C_20  and  C_22
REMARK                            x       y       z     vdW  Elec       q    Type
REMARK                         _______ _______ _______ _____ _____    ______ ____
ROOT
ATOM      1  O   UNL     1      -2.353   5.126  26.129  0.00  0.00    -0.376 OA
ATOM      8  C   UNL     1      -2.360   3.314  25.001  0.00  0.00    +0.072 C 
ATOM     10  C   UNL     1      -1.672   4.672  24.938  0.00  0.00    +0.184 C 
ATOM     11  C   UNL     1      -3.111   3.895  26.193  0.00  0.00    +0.184 C 
ENDROOT
BRANCH   8   4
ATOM      4  N   UNL     1      -1.399   2.319  25.487  0.00  0.00    -0.304 NA
ATOM     25  H   UNL     1      -1.800   1.569  26.052  0.00  0.00    +0.123 HD
BRANCH   4   9
ATOM      3  O   UNL     1       3.127  -1.323  23.474  0.00  0.00    -0.276 OA
ATOM      5  N   UNL     1       1.704   0.502  23.268  0.00  0.00    -0.302 N 
ATOM      9  C   UNL     1      -0.665   1.764  24.354  0.00  0.00    +0.057 C 
ATOM     13  C   UNL     1      -0.358   0.281  24.601  0.00  0.00    +0.037 C 
ATOM     14  C   UNL     1       0.634   2.550  24.132  0.00  0.00    +0.037 C 
ATOM     15  C   UNL     1       0.493  -0.295  23.471  0.00  0.00    +0.109 C 
ATOM     16  C   UNL     1       1.466   1.927  23.010  0.00  0.00    +0.109 C 
ATOM     18  C   UNL     1       2.954  -0.116  23.290  0.00  0.00    +0.212 C 
ATOM     21  C   UNL     1       4.152   0.775  23.076  0.00  0.00    +0.109 C 
ENDBRANCH   4   9
ENDBRANCH   8   4
BRANCH   8  12
ATOM     12  C   UNL     1      -3.139   2.839  23.812  0.00  0.00    +0.085 C 
BRANCH  12  17
ATOM      2  O   UNL     1      -4.988  -0.049  24.945  0.00  0.00    -0.358 OA
ATOM      6  N   UNL     1      -4.692   1.308  24.967  0.00  0.00    -0.083 NA
ATOM     17  C   UNL     1      -3.720   1.464  24.063  0.00  0.00    +0.086 A 
ATOM     19  C   UNL     1      -3.367   0.252  23.445  0.00  0.00    +0.072 A 
ATOM     20  C   UNL     1      -4.194  -0.667  24.034  0.00  0.00    +0.151 A 
BRANCH  20  22
ATOM     22  C   UNL     1      -4.377  -2.116  23.880  0.00  0.00    +0.161 C 
BRANCH  22   7
ATOM      7  N   UNL     1      -3.397  -2.909  24.642  0.00  0.00    -0.301 NA
ATOM     23  C   UNL     1      -3.249  -2.364  25.987  0.00  0.00    +0.105 C 
ATOM     24  C   UNL     1      -2.116  -2.926  23.945  0.00  0.00    +0.105 C 
ENDBRANCH  22   7
ENDBRANCH  20  22
ENDBRANCH  12  17
ENDBRANCH   8  12
TORSDOF 6
ENDMDL
MODEL 5
REMARK VINA RESULT:      -2.0     16.755     19.307
REMARK  Name = 56775426
REMARK  9 active torsions:
REMARK  status: ('A' for Active; 'I' for Inactive)
REMARK    1  A    between atoms: N_4  and  C_8
REMARK    2  A    between atoms: N_4  and  C_9
REMARK    3  A    between atoms: N_7  and  C_22
REMARK    4  A    between atoms: N_7  and  C_23
REMARK    5  A    between atoms: N_7  and  C_24
REMARK    6  A    between atoms: C_8  and  C_12
REMARK    7  A    between atoms: C_12  and  C_17
REMARK    8  A    between atoms: C_18  and  C_21
REMARK    9  A    between atoms: C_20  and  C_22
REMARK                            x       y       z     vdW  Elec       q    Type
REMARK                         _______ _______ _______ _____ _____    ______ ____
ROOT
ATOM      1  O   UNL     1      -5.508   4.147  25.602  0.00  0.00    -0.376 OA
ATOM      8  C   UNL     1      -3.473   3.812  25.054  0.00  0.00    +0.072 C 
ATOM     10  C   UNL     1      -4.422   3.377  26.165  0.00  0.00    +0.184 C 
ATOM     11  C   UNL     1      -4.636   4.673  24.575  0.00  0.00    +0.184 C 
ENDROOT
BRANCH   8   4
ATOM      4  N   UNL     1      -3.295   2.696  24.119  0.00  0.00    -0.304 NA
ATOM     25  H   UNL     1      -2.369   2.626  23.698  0.00  0.00    +0.123 HD
BRANCH   4   9
ATOM      3  O   UNL     1      -2.189  -3.303  24.890  0.00  0.00    -0.276 OA
ATOM      5  N   UNL     1      -3.586  -1.447  24.903  0.00  0.00    -0.302 N 
ATOM      9  C   UNL     1      -3.643   1.446  24.789  0.00  0.00    +0.057 C 
ATOM     13  C   UNL     1      -2.370   0.681  25.172  0.00  0.00    +0.037 C 
ATOM     14  C   UNL     1      -4.530   0.588  23.876  0.00  0.00    +0.037 C 
ATOM     15  C   UNL     1      -2.713  -0.674  25.789  0.00  0.00    +0.109 C 
ATOM     16  C   UNL     1      -4.829  -0.767  24.519  0.00  0.00    +0.109 C 
ATOM     18  C   UNL     1      -3.224  -2.739  24.526  0.00  0.00    +0.212 C 
ATOM     21  C   UNL     1      -4.175  -3.467  23.610  0.00  0.00    +0.109 C 
ENDBRANCH   4   9
ENDBRANCH   8   4
BRANCH   8  12
ATOM     12  C   UNL     1      -2.180   4.474  25.422  0.00  0.00    +0.085 C 
BRANCH  12  17
ATOM      2  O   UNL     1       0.594   2.191  25.795  0.00  0.00    -0.358 OA
ATOM      6  N   UNL     1      -0.405   3.007  26.310  0.00  0.00    -0.083 NA
ATOM     17  C   UNL     1      -1.017   3.522  25.240  0.00  0.00    +0.086 A 
ATOM     19  C   UNL     1      -0.452   3.070  24.034  0.00  0.00    +0.072 A 
ATOM     20  C   UNL     1       0.555   2.236  24.439  0.00  0.00    +0.151 A 
BRANCH  20  22
ATOM     22  C   UNL     1       1.550   1.424  23.727  0.00  0.00    +0.161 C 
BRANCH  22   7
ATOM      7  N   UNL     1       0.950   0.358  22.907  0.00  0.00    -0.301 NA
ATOM     23  C   UNL     1       0.350  -0.657  23.767  0.00  0.00    +0.105 C 
ATOM     24  C   UNL     1       1.959  -0.231  22.034  0.00  0.00    +0.105 C 
ENDBRANCH  22   7
ENDBRANCH  20  22
ENDBRANCH  12  17
ENDBRANCH   8  12
TORSDOF 6
ENDMDL
MODEL 6
REMARK VINA RESULT:      -1.6     16.225     19.758
REMARK  Name = 56775426
REMARK  9 active torsions:
REMARK  status: ('A' for Active; 'I' for Inactive)
REMARK    1  A    between atoms: N_4  and  C_8
REMARK    2  A    between atoms: N_4  and  C_9
REMARK    3  A    between atoms: N_7  and  C_22
REMARK    4  A    between atoms: N_7  and  C_23
REMARK    5  A    between atoms: N_7  and  C_24
REMARK    6  A    between atoms: C_8  and  C_12
REMARK    7  A    between atoms: C_12  and  C_17
REMARK    8  A    between atoms: C_18  and  C_21
REMARK    9  A    between atoms: C_20  and  C_22
REMARK                            x       y       z     vdW  Elec       q    Type
REMARK                         _______ _______ _______ _____ _____    ______ ____
ROOT
ATOM      1  O   UNL     1      -3.268  -3.017  25.693  0.00  0.00    -0.376 OA
ATOM      8  C   UNL     1      -2.958  -1.104  24.799  0.00  0.00    +0.072 C 
ATOM     10  C   UNL     1      -3.753  -1.683  25.964  0.00  0.00    +0.184 C 
ATOM     11  C   UNL     1      -2.566  -2.549  24.518  0.00  0.00    +0.184 C 
ENDROOT
BRANCH   8   4
ATOM      4  N   UNL     1      -1.791  -0.392  25.331  0.00  0.00    -0.304 NA
ATOM     25  H   UNL     1      -1.205  -0.935  25.966  0.00  0.00    +0.123 HD
BRANCH   4   9
ATOM      3  O   UNL     1       3.438  -0.606  22.105  0.00  0.00    -0.276 OA
ATOM      5  N   UNL     1       1.565   0.498  22.922  0.00  0.00    -0.302 N 
ATOM      9  C   UNL     1      -0.996   0.126  24.222  0.00  0.00    +0.057 C 
ATOM     13  C   UNL     1      -0.285  -1.026  23.500  0.00  0.00    +0.037 C 
ATOM     14  C   UNL     1       0.027   1.147  24.739  0.00  0.00    +0.037 C 
ATOM     15  C   UNL     1       0.628  -0.497  22.396  0.00  0.00    +0.109 C 
ATOM     16  C   UNL     1       0.935   1.632  23.609  0.00  0.00    +0.109 C 
ATOM     18  C   UNL     1       2.934   0.339  22.716  0.00  0.00    +0.212 C 
ATOM     21  C   UNL     1       3.832   1.404  23.293  0.00  0.00    +0.109 C 
ENDBRANCH   4   9
ENDBRANCH   8   4
BRANCH   8  12
ATOM     12  C   UNL     1      -3.682  -0.327  23.742  0.00  0.00    +0.085 C 
BRANCH  12  17
ATOM      2  O   UNL     1      -4.908   2.766  25.149  0.00  0.00    -0.358 OA
ATOM      6  N   UNL     1      -5.002   1.401  24.911  0.00  0.00    -0.083 NA
ATOM     17  C   UNL     1      -3.918   1.100  24.190  0.00  0.00    +0.086 A 
ATOM     19  C   UNL     1      -3.112   2.226  23.945  0.00  0.00    +0.072 A 
ATOM     20  C   UNL     1      -3.779   3.246  24.569  0.00  0.00    +0.151 A 
BRANCH  20  22
ATOM     22  C   UNL     1      -3.521   4.683  24.724  0.00  0.00    +0.161 C 
BRANCH  22   7
ATOM      7  N   UNL     1      -2.360   4.976  25.583  0.00  0.00    -0.301 NA
ATOM     23  C   UNL     1      -1.218   5.364  24.763  0.00  0.00    +0.105 C 
ATOM     24  C   UNL     1      -2.040   3.814  26.404  0.00  0.00    +0.105 C 
ENDBRANCH  22   7
ENDBRANCH  20  22
ENDBRANCH  12  17
ENDBRANCH   8  12
TORSDOF 6
ENDMDL
MODEL 7
REMARK VINA RESULT:      -1.4     17.409     20.055
REMARK  Name = 56775426
REMARK  9 active torsions:
REMARK  status: ('A' for Active; 'I' for Inactive)
REMARK    1  A    between atoms: N_4  and  C_8
REMARK    2  A    between atoms: N_4  and  C_9
REMARK    3  A    between atoms: N_7  and  C_22
REMARK    4  A    between atoms: N_7  and  C_23
REMARK    5  A    between atoms: N_7  and  C_24
REMARK    6  A    between atoms: C_8  and  C_12
REMARK    7  A    between atoms: C_12  and  C_17
REMARK    8  A    between atoms: C_18  and  C_21
REMARK    9  A    between atoms: C_20  and  C_22
REMARK                            x       y       z     vdW  Elec       q    Type
REMARK                         _______ _______ _______ _____ _____    ______ ____
ROOT
ATOM      1  O   UNL     1      -4.244  -3.077  23.717  0.00  0.00    -0.376 OA
ATOM      8  C   UNL     1      -2.800  -2.007  24.869  0.00  0.00    +0.072 C 
ATOM     10  C   UNL     1      -3.470  -1.874  23.506  0.00  0.00    +0.184 C 
ATOM     11  C   UNL     1      -3.577  -3.314  24.978  0.00  0.00    +0.184 C 
ENDROOT
BRANCH   8   4
ATOM      4  N   UNL     1      -3.393  -1.028  25.785  0.00  0.00    -0.304 NA
ATOM     25  H   UNL     1      -2.731  -0.556  26.402  0.00  0.00    +0.123 HD
BRANCH   4   9
ATOM      3  O   UNL     1      -4.132   4.820  24.037  0.00  0.00    -0.276 OA
ATOM      5  N   UNL     1      -4.937   2.691  24.503  0.00  0.00    -0.302 N 
ATOM      9  C   UNL     1      -4.157  -0.050  25.017  0.00  0.00    +0.057 C 
ATOM     13  C   UNL     1      -3.207   0.942  24.333  0.00  0.00    +0.037 C 
ATOM     14  C   UNL     1      -5.137   0.693  25.935  0.00  0.00    +0.037 C 
ATOM     15  C   UNL     1      -3.990   2.030  23.601  0.00  0.00    +0.109 C 
ATOM     16  C   UNL     1      -5.881   1.789  25.171  0.00  0.00    +0.109 C 
ATOM     18  C   UNL     1      -4.913   4.079  24.637  0.00  0.00    +0.212 C 
ATOM     21  C   UNL     1      -5.917   4.682  25.587  0.00  0.00    +0.109 C 
ENDBRANCH   4   9
ENDBRANCH   8   4
BRANCH   8  12
ATOM     12  C   UNL     1      -1.304  -2.042  24.941  0.00  0.00    +0.085 C 
BRANCH  12  17
ATOM      2  O   UNL     1       0.383   0.961  23.853  0.00  0.00    -0.358 OA
ATOM      6  N   UNL     1       0.025  -0.372  23.701  0.00  0.00    -0.083 NA
ATOM     17  C   UNL     1      -0.725  -0.653  24.770  0.00  0.00    +0.086 A 
ATOM     19  C   UNL     1      -0.872   0.455  25.623  0.00  0.00    +0.072 A 
ATOM     20  C   UNL     1      -0.157   1.442  25.001  0.00  0.00    +0.151 A 
BRANCH  20  22
ATOM     22  C   UNL     1       0.124   2.848  25.319  0.00  0.00    +0.161 C 
BRANCH  22   7
ATOM      7  N   UNL     1      -1.036   3.733  25.111  0.00  0.00    -0.301 NA
ATOM     23  C   UNL     1      -0.584   5.070  24.740  0.00  0.00    +0.105 C 
ATOM     24  C   UNL     1      -1.855   3.778  26.316  0.00  0.00    +0.105 C 
ENDBRANCH  22   7
ENDBRANCH  20  22
ENDBRANCH  12  17
ENDBRANCH   8  12
TORSDOF 6
ENDMDL
MODEL 8
REMARK VINA RESULT:      -1.4      1.921      2.246
REMARK  Name = 56775426
REMARK  9 active torsions:
REMARK  status: ('A' for Active; 'I' for Inactive)
REMARK    1  A    between atoms: N_4  and  C_8
REMARK    2  A    between atoms: N_4  and  C_9
REMARK    3  A    between atoms: N_7  and  C_22
REMARK    4  A    between atoms: N_7  and  C_23
REMARK    5  A    between atoms: N_7  and  C_24
REMARK    6  A    between atoms: C_8  and  C_12
REMARK    7  A    between atoms: C_12  and  C_17
REMARK    8  A    between atoms: C_18  and  C_21
REMARK    9  A    between atoms: C_20  and  C_22
REMARK                            x       y       z     vdW  Elec       q    Type
REMARK                         _______ _______ _______ _____ _____    ______ ____
ROOT
ATOM      1  O   UNL     1      13.794  -6.212  32.134  0.00  0.00    -0.376 OA
ATOM      8  C   UNL     1      13.644  -8.286  31.652  0.00  0.00    +0.072 C 
ATOM     10  C   UNL     1      13.333  -7.385  32.842  0.00  0.00    +0.184 C 
ATOM     11  C   UNL     1      14.200  -7.021  31.007  0.00  0.00    +0.184 C 
ENDROOT
BRANCH   8   4
ATOM      4  N   UNL     1      12.387  -8.642  30.986  0.00  0.00    -0.304 NA
ATOM     25  H   UNL     1      12.433  -9.464  30.384  0.00  0.00    +0.123 HD
BRANCH   4   9
ATOM      3  O   UNL     1       6.684 -10.504  32.330  0.00  0.00    -0.276 OA
ATOM      5  N   UNL     1       8.550  -9.165  32.678  0.00  0.00    -0.302 N 
ATOM      9  C   UNL     1      11.340  -8.806  31.990  0.00  0.00    +0.057 C 
ATOM     13  C   UNL     1      10.630 -10.152  31.796  0.00  0.00    +0.037 C 
ATOM     14  C   UNL     1      10.334  -7.651  31.895  0.00  0.00    +0.037 C 
ATOM     15  C   UNL     1       9.468 -10.302  32.776  0.00  0.00    +0.109 C 
ATOM     16  C   UNL     1       9.175  -7.852  32.873  0.00  0.00    +0.109 C 
ATOM     18  C   UNL     1       7.192  -9.387  32.456  0.00  0.00    +0.212 C 
ATOM     21  C   UNL     1       6.314  -8.165  32.365  0.00  0.00    +0.109 C 
ENDBRANCH   4   9
ENDBRANCH   8   4
BRANCH   8  12
ATOM     12  C   UNL     1      14.552  -9.461  31.850  0.00  0.00    +0.085 C 
BRANCH  12  17
ATOM      2  O   UNL     1      17.154 -10.183  29.451  0.00  0.00    -0.358 OA
ATOM      6  N   UNL     1      16.684 -10.042  30.750  0.00  0.00    -0.083 NA
ATOM     17  C   UNL     1      15.399  -9.700  30.618  0.00  0.00    +0.086 A 
ATOM     19  C   UNL     1      15.008  -9.612  29.271  0.00  0.00    +0.072 A 
ATOM     20  C   UNL     1      16.147  -9.925  28.579  0.00  0.00    +0.151 A 
BRANCH  20  22
ATOM     22  C   UNL     1      16.473 -10.030  27.151  0.00  0.00    +0.161 C 
BRANCH  22   7
ATOM      7  N   UNL     1      15.560  -9.259  26.289  0.00  0.00    -0.301 NA
ATOM     23  C   UNL     1      14.761 -10.165  25.471  0.00  0.00    +0.105 C 
ATOM     24  C   UNL     1      16.320  -8.337  25.454  0.00  0.00    +0.105 C 
ENDBRANCH  22   7
ENDBRANCH  20  22
ENDBRANCH  12  17
ENDBRANCH   8  12
TORSDOF 6
ENDMDL
MODEL 9
REMARK VINA RESULT:      -0.9     17.018     19.588
REMARK  Name = 56775426
REMARK  9 active torsions:
REMARK  status: ('A' for Active; 'I' for Inactive)
REMARK    1  A    between atoms: N_4  and  C_8
REMARK    2  A    between atoms: N_4  and  C_9
REMARK    3  A    between atoms: N_7  and  C_22
REMARK    4  A    between atoms: N_7  and  C_23
REMARK    5  A    between atoms: N_7  and  C_24
REMARK    6  A    between atoms: C_8  and  C_12
REMARK    7  A    between atoms: C_12  and  C_17
REMARK    8  A    between atoms: C_18  and  C_21
REMARK    9  A    between atoms: C_20  and  C_22
REMARK                            x       y       z     vdW  Elec       q    Type
REMARK                         _______ _______ _______ _____ _____    ______ ____
ROOT
ATOM      1  O   UNL     1       0.902   0.875  22.913  0.00  0.00    -0.376 OA
ATOM      8  C   UNL     1      -0.122   1.956  24.442  0.00  0.00    +0.072 C 
ATOM     10  C   UNL     1       1.309   1.523  24.139  0.00  0.00    +0.184 C 
ATOM     11  C   UNL     1      -0.486   1.171  23.187  0.00  0.00    +0.184 C 
ENDROOT
BRANCH   8   4
ATOM      4  N   UNL     1      -0.252   3.389  24.158  0.00  0.00    -0.304 NA
ATOM     25  H   UNL     1       0.148   3.693  23.270  0.00  0.00    +0.123 HD
BRANCH   4   9
ATOM      3  O   UNL     1      -5.721   2.646  26.867  0.00  0.00    -0.276 OA
ATOM      5  N   UNL     1      -4.378   3.198  25.054  0.00  0.00    -0.302 N 
ATOM      9  C   UNL     1      -1.659   3.770  24.238  0.00  0.00    +0.057 C 
ATOM     13  C   UNL     1      -2.096   3.867  25.706  0.00  0.00    +0.037 C 
ATOM     14  C   UNL     1      -2.525   2.751  23.487  0.00  0.00    +0.037 C 
ATOM     15  C   UNL     1      -3.589   4.172  25.811  0.00  0.00    +0.109 C 
ATOM     16  C   UNL     1      -4.011   3.078  23.638  0.00  0.00    +0.109 C 
ATOM     18  C   UNL     1      -5.409   2.502  25.683  0.00  0.00    +0.212 C 
ATOM     21  C   UNL     1      -6.171   1.515  24.835  0.00  0.00    +0.109 C 
ENDBRANCH   4   9
ENDBRANCH   8   4
BRANCH   8  12
ATOM     12  C   UNL     1      -0.737   1.563  25.751  0.00  0.00    +0.085 C 
BRANCH  12  17
ATOM      2  O   UNL     1      -1.229  -2.012  25.590  0.00  0.00    -0.358 OA
ATOM      6  N   UNL     1      -0.421  -0.882  25.632  0.00  0.00    -0.083 NA
ATOM     17  C   UNL     1      -1.271   0.148  25.690  0.00  0.00    +0.086 A 
ATOM     19  C   UNL     1      -2.614  -0.269  25.688  0.00  0.00    +0.072 A 
ATOM     20  C   UNL     1      -2.531  -1.634  25.625  0.00  0.00    +0.151 A 
BRANCH  20  22
ATOM     22  C   UNL     1      -3.528  -2.712  25.588  0.00  0.00    +0.161 C 
BRANCH  22   7
ATOM      7  N   UNL     1      -3.984  -3.036  24.225  0.00  0.00    -0.301 NA
ATOM     23  C   UNL     1      -2.882  -3.597  23.450  0.00  0.00    +0.105 C 
ATOM     24  C   UNL     1      -4.518  -1.843  23.579  0.00  0.00    +0.105 C 
ENDBRANCH  22   7
ENDBRANCH  20  22
ENDBRANCH  12  17
ENDBRANCH   8  12
TORSDOF 6
ENDMDL
MODEL 10
REMARK VINA RESULT:      -0.9     15.282     17.777
REMARK  Name = 56775426
REMARK  9 active torsions:
REMARK  status: ('A' for Active; 'I' for Inactive)
REMARK    1  A    between atoms: N_4  and  C_8
REMARK    2  A    between atoms: N_4  and  C_9
REMARK    3  A    between atoms: N_7  and  C_22
REMARK    4  A    between atoms: N_7  and  C_23
REMARK    5  A    between atoms: N_7  and  C_24
REMARK    6  A    between atoms: C_8  and  C_12
REMARK    7  A    between atoms: C_12  and  C_17
REMARK    8  A    between atoms: C_18  and  C_21
REMARK    9  A    between atoms: C_20  and  C_22
REMARK                            x       y       z     vdW  Elec       q    Type
REMARK                         _______ _______ _______ _____ _____    ______ ____
ROOT
ATOM      1  O   UNL     1      -2.286  -2.857  24.624  0.00  0.00    -0.376 OA
ATOM      8  C   UNL     1      -1.208  -1.039  24.323  0.00  0.00    +0.072 C 
ATOM     10  C   UNL     1      -2.646  -1.457  24.612  0.00  0.00    +0.184 C 
ATOM     11  C   UNL     1      -0.924  -2.535  24.256  0.00  0.00    +0.184 C 
ENDROOT
BRANCH   8   4
ATOM      4  N   UNL     1      -0.616  -0.500  25.552  0.00  0.00    -0.304 NA
ATOM     25  H   UNL     1       0.375  -0.267  25.489  0.00  0.00    +0.123 HD
BRANCH   4   9
ATOM      3  O   UNL     1      -3.600   4.659  24.042  0.00  0.00    -0.276 OA
ATOM      5  N   UNL     1      -2.385   3.337  25.517  0.00  0.00    -0.302 N 
ATOM      9  C   UNL     1      -1.385   0.661  25.989  0.00  0.00    +0.057 C 
ATOM     13  C   UNL     1      -2.537   0.929  25.012  0.00  0.00    +0.037 C 
ATOM     14  C   UNL     1      -0.471   1.890  26.089  0.00  0.00    +0.037 C 
ATOM     15  C   UNL     1      -3.296   2.197  25.398  0.00  0.00    +0.109 C 
ATOM     16  C   UNL     1      -1.273   3.141  26.453  0.00  0.00    +0.109 C 
ATOM     18  C   UNL     1      -2.638   4.505  24.797  0.00  0.00    +0.212 C 
ATOM     21  C   UNL     1      -1.651   5.631  24.971  0.00  0.00    +0.109 C 
ENDBRANCH   4   9
ENDBRANCH   8   4
BRANCH   8  12
ATOM     12  C   UNL     1      -0.927  -0.190  23.121  0.00  0.00    +0.085 C 
BRANCH  12  17
ATOM      2  O   UNL     1       2.247   1.496  23.478  0.00  0.00    -0.358 OA
ATOM      6  N   UNL     1       0.875   1.402  23.675  0.00  0.00    -0.083 NA
ATOM     17  C   UNL     1       0.521   0.249  23.099  0.00  0.00    +0.086 A 
ATOM     19  C   UNL     1       1.618  -0.420  22.529  0.00  0.00    +0.072 A 
ATOM     20  C   UNL     1       2.678   0.405  22.795  0.00  0.00    +0.151 A 
BRANCH  20  22
ATOM     22  C   UNL     1       4.115   0.341  22.500  0.00  0.00    +0.161 C 
BRANCH  22   7
ATOM      7  N   UNL     1       4.919  -0.146  23.634  0.00  0.00    -0.301 NA
ATOM     23  C   UNL     1       6.340   0.028  23.351  0.00  0.00    +0.105 C 
ATOM     24  C   UNL     1       4.611  -1.545  23.903  0.00  0.00    +0.105 C 
ENDBRANCH  22   7
ENDBRANCH  20  22
ENDBRANCH  12  17
ENDBRANCH   8  12
TORSDOF 6
ENDMDL
