MODEL 1
REMARK VINA RESULT:      -2.0      0.000      0.000
REMARK  Name = 25338365
REMARK  7 active torsions:
REMARK  status: ('A' for Active; 'I' for Inactive)
REMARK    1  A    between atoms: S_1  and  N_7
REMARK    2  A    between atoms: S_1  and  C_16
REMARK    3  A    between atoms: N_6  and  C_15
REMARK    4  A    between atoms: N_7  and  C_10
REMARK    5  A    between atoms: C_11  and  C_14
REMARK    6  A    between atoms: C_17  and  C_19
REMARK    7  A    between atoms: C_26  and  C_27
REMARK                            x       y       z     vdW  Elec       q    Type
REMARK                         _______ _______ _______ _____ _____    ______ ____
ROOT
ATOM      6  N   UNL     1      -2.496  -1.361  24.892  0.00  0.00    -0.293 NA
ATOM     10  C   UNL     1      -4.315   0.034  24.458  0.00  0.00    +0.092 C 
ATOM     11  C   UNL     1      -2.166  -0.738  23.596  0.00  0.00    +0.147 C 
ATOM     12  C   UNL     1      -3.263   0.324  23.390  0.00  0.00    +0.050 C 
ATOM     13  C   UNL     1      -3.960  -1.348  24.981  0.00  0.00    +0.105 C 
ATOM     15  C   UNL     1      -1.954  -2.707  25.037  0.00  0.00    +0.105 C 
ENDROOT
BRANCH  11  14
ATOM      3  O   UNL     1      -0.682   1.203  23.580  0.00  0.00    -0.336 OA
ATOM      8  N   UNL     1       0.383  -0.764  23.465  0.00  0.00    -0.190 NA
ATOM      9  N   UNL     1       0.685   1.503  23.519  0.00  0.00    -0.056 NA
ATOM     14  C   UNL     1      -0.772  -0.152  23.543  0.00  0.00    +0.245 A 
ATOM     17  C   UNL     1       1.247   0.292  23.453  0.00  0.00    +0.202 A 
BRANCH  17  19
ATOM     19  C   UNL     1       2.667   0.104  23.376  0.00  0.00    +0.022 A 
ATOM     22  C   UNL     1       3.234  -1.103  23.783  0.00  0.00    +0.012 A 
ATOM     23  C   UNL     1       3.481   1.130  22.895  0.00  0.00    +0.012 A 
ATOM     24  C   UNL     1       4.614  -1.286  23.708  0.00  0.00    +0.004 A 
ATOM     25  C   UNL     1       4.862   0.946  22.821  0.00  0.00    +0.004 A 
ATOM     26  C   UNL     1       5.428  -0.262  23.227  0.00  0.00    -0.050 A 
ATOM     27  C   UNL     1       6.904  -0.456  23.147  0.00  0.00    +0.044 C 
ENDBRANCH  17  19
ENDBRANCH  11  14
BRANCH  10   7
ATOM      7  N   UNL     1      -4.211   1.032  25.553  0.00  0.00    -0.185 NA
ATOM     28  H   UNL     1      -3.436   0.874  26.209  0.00  0.00    +0.148 HD
BRANCH   7   1
ATOM      1  S   UNL     1      -4.717   2.630  25.286  0.00  0.00    +0.065 S 
ATOM      4  O   UNL     1      -5.476   3.095  26.431  0.00  0.00    -0.153 OA
ATOM      5  O   UNL     1      -5.278   2.724  23.952  0.00  0.00    -0.153 OA
BRANCH   1  16
ATOM      2  S   UNL     1      -1.862   2.652  25.955  0.00  0.00    -0.077 S 
ATOM     16  C   UNL     1      -3.178   3.501  25.262  0.00  0.00    +0.142 A 
ATOM     18  C   UNL     1      -2.804   4.742  24.795  0.00  0.00    +0.036 A 
ATOM     20  C   UNL     1      -1.419   4.999  25.009  0.00  0.00    +0.010 A 
ATOM     21  C   UNL     1      -0.788   3.944  25.631  0.00  0.00    +0.047 A 
ENDBRANCH   1  16
ENDBRANCH   7   1
ENDBRANCH  10   7
TORSDOF 5
ENDMDL
MODEL 2
REMARK VINA RESULT:      -0.7      1.493      3.451
REMARK  Name = 25338365
REMARK  7 active torsions:
REMARK  status: ('A' for Active; 'I' for Inactive)
REMARK    1  A    between atoms: S_1  and  N_7
REMARK    2  A    between atoms: S_1  and  C_16
REMARK    3  A    between atoms: N_6  and  C_15
REMARK    4  A    between atoms: N_7  and  C_10
REMARK    5  A    between atoms: C_11  and  C_14
REMARK    6  A    between atoms: C_17  and  C_19
REMARK    7  A    between atoms: C_26  and  C_27
REMARK                            x       y       z     vdW  Elec       q    Type
REMARK                         _______ _______ _______ _____ _____    ______ ____
ROOT
ATOM      6  N   UNL     1      -2.769   2.338  23.059  0.00  0.00    -0.293 NA
ATOM     10  C   UNL     1      -3.274   3.335  25.106  0.00  0.00    +0.092 C 
ATOM     11  C   UNL     1      -1.461   2.803  23.562  0.00  0.00    +0.147 C 
ATOM     12  C   UNL     1      -1.753   3.291  24.994  0.00  0.00    +0.050 C 
ATOM     13  C   UNL     1      -3.768   3.217  23.674  0.00  0.00    +0.105 C 
ATOM     15  C   UNL     1      -2.859   2.346  21.604  0.00  0.00    +0.105 C 
ENDROOT
BRANCH  11  14
ATOM      3  O   UNL     1      -0.805   0.449  23.501  0.00  0.00    -0.336 OA
ATOM      8  N   UNL     1       0.918   1.880  23.490  0.00  0.00    -0.190 NA
ATOM      9  N   UNL     1       0.353  -0.337  23.461  0.00  0.00    -0.056 NA
ATOM     14  C   UNL     1      -0.384   1.741  23.517  0.00  0.00    +0.245 A 
ATOM     17  C   UNL     1       1.327   0.579  23.456  0.00  0.00    +0.202 A 
BRANCH  17  19
ATOM     19  C   UNL     1       2.717   0.227  23.417  0.00  0.00    +0.022 A 
ATOM     22  C   UNL     1       3.121  -1.059  23.777  0.00  0.00    +0.012 A 
ATOM     23  C   UNL     1       3.665   1.171  23.021  0.00  0.00    +0.012 A 
ATOM     24  C   UNL     1       4.473  -1.401  23.739  0.00  0.00    +0.004 A 
ATOM     25  C   UNL     1       5.016   0.828  22.985  0.00  0.00    +0.004 A 
ATOM     26  C   UNL     1       5.420  -0.458  23.343  0.00  0.00    -0.050 A 
ATOM     27  C   UNL     1       6.865  -0.824  23.304  0.00  0.00    +0.044 C 
ENDBRANCH  17  19
ENDBRANCH  11  14
BRANCH  10   7
ATOM      7  N   UNL     1      -3.756   2.180  25.906  0.00  0.00    -0.185 NA
ATOM     28  H   UNL     1      -3.597   2.260  26.919  0.00  0.00    +0.148 HD
BRANCH   7   1
ATOM      1  S   UNL     1      -5.104   1.294  25.378  0.00  0.00    +0.065 S 
ATOM      4  O   UNL     1      -5.643   1.903  24.178  0.00  0.00    -0.153 OA
ATOM      5  O   UNL     1      -5.966   1.037  26.516  0.00  0.00    -0.153 OA
BRANCH   1  16
ATOM      2  S   UNL     1      -3.054  -0.734  25.905  0.00  0.00    -0.077 S 
ATOM     16  C   UNL     1      -4.372  -0.250  24.925  0.00  0.00    +0.142 A 
ATOM     18  C   UNL     1      -4.641  -1.166  23.932  0.00  0.00    +0.036 A 
ATOM     20  C   UNL     1      -3.753  -2.279  23.976  0.00  0.00    +0.010 A 
ATOM     21  C   UNL     1      -2.839  -2.172  25.001  0.00  0.00    +0.047 A 
ENDBRANCH   1  16
ENDBRANCH   7   1
ENDBRANCH  10   7
TORSDOF 5
ENDMDL
MODEL 3
REMARK VINA RESULT:      -0.3      1.376      1.630
REMARK  Name = 25338365
REMARK  7 active torsions:
REMARK  status: ('A' for Active; 'I' for Inactive)
REMARK    1  A    between atoms: S_1  and  N_7
REMARK    2  A    between atoms: S_1  and  C_16
REMARK    3  A    between atoms: N_6  and  C_15
REMARK    4  A    between atoms: N_7  and  C_10
REMARK    5  A    between atoms: C_11  and  C_14
REMARK    6  A    between atoms: C_17  and  C_19
REMARK    7  A    between atoms: C_26  and  C_27
REMARK                            x       y       z     vdW  Elec       q    Type
REMARK                         _______ _______ _______ _____ _____    ______ ____
ROOT
ATOM      6  N   UNL     1      -3.977  -0.390  24.318  0.00  0.00    -0.293 NA
ATOM     10  C   UNL     1      -4.527   1.877  24.336  0.00  0.00    +0.092 C 
ATOM     11  C   UNL     1      -2.988   0.224  23.412  0.00  0.00    +0.147 C 
ATOM     12  C   UNL     1      -3.218   1.740  23.562  0.00  0.00    +0.050 C 
ATOM     13  C   UNL     1      -5.149   0.490  24.287  0.00  0.00    +0.105 C 
ATOM     15  C   UNL     1      -4.316  -1.760  23.954  0.00  0.00    +0.105 C 
ENDROOT
BRANCH  11  14
ATOM      3  O   UNL     1      -1.388  -1.154  24.643  0.00  0.00    -0.336 OA
ATOM      8  N   UNL     1      -0.444   0.275  23.199  0.00  0.00    -0.190 NA
ATOM      9  N   UNL     1      -0.005  -1.352  24.746  0.00  0.00    -0.056 NA
ATOM     14  C   UNL     1      -1.560  -0.180  23.711  0.00  0.00    +0.245 A 
ATOM     17  C   UNL     1       0.482  -0.474  23.864  0.00  0.00    +0.202 A 
BRANCH  17  19
ATOM     19  C   UNL     1       1.888  -0.321  23.625  0.00  0.00    +0.022 A 
ATOM     22  C   UNL     1       2.763  -1.368  23.913  0.00  0.00    +0.012 A 
ATOM     23  C   UNL     1       2.381   0.877  23.106  0.00  0.00    +0.012 A 
ATOM     24  C   UNL     1       4.130  -1.219  23.680  0.00  0.00    +0.004 A 
ATOM     25  C   UNL     1       3.749   1.025  22.875  0.00  0.00    +0.004 A 
ATOM     26  C   UNL     1       4.623  -0.023  23.161  0.00  0.00    -0.050 A 
ATOM     27  C   UNL     1       6.085   0.137  22.914  0.00  0.00    +0.044 C 
ENDBRANCH  17  19
ENDBRANCH  11  14
BRANCH  10   7
ATOM      7  N   UNL     1      -4.244   2.256  25.744  0.00  0.00    -0.185 NA
ATOM     28  H   UNL     1      -3.791   1.523  26.306  0.00  0.00    +0.148 HD
BRANCH   7   1
ATOM      1  S   UNL     1      -3.914   3.875  26.130  0.00  0.00    +0.065 S 
ATOM      4  O   UNL     1      -3.892   4.035  27.571  0.00  0.00    -0.153 OA
ATOM      5  O   UNL     1      -4.756   4.729  25.314  0.00  0.00    -0.153 OA
BRANCH   1  16
ATOM      2  S   UNL     1      -1.205   2.772  25.931  0.00  0.00    -0.077 S 
ATOM     16  C   UNL     1      -2.260   4.062  25.536  0.00  0.00    +0.142 A 
ATOM     18  C   UNL     1      -1.624   5.044  24.808  0.00  0.00    +0.036 A 
ATOM     20  C   UNL     1      -0.254   4.733  24.571  0.00  0.00    +0.010 A 
ATOM     21  C   UNL     1       0.105   3.526  25.128  0.00  0.00    +0.047 A 
ENDBRANCH   1  16
ENDBRANCH   7   1
ENDBRANCH  10   7
TORSDOF 5
ENDMDL
