MODEL 1
REMARK VINA RESULT:      -0.8      0.000      0.000
REMARK  Name = 11885261
REMARK  2 active torsions:
REMARK  status: ('A' for Active; 'I' for Inactive)
REMARK    1  A    between atoms: C_14  and  C_15
REMARK    2  A    between atoms: C_23  and  C_25
REMARK                            x       y       z     vdW  Elec       q    Type
REMARK                         _______ _______ _______ _____ _____    ______ ____
ROOT
ATOM      1  O   UNL     1      -5.495   0.492  26.147  0.00  0.00    -0.275 OA
ATOM      2  O   UNL     1      -1.617   4.033  27.153  0.00  0.00    -0.267 OA
ATOM      3  N   UNL     1      -4.393   1.080  24.189  0.00  0.00    -0.300 N 
ATOM      4  N   UNL     1      -2.044   3.052  25.082  0.00  0.00    -0.311 N 
ATOM      7  C   UNL     1      -4.176   3.528  23.745  0.00  0.00    +0.027 C 
ATOM      8  C   UNL     1      -2.495   1.973  22.850  0.00  0.00    +0.054 C 
ATOM      9  C   UNL     1      -3.314   3.220  22.526  0.00  0.00    +0.018 C 
ATOM     10  C   UNL     1      -5.113   2.348  24.056  0.00  0.00    +0.113 C 
ATOM     11  C   UNL     1      -3.443   0.784  23.105  0.00  0.00    +0.117 C 
ATOM     12  C   UNL     1      -3.259   3.864  24.927  0.00  0.00    +0.130 C 
ATOM     13  C   UNL     1      -1.614   2.197  24.063  0.00  0.00    +0.027 A 
ATOM     15  C   UNL     1      -4.695   0.223  25.248  0.00  0.00    +0.219 C 
ATOM     20  C   UNL     1      -0.439   1.557  24.175  0.00  0.00    +0.022 A 
ATOM     22  C   UNL     1      -1.287   3.261  26.250  0.00  0.00    +0.259 A 
ATOM     23  C   UNL     1       0.008   2.501  26.363  0.00  0.00    +0.050 A 
ATOM     24  C   UNL     1       0.377   1.709  25.346  0.00  0.00    +0.015 A 
ENDROOT
BRANCH  23  25
ATOM      5  N   UNL     1       2.970   3.136  28.573  0.00  0.00    -0.243 NA
ATOM      6  N   UNL     1       1.130   2.391  29.940  0.00  0.00    -0.243 NA
ATOM     25  C   UNL     1       0.855   2.610  27.563  0.00  0.00    +0.024 A 
ATOM     26  C   UNL     1       2.166   3.025  27.495  0.00  0.00    +0.122 A 
ATOM     27  C   UNL     1       0.382   2.302  28.819  0.00  0.00    +0.122 A 
ATOM     28  C   UNL     1       2.396   2.807  29.746  0.00  0.00    +0.221 A 
ENDBRANCH  23  25
BRANCH  15  14
ATOM     14  C   UNL     1      -3.979  -1.095  25.271  0.00  0.00    +0.075 C 
ATOM     16  C   UNL     1      -4.259  -1.863  23.978  0.00  0.00    +0.013 C 
ATOM     17  C   UNL     1      -2.480  -0.871  25.478  0.00  0.00    +0.013 C 
ATOM     18  C   UNL     1      -3.474  -3.171  23.918  0.00  0.00    +0.001 C 
ATOM     19  C   UNL     1      -1.700  -2.181  25.415  0.00  0.00    +0.001 C 
ATOM     21  C   UNL     1      -1.979  -2.942  24.122  0.00  0.00    +0.000 C 
ENDBRANCH  15  14
TORSDOF 2
ENDMDL
