MODEL 1
REMARK VINA RESULT:       0.3      0.000      0.000
REMARK  Name = 26761929
REMARK  4 active torsions:
REMARK  status: ('A' for Active; 'I' for Inactive)
REMARK    1  A    between atoms: N_4  and  C_14
REMARK    2  A    between atoms: C_9  and  C_15
REMARK    3  A    between atoms: C_14  and  C_16
REMARK    4  A    between atoms: C_20  and  C_23
REMARK                            x       y       z     vdW  Elec       q    Type
REMARK                         _______ _______ _______ _____ _____    ______ ____
ROOT
ATOM      4  N   UNL     1      -3.241   0.751  24.010  0.00  0.00    -0.281 NA
ATOM      5  N   UNL     1      -4.483  -2.733  23.581  0.00  0.00    -0.347 N 
ATOM      6  N   UNL     1      -3.387  -3.129  25.489  0.00  0.00    -0.240 NA
ATOM      9  C   UNL     1      -2.030   0.392  24.811  0.00  0.00    +0.152 C 
ATOM     10  C   UNL     1      -2.294  -0.851  25.734  0.00  0.00    +0.086 C 
ATOM     11  C   UNL     1      -3.759  -0.318  23.131  0.00  0.00    +0.140 C 
ATOM     12  C   UNL     1      -3.813  -1.588  23.888  0.00  0.00    +0.053 A 
ATOM     13  C   UNL     1      -3.146  -1.857  25.056  0.00  0.00    +0.065 A 
ATOM     17  C   UNL     1      -4.195  -3.633  24.577  0.00  0.00    +0.197 A 
ATOM     30  H   UNL     1      -5.075  -2.895  22.777  0.00  0.00    +0.167 HD
ENDROOT
BRANCH   9  15
ATOM      3  O   UNL     1      -0.852   0.144  22.669  0.00  0.00    -0.336 OA
ATOM      7  N   UNL     1       0.509   0.309  24.440  0.00  0.00    -0.190 NA
ATOM      8  N   UNL     1       0.453   0.067  22.165  0.00  0.00    -0.056 NA
ATOM     15  C   UNL     1      -0.728   0.285  24.015  0.00  0.00    +0.245 A 
ATOM     20  C   UNL     1       1.198   0.171  23.270  0.00  0.00    +0.202 A 
BRANCH  20  23
ATOM      1 CL   UNL     1       5.553  -2.445  24.105  0.00  0.00    -0.081 Cl
ATOM      2  F   UNL     1       6.761   0.085  23.142  0.00  0.00    -0.204 F 
ATOM     23  C   UNL     1       2.632   0.145  23.239  0.00  0.00    +0.024 A 
ATOM     25  C   UNL     1       3.318  -1.001  23.641  0.00  0.00    +0.034 A 
ATOM     26  C   UNL     1       3.340   1.266  22.807  0.00  0.00    +0.014 A 
ATOM     27  C   UNL     1       4.712  -1.027  23.609  0.00  0.00    +0.077 A 
ATOM     28  C   UNL     1       4.735   1.241  22.775  0.00  0.00    +0.040 A 
ATOM     29  C   UNL     1       5.421   0.093  23.177  0.00  0.00    +0.142 A 
ENDBRANCH  20  23
ENDBRANCH   9  15
BRANCH   4  14
ATOM     14  C   UNL     1      -3.128   2.020  23.299  0.00  0.00    +0.120 C 
BRANCH  14  16
ATOM     16  C   UNL     1      -2.743   3.147  24.221  0.00  0.00    -0.033 A 
ATOM     18  C   UNL     1      -3.631   3.574  25.209  0.00  0.00    +0.005 A 
ATOM     19  C   UNL     1      -1.500   3.764  24.088  0.00  0.00    +0.005 A 
ATOM     21  C   UNL     1      -3.275   4.618  26.062  0.00  0.00    +0.000 A 
ATOM     22  C   UNL     1      -1.143   4.807  24.940  0.00  0.00    +0.000 A 
ATOM     24  C   UNL     1      -2.031   5.235  25.929  0.00  0.00    +0.000 A 
ENDBRANCH  14  16
ENDBRANCH   4  14
TORSDOF 4
ENDMDL
MODEL 2
REMARK VINA RESULT:       0.9      1.517      4.757
REMARK  Name = 26761929
REMARK  4 active torsions:
REMARK  status: ('A' for Active; 'I' for Inactive)
REMARK    1  A    between atoms: N_4  and  C_14
REMARK    2  A    between atoms: C_9  and  C_15
REMARK    3  A    between atoms: C_14  and  C_16
REMARK    4  A    between atoms: C_20  and  C_23
REMARK                            x       y       z     vdW  Elec       q    Type
REMARK                         _______ _______ _______ _____ _____    ______ ____
ROOT
ATOM      4  N   UNL     1      -2.178   1.057  25.377  0.00  0.00    -0.281 NA
ATOM      5  N   UNL     1      -1.315   4.619  26.037  0.00  0.00    -0.347 N 
ATOM      6  N   UNL     1      -2.019   4.953  23.941  0.00  0.00    -0.240 NA
ATOM      9  C   UNL     1      -1.993   1.120  23.895  0.00  0.00    +0.152 C 
ATOM     10  C   UNL     1      -2.402   2.522  23.318  0.00  0.00    +0.086 C 
ATOM     11  C   UNL     1      -1.423   2.063  26.153  0.00  0.00    +0.140 C 
ATOM     12  C   UNL     1      -1.580   3.389  25.517  0.00  0.00    +0.053 A 
ATOM     13  C   UNL     1      -2.004   3.619  24.232  0.00  0.00    +0.065 A 
ATOM     17  C   UNL     1      -1.596   5.530  25.049  0.00  0.00    +0.197 A 
ATOM     30  H   UNL     1      -0.974   4.827  26.966  0.00  0.00    +0.167 HD
ENDROOT
BRANCH   9  15
ATOM      3  O   UNL     1      -0.656  -0.185  22.298  0.00  0.00    -0.336 OA
ATOM      7  N   UNL     1       0.564   0.884  23.842  0.00  0.00    -0.190 NA
ATOM      8  N   UNL     1       0.681  -0.496  22.021  0.00  0.00    -0.056 NA
ATOM     15  C   UNL     1      -0.636   0.632  23.384  0.00  0.00    +0.245 A 
ATOM     20  C   UNL     1       1.338   0.170  22.975  0.00  0.00    +0.202 A 
BRANCH  20  23
ATOM      1 CL   UNL     1       5.602  -2.476  24.124  0.00  0.00    -0.081 Cl
ATOM      2  F   UNL     1       6.887   0.096  23.403  0.00  0.00    -0.204 F 
ATOM     23  C   UNL     1       2.768   0.146  23.087  0.00  0.00    +0.024 A 
ATOM     25  C   UNL     1       3.417  -1.016  23.503  0.00  0.00    +0.034 A 
ATOM     26  C   UNL     1       3.510   1.287  22.780  0.00  0.00    +0.014 A 
ATOM     27  C   UNL     1       4.807  -1.039  23.611  0.00  0.00    +0.077 A 
ATOM     28  C   UNL     1       4.901   1.265  22.888  0.00  0.00    +0.040 A 
ATOM     29  C   UNL     1       5.550   0.101  23.303  0.00  0.00    +0.142 A 
ENDBRANCH  20  23
ENDBRANCH   9  15
BRANCH   4  14
ATOM     14  C   UNL     1      -2.022  -0.280  25.940  0.00  0.00    +0.120 C 
BRANCH  14  16
ATOM     16  C   UNL     1      -2.722  -1.323  25.109  0.00  0.00    -0.033 A 
ATOM     18  C   UNL     1      -2.056  -2.497  24.757  0.00  0.00    +0.005 A 
ATOM     19  C   UNL     1      -4.037  -1.115  24.693  0.00  0.00    +0.005 A 
ATOM     21  C   UNL     1      -2.705  -3.462  23.988  0.00  0.00    +0.000 A 
ATOM     22  C   UNL     1      -4.685  -2.079  23.923  0.00  0.00    +0.000 A 
ATOM     24  C   UNL     1      -4.020  -3.254  23.571  0.00  0.00    +0.000 A 
ENDBRANCH  14  16
ENDBRANCH   4  14
TORSDOF 4
ENDMDL
MODEL 3
REMARK VINA RESULT:       1.1      1.899      4.165
REMARK  Name = 26761929
REMARK  4 active torsions:
REMARK  status: ('A' for Active; 'I' for Inactive)
REMARK    1  A    between atoms: N_4  and  C_14
REMARK    2  A    between atoms: C_9  and  C_15
REMARK    3  A    between atoms: C_14  and  C_16
REMARK    4  A    between atoms: C_20  and  C_23
REMARK                            x       y       z     vdW  Elec       q    Type
REMARK                         _______ _______ _______ _____ _____    ______ ____
ROOT
ATOM      4  N   UNL     1      -3.980   0.358  23.746  0.00  0.00    -0.281 NA
ATOM      5  N   UNL     1      -5.326   2.795  26.218  0.00  0.00    -0.347 N 
ATOM      6  N   UNL     1      -4.881   4.315  24.639  0.00  0.00    -0.240 NA
ATOM      9  C   UNL     1      -3.095   1.328  23.030  0.00  0.00    +0.152 C 
ATOM     10  C   UNL     1      -3.723   2.767  22.993  0.00  0.00    +0.086 C 
ATOM     11  C   UNL     1      -4.302   0.707  25.145  0.00  0.00    +0.140 C 
ATOM     12  C   UNL     1      -4.684   2.135  25.216  0.00  0.00    +0.053 A 
ATOM     13  C   UNL     1      -4.417   3.086  24.264  0.00  0.00    +0.065 A 
ATOM     17  C   UNL     1      -5.423   4.107  25.823  0.00  0.00    +0.197 A 
ATOM     30  H   UNL     1      -5.665   2.403  27.087  0.00  0.00    +0.167 HD
ENDROOT
BRANCH   9  15
ATOM      3  O   UNL     1      -1.362   1.846  24.694  0.00  0.00    -0.336 OA
ATOM      7  N   UNL     1      -0.574   0.882  22.833  0.00  0.00    -0.190 NA
ATOM      8  N   UNL     1       0.023   1.732  24.871  0.00  0.00    -0.056 NA
ATOM     15  C   UNL     1      -1.629   1.322  23.469  0.00  0.00    +0.245 A 
ATOM     20  C   UNL     1       0.415   1.156  23.732  0.00  0.00    +0.202 A 
BRANCH  20  23
ATOM      1 CL   UNL     1       4.222  -2.308  23.872  0.00  0.00    -0.081 Cl
ATOM      2  F   UNL     1       5.742  -0.062  22.675  0.00  0.00    -0.204 F 
ATOM     23  C   UNL     1       1.788   0.837  23.462  0.00  0.00    +0.024 A 
ATOM     25  C   UNL     1       2.283  -0.431  23.763  0.00  0.00    +0.034 A 
ATOM     26  C   UNL     1       2.628   1.798  22.897  0.00  0.00    +0.014 A 
ATOM     27  C   UNL     1       3.617  -0.740  23.499  0.00  0.00    +0.077 A 
ATOM     28  C   UNL     1       3.962   1.489  22.633  0.00  0.00    +0.040 A 
ATOM     29  C   UNL     1       4.457   0.219  22.934  0.00  0.00    +0.142 A 
ENDBRANCH  20  23
ENDBRANCH   9  15
BRANCH   4  14
ATOM     14  C   UNL     1      -3.556  -1.033  23.627  0.00  0.00    +0.120 C 
BRANCH  14  16
ATOM     16  C   UNL     1      -2.396  -1.345  24.535  0.00  0.00    -0.033 A 
ATOM     18  C   UNL     1      -2.358  -0.815  25.825  0.00  0.00    +0.005 A 
ATOM     19  C   UNL     1      -1.359  -2.164  24.087  0.00  0.00    +0.005 A 
ATOM     21  C   UNL     1      -1.283  -1.103  26.666  0.00  0.00    +0.000 A 
ATOM     22  C   UNL     1      -0.285  -2.452  24.927  0.00  0.00    +0.000 A 
ATOM     24  C   UNL     1      -0.247  -1.922  26.218  0.00  0.00    +0.000 A 
ENDBRANCH  14  16
ENDBRANCH   4  14
TORSDOF 4
ENDMDL
MODEL 4
REMARK VINA RESULT:       1.8      1.440      1.912
REMARK  Name = 26761929
REMARK  4 active torsions:
REMARK  status: ('A' for Active; 'I' for Inactive)
REMARK    1  A    between atoms: N_4  and  C_14
REMARK    2  A    between atoms: C_9  and  C_15
REMARK    3  A    between atoms: C_14  and  C_16
REMARK    4  A    between atoms: C_20  and  C_23
REMARK                            x       y       z     vdW  Elec       q    Type
REMARK                         _______ _______ _______ _____ _____    ______ ____
ROOT
ATOM      4  N   UNL     1      -3.868   0.844  24.157  0.00  0.00    -0.281 NA
ATOM      5  N   UNL     1      -4.057  -2.781  23.325  0.00  0.00    -0.347 N 
ATOM      6  N   UNL     1      -3.556  -3.082  25.483  0.00  0.00    -0.240 NA
ATOM      9  C   UNL     1      -2.922   0.695  25.305  0.00  0.00    +0.152 C 
ATOM     10  C   UNL     1      -3.162  -0.647  26.084  0.00  0.00    +0.086 C 
ATOM     11  C   UNL     1      -3.818  -0.237  23.150  0.00  0.00    +0.140 C 
ATOM     12  C   UNL     1      -3.806  -1.546  23.840  0.00  0.00    +0.053 A 
ATOM     13  C   UNL     1      -3.496  -1.757  25.160  0.00  0.00    +0.065 A 
ATOM     17  C   UNL     1      -3.894  -3.675  24.355  0.00  0.00    +0.197 A 
ATOM     30  H   UNL     1      -4.311  -3.003  22.372  0.00  0.00    +0.167 HD
ENDROOT
BRANCH   9  15
ATOM      3  O   UNL     1      -0.810   1.881  25.723  0.00  0.00    -0.336 OA
ATOM      7  N   UNL     1      -0.696   0.380  24.064  0.00  0.00    -0.190 NA
ATOM      8  N   UNL     1       0.505   1.931  25.243  0.00  0.00    -0.056 NA
ATOM     15  C   UNL     1      -1.448   0.943  24.974  0.00  0.00    +0.245 A 
ATOM     20  C   UNL     1       0.493   1.020  24.267  0.00  0.00    +0.202 A 
BRANCH  20  23
ATOM      1 CL   UNL     1       5.623   1.036  23.829  0.00  0.00    -0.081 Cl
ATOM      2  F   UNL     1       4.980  -0.148  21.188  0.00  0.00    -0.204 F 
ATOM     23  C   UNL     1       1.653   0.721  23.477  0.00  0.00    +0.024 A 
ATOM     25  C   UNL     1       2.927   0.992  23.975  0.00  0.00    +0.034 A 
ATOM     26  C   UNL     1       1.506   0.159  22.208  0.00  0.00    +0.014 A 
ATOM     27  C   UNL     1       4.053   0.700  23.207  0.00  0.00    +0.077 A 
ATOM     28  C   UNL     1       2.633  -0.133  21.440  0.00  0.00    +0.040 A 
ATOM     29  C   UNL     1       3.907   0.138  21.940  0.00  0.00    +0.142 A 
ENDBRANCH  20  23
ENDBRANCH   9  15
BRANCH   4  14
ATOM     14  C   UNL     1      -3.839   2.160  23.529  0.00  0.00    +0.120 C 
BRANCH  14  16
ATOM     16  C   UNL     1      -3.424   3.235  24.499  0.00  0.00    -0.033 A 
ATOM     18  C   UNL     1      -2.317   4.036  24.221  0.00  0.00    +0.005 A 
ATOM     19  C   UNL     1      -4.146   3.428  25.677  0.00  0.00    +0.005 A 
ATOM     21  C   UNL     1      -1.932   5.031  25.120  0.00  0.00    +0.000 A 
ATOM     22  C   UNL     1      -3.762   4.421  26.576  0.00  0.00    +0.000 A 
ATOM     24  C   UNL     1      -2.655   5.224  26.297  0.00  0.00    +0.000 A 
ENDBRANCH  14  16
ENDBRANCH   4  14
TORSDOF 4
ENDMDL
MODEL 5
REMARK VINA RESULT:       2.4      3.852      5.808
REMARK  Name = 26761929
REMARK  4 active torsions:
REMARK  status: ('A' for Active; 'I' for Inactive)
REMARK    1  A    between atoms: N_4  and  C_14
REMARK    2  A    between atoms: C_9  and  C_15
REMARK    3  A    between atoms: C_14  and  C_16
REMARK    4  A    between atoms: C_20  and  C_23
REMARK                            x       y       z     vdW  Elec       q    Type
REMARK                         _______ _______ _______ _____ _____    ______ ____
ROOT
ATOM      4  N   UNL     1      -3.705   1.630  23.468  0.00  0.00    -0.281 NA
ATOM      5  N   UNL     1      -6.178   2.196  26.194  0.00  0.00    -0.347 N 
ATOM      6  N   UNL     1      -5.761   4.362  25.829  0.00  0.00    -0.240 NA
ATOM      9  C   UNL     1      -2.947   2.901  23.673  0.00  0.00    +0.152 C 
ATOM     10  C   UNL     1      -3.888   4.069  24.141  0.00  0.00    +0.086 C 
ATOM     11  C   UNL     1      -4.435   1.128  24.651  0.00  0.00    +0.140 C 
ATOM     12  C   UNL     1      -5.168   2.247  25.283  0.00  0.00    +0.053 A 
ATOM     13  C   UNL     1      -4.926   3.583  25.080  0.00  0.00    +0.065 A 
ATOM     17  C   UNL     1      -6.503   3.497  26.492  0.00  0.00    +0.197 A 
ATOM     30  H   UNL     1      -6.608   1.366  26.581  0.00  0.00    +0.167 HD
ENDROOT
BRANCH   9  15
ATOM      3  O   UNL     1      -0.508   2.651  23.839  0.00  0.00    -0.336 OA
ATOM      7  N   UNL     1      -1.545   2.771  25.820  0.00  0.00    -0.190 NA
ATOM      8  N   UNL     1       0.497   2.553  24.810  0.00  0.00    -0.056 NA
ATOM     15  C   UNL     1      -1.678   2.776  24.519  0.00  0.00    +0.245 A 
ATOM     20  C   UNL     1      -0.193   2.631  25.951  0.00  0.00    +0.202 A 
BRANCH  20  23
ATOM      1 CL   UNL     1       4.151   2.699  28.713  0.00  0.00    -0.081 Cl
ATOM      2  F   UNL     1       2.233   2.415  30.955  0.00  0.00    -0.204 F 
ATOM     23  C   UNL     1       0.437   2.576  27.239  0.00  0.00    +0.024 A 
ATOM     25  C   UNL     1       1.826   2.654  27.341  0.00  0.00    +0.034 A 
ATOM     26  C   UNL     1      -0.341   2.442  28.390  0.00  0.00    +0.014 A 
ATOM     27  C   UNL     1       2.437   2.601  28.593  0.00  0.00    +0.077 A 
ATOM     28  C   UNL     1       0.271   2.389  29.642  0.00  0.00    +0.040 A 
ATOM     29  C   UNL     1       1.660   2.469  29.744  0.00  0.00    +0.142 A 
ENDBRANCH  20  23
ENDBRANCH   9  15
BRANCH   4  14
ATOM     14  C   UNL     1      -2.930   0.571  22.830  0.00  0.00    +0.120 C 
BRANCH  14  16
ATOM     16  C   UNL     1      -2.899  -0.682  23.666  0.00  0.00    -0.033 A 
ATOM     18  C   UNL     1      -1.809  -0.939  24.497  0.00  0.00    +0.005 A 
ATOM     19  C   UNL     1      -3.961  -1.584  23.609  0.00  0.00    +0.005 A 
ATOM     21  C   UNL     1      -1.781  -2.100  25.270  0.00  0.00    +0.000 A 
ATOM     22  C   UNL     1      -3.933  -2.744  24.381  0.00  0.00    +0.000 A 
ATOM     24  C   UNL     1      -2.842  -3.002  25.213  0.00  0.00    +0.000 A 
ENDBRANCH  14  16
ENDBRANCH   4  14
TORSDOF 4
ENDMDL
MODEL 6
REMARK VINA RESULT:       2.4      1.738      4.775
REMARK  Name = 26761929
REMARK  4 active torsions:
REMARK  status: ('A' for Active; 'I' for Inactive)
REMARK    1  A    between atoms: N_4  and  C_14
REMARK    2  A    between atoms: C_9  and  C_15
REMARK    3  A    between atoms: C_14  and  C_16
REMARK    4  A    between atoms: C_20  and  C_23
REMARK                            x       y       z     vdW  Elec       q    Type
REMARK                         _______ _______ _______ _____ _____    ______ ____
ROOT
ATOM      4  N   UNL     1      -3.170   0.798  24.988  0.00  0.00    -0.281 NA
ATOM      5  N   UNL     1      -4.341   4.281  25.592  0.00  0.00    -0.347 N 
ATOM      6  N   UNL     1      -4.304   4.450  23.363  0.00  0.00    -0.240 NA
ATOM      9  C   UNL     1      -2.510   1.076  23.676  0.00  0.00    +0.152 C 
ATOM     10  C   UNL     1      -3.274   2.183  22.866  0.00  0.00    +0.086 C 
ATOM     11  C   UNL     1      -3.300   1.960  25.892  0.00  0.00    +0.140 C 
ATOM     12  C   UNL     1      -3.804   3.120  25.125  0.00  0.00    +0.053 A 
ATOM     13  C   UNL     1      -3.786   3.250  23.759  0.00  0.00    +0.065 A 
ATOM     17  C   UNL     1      -4.628   5.050  24.491  0.00  0.00    +0.197 A 
ATOM     30  H   UNL     1      -4.498   4.533  26.559  0.00  0.00    +0.167 HD
ENDROOT
BRANCH   9  15
ATOM      3  O   UNL     1      -0.595   2.492  24.283  0.00  0.00    -0.336 OA
ATOM      7  N   UNL     1      -0.020   0.540  23.349  0.00  0.00    -0.190 NA
ATOM      8  N   UNL     1       0.805   2.481  24.235  0.00  0.00    -0.056 NA
ATOM     15  C   UNL     1      -1.000   1.313  23.742  0.00  0.00    +0.245 A 
ATOM     20  C   UNL     1       1.067   1.299  23.672  0.00  0.00    +0.202 A 
BRANCH  20  23
ATOM      1 CL   UNL     1       4.532  -2.500  23.944  0.00  0.00    -0.081 Cl
ATOM      2  F   UNL     1       6.259  -0.446  22.683  0.00  0.00    -0.204 F 
ATOM     23  C   UNL     1       2.404   0.845  23.419  0.00  0.00    +0.024 A 
ATOM     25  C   UNL     1       2.778  -0.454  23.764  0.00  0.00    +0.034 A 
ATOM     26  C   UNL     1       3.332   1.703  22.829  0.00  0.00    +0.014 A 
ATOM     27  C   UNL     1       4.077  -0.895  23.517  0.00  0.00    +0.077 A 
ATOM     28  C   UNL     1       4.632   1.262  22.582  0.00  0.00    +0.040 A 
ATOM     29  C   UNL     1       5.005  -0.038  22.926  0.00  0.00    +0.142 A 
ENDBRANCH  20  23
ENDBRANCH   9  15
BRANCH   4  14
ATOM     14  C   UNL     1      -2.636  -0.366  25.688  0.00  0.00    +0.120 C 
BRANCH  14  16
ATOM     16  C   UNL     1      -2.807  -1.629  24.886  0.00  0.00    -0.033 A 
ATOM     18  C   UNL     1      -1.693  -2.396  24.548  0.00  0.00    +0.005 A 
ATOM     19  C   UNL     1      -4.080  -2.032  24.482  0.00  0.00    +0.005 A 
ATOM     21  C   UNL     1      -1.851  -3.566  23.805  0.00  0.00    +0.000 A 
ATOM     22  C   UNL     1      -4.239  -3.200  23.740  0.00  0.00    +0.000 A 
ATOM     24  C   UNL     1      -3.124  -3.969  23.401  0.00  0.00    +0.000 A 
ENDBRANCH  14  16
ENDBRANCH   4  14
TORSDOF 4
ENDMDL
