MODEL 1
REMARK VINA RESULT:      17.1      0.000      0.000
REMARK  Name = 71692850
REMARK  5 active torsions:
REMARK  status: ('A' for Active; 'I' for Inactive)
REMARK    1  A    between atoms: N_6  and  C_23
REMARK    2  A    between atoms: N_8  and  C_25
REMARK    3  A    between atoms: C_9  and  C_14
REMARK    4  A    between atoms: C_14  and  C_17
REMARK    5  A    between atoms: C_23  and  C_33
REMARK                            x       y       z     vdW  Elec       q    Type
REMARK                         _______ _______ _______ _____ _____    ______ ____
ROOT
ATOM      1  O   UNL     1      -0.563   5.923  25.340  0.00  0.00    -0.274 OA
ATOM      3  O   UNL     1      -1.396   0.907  23.823  0.00  0.00    -0.488 OA
ATOM      5  N   UNL     1      -2.605   4.974  24.808  0.00  0.00    -0.300 N 
ATOM      7  N   UNL     1      -0.371   3.524  23.074  0.00  0.00    -0.304 NA
ATOM      9  C   UNL     1      -4.247   2.988  26.171  0.00  0.00    +0.008 C 
ATOM     10  C   UNL     1      -3.589   2.747  24.781  0.00  0.00    +0.032 C 
ATOM     11  C   UNL     1      -3.438   4.062  26.936  0.00  0.00    +0.023 C 
ATOM     12  C   UNL     1      -3.441   4.072  24.008  0.00  0.00    +0.115 C 
ATOM     13  C   UNL     1      -3.196   5.324  26.103  0.00  0.00    +0.108 C 
ATOM     15  C   UNL     1      -4.279   1.701  23.945  0.00  0.00    -0.023 C 
ATOM     16  C   UNL     1      -1.279   5.311  24.539  0.00  0.00    +0.229 C 
ATOM     18  C   UNL     1      -3.782   0.553  23.454  0.00  0.00    +0.010 C 
ATOM     19  C   UNL     1      -0.694   4.943  23.188  0.00  0.00    +0.178 C 
ATOM     20  C   UNL     1      -2.401  -0.051  23.511  0.00  0.00    +0.256 C 
ATOM     21  C   UNL     1       0.485   2.996  24.133  0.00  0.00    +0.120 C 
ATOM     22  C   UNL     1       0.879   1.552  23.875  0.00  0.00    +0.010 A 
ATOM     24  C   UNL     1      -0.081   0.523  23.737  0.00  0.00    +0.125 A 
ATOM     25  C   UNL     1       2.650  -0.089  23.582  0.00  0.00    +0.030 A 
ATOM     26  C   UNL     1       2.243   1.227  23.796  0.00  0.00    +0.031 A 
ATOM     29  C   UNL     1       0.342  -0.795  23.529  0.00  0.00    +0.048 A 
ATOM     30  C   UNL     1       1.702  -1.097  23.450  0.00  0.00    +0.027 A 
ATOM     35  H   UNL     1       0.072   3.366  22.168  0.00  0.00    +0.123 HD
ENDROOT
BRANCH  25   8
ATOM      4  O   UNL     1       6.708  -1.073  23.080  0.00  0.00    -0.377 OA
ATOM      8  N   UNL     1       4.014  -0.396  23.505  0.00  0.00    -0.326 N 
ATOM     27  C   UNL     1       4.866   0.448  22.656  0.00  0.00    +0.133 C 
ATOM     28  C   UNL     1       4.460  -1.784  23.656  0.00  0.00    +0.133 C 
ATOM     31  C   UNL     1       6.323   0.302  23.083  0.00  0.00    +0.178 C 
ATOM     32  C   UNL     1       5.939  -1.812  24.029  0.00  0.00    +0.178 C 
ENDBRANCH  25   8
BRANCH   9  14
ATOM     14  C   UNL     1      -5.732   3.369  26.119  0.00  0.00    +0.100 C 
BRANCH  14  17
ATOM      2  O   UNL     1      -7.238   1.684  25.259  0.00  0.00    -0.276 OA
ATOM      6  N   UNL     1      -6.676   1.673  27.514  0.00  0.00    -0.316 N 
ATOM     17  C   UNL     1      -6.633   2.158  26.215  0.00  0.00    +0.213 C 
ATOM     34  H   UNL     1      -6.130   2.134  28.236  0.00  0.00    +0.149 HD
BRANCH   6  23
ATOM     23  C   UNL     1      -7.460   0.523  27.900  0.00  0.00    +0.101 C 
ATOM     33  C   UNL     1      -7.083   0.032  29.282  0.00  0.00    +0.024 C 
ENDBRANCH   6  23
ENDBRANCH  14  17
ENDBRANCH   9  14
TORSDOF 4
ENDMDL
MODEL 2
REMARK VINA RESULT:      18.8      2.234      4.331
REMARK  Name = 71692850
REMARK  5 active torsions:
REMARK  status: ('A' for Active; 'I' for Inactive)
REMARK    1  A    between atoms: N_6  and  C_23
REMARK    2  A    between atoms: N_8  and  C_25
REMARK    3  A    between atoms: C_9  and  C_14
REMARK    4  A    between atoms: C_14  and  C_17
REMARK    5  A    between atoms: C_23  and  C_33
REMARK                            x       y       z     vdW  Elec       q    Type
REMARK                         _______ _______ _______ _____ _____    ______ ____
ROOT
ATOM      1  O   UNL     1      -2.634  -3.528  24.474  0.00  0.00    -0.274 OA
ATOM      3  O   UNL     1      -0.863   1.472  24.566  0.00  0.00    -0.488 OA
ATOM      5  N   UNL     1      -3.811  -1.672  25.198  0.00  0.00    -0.300 N 
ATOM      7  N   UNL     1      -0.728  -1.167  25.782  0.00  0.00    -0.304 NA
ATOM      9  C   UNL     1      -4.935   0.604  23.765  0.00  0.00    +0.008 C 
ATOM     10  C   UNL     1      -3.780   0.730  24.802  0.00  0.00    +0.032 C 
ATOM     11  C   UNL     1      -4.938  -0.828  23.180  0.00  0.00    +0.023 C 
ATOM     12  C   UNL     1      -3.884  -0.372  25.873  0.00  0.00    +0.115 C 
ATOM     13  C   UNL     1      -4.916  -1.909  24.265  0.00  0.00    +0.108 C 
ATOM     15  C   UNL     1      -3.661   2.094  25.429  0.00  0.00    -0.023 C 
ATOM     16  C   UNL     1      -2.717  -2.537  25.207  0.00  0.00    +0.229 C 
ATOM     18  C   UNL     1      -2.619   2.943  25.407  0.00  0.00    +0.010 C 
ATOM     19  C   UNL     1      -1.589  -2.273  26.189  0.00  0.00    +0.178 C 
ATOM     20  C   UNL     1      -1.236   2.823  24.820  0.00  0.00    +0.256 C 
ATOM     21  C   UNL     1      -0.182  -1.269  24.432  0.00  0.00    +0.120 C 
ATOM     22  C   UNL     1       0.802  -0.151  24.133  0.00  0.00    +0.010 A 
ATOM     24  C   UNL     1       0.432   1.212  24.194  0.00  0.00    +0.125 A 
ATOM     25  C   UNL     1       3.043   0.508  23.454  0.00  0.00    +0.030 A 
ATOM     26  C   UNL     1       2.114  -0.485  23.759  0.00  0.00    +0.031 A 
ATOM     29  C   UNL     1       1.373   2.201  23.879  0.00  0.00    +0.048 A 
ATOM     30  C   UNL     1       2.672   1.847  23.513  0.00  0.00    +0.027 A 
ATOM     35  H   UNL     1       0.037  -1.090  26.454  0.00  0.00    +0.123 HD
ENDROOT
BRANCH  25   8
ATOM      4  O   UNL     1       7.021  -0.273  22.340  0.00  0.00    -0.377 OA
ATOM      8  N   UNL     1       4.346   0.157  23.085  0.00  0.00    -0.326 N 
ATOM     27  C   UNL     1       5.435   0.445  24.029  0.00  0.00    +0.133 C 
ATOM     28  C   UNL     1       4.729   0.157  21.669  0.00  0.00    +0.133 C 
ATOM     31  C   UNL     1       6.640  -0.433  23.706  0.00  0.00    +0.178 C 
ATOM     32  C   UNL     1       5.972  -0.704  21.472  0.00  0.00    +0.178 C 
ENDBRANCH  25   8
BRANCH   9  14
ATOM     14  C   UNL     1      -6.323   0.967  24.307  0.00  0.00    +0.100 C 
BRANCH  14  17
ATOM      2  O   UNL     1      -6.349   1.622  26.635  0.00  0.00    -0.276 OA
ATOM      6  N   UNL     1      -6.050   3.240  24.994  0.00  0.00    -0.316 N 
ATOM     17  C   UNL     1      -6.247   1.947  25.456  0.00  0.00    +0.213 C 
ATOM     34  H   UNL     1      -5.970   3.404  23.994  0.00  0.00    +0.149 HD
BRANCH   6  23
ATOM     23  C   UNL     1      -5.940   4.382  25.871  0.00  0.00    +0.101 C 
ATOM     33  C   UNL     1      -6.383   5.656  25.181  0.00  0.00    +0.024 C 
ENDBRANCH   6  23
ENDBRANCH  14  17
ENDBRANCH   9  14
TORSDOF 4
ENDMDL
MODEL 3
REMARK VINA RESULT:      20.0      1.343      2.057
REMARK  Name = 71692850
REMARK  5 active torsions:
REMARK  status: ('A' for Active; 'I' for Inactive)
REMARK    1  A    between atoms: N_6  and  C_23
REMARK    2  A    between atoms: N_8  and  C_25
REMARK    3  A    between atoms: C_9  and  C_14
REMARK    4  A    between atoms: C_14  and  C_17
REMARK    5  A    between atoms: C_23  and  C_33
REMARK                            x       y       z     vdW  Elec       q    Type
REMARK                         _______ _______ _______ _____ _____    ______ ____
ROOT
ATOM      1  O   UNL     1      -1.871   4.913  25.020  0.00  0.00    -0.274 OA
ATOM      3  O   UNL     1      -1.605  -0.317  24.163  0.00  0.00    -0.488 OA
ATOM      5  N   UNL     1      -3.665   3.476  24.751  0.00  0.00    -0.300 N 
ATOM      7  N   UNL     1      -1.237   2.342  23.042  0.00  0.00    -0.304 NA
ATOM      9  C   UNL     1      -4.750   1.372  26.451  0.00  0.00    +0.008 C 
ATOM     10  C   UNL     1      -4.115   1.103  25.054  0.00  0.00    +0.032 C 
ATOM     11  C   UNL     1      -4.173   2.688  27.025  0.00  0.00    +0.023 C 
ATOM     12  C   UNL     1      -4.307   2.316  24.124  0.00  0.00    +0.115 C 
ATOM     13  C   UNL     1      -4.262   3.852  26.035  0.00  0.00    +0.108 C 
ATOM     15  C   UNL     1      -4.585  -0.169  24.399  0.00  0.00    -0.023 C 
ATOM     16  C   UNL     1      -2.463   4.059  24.350  0.00  0.00    +0.229 C 
ATOM     18  C   UNL     1      -3.861  -1.233  24.011  0.00  0.00    +0.010 C 
ATOM     19  C   UNL     1      -1.869   3.657  23.012  0.00  0.00    +0.178 C 
ATOM     20  C   UNL     1      -2.379  -1.505  24.038  0.00  0.00    +0.256 C 
ATOM     21  C   UNL     1      -0.238   2.158  24.091  0.00  0.00    +0.120 C 
ATOM     22  C   UNL     1       0.463   0.815  23.975  0.00  0.00    +0.010 A 
ATOM     24  C   UNL     1      -0.242  -0.409  24.027  0.00  0.00    +0.125 A 
ATOM     25  C   UNL     1       2.547  -0.419  23.749  0.00  0.00    +0.030 A 
ATOM     26  C   UNL     1       1.861   0.791  23.836  0.00  0.00    +0.031 A 
ATOM     29  C   UNL     1       0.460  -1.618  23.945  0.00  0.00    +0.048 A 
ATOM     30  C   UNL     1       1.848  -1.620  23.804  0.00  0.00    +0.027 A 
ATOM     35  H   UNL     1      -0.810   2.169  22.131  0.00  0.00    +0.123 HD
ENDROOT
BRANCH  25   8
ATOM      4  O   UNL     1       6.695  -0.510  23.064  0.00  0.00    -0.377 OA
ATOM      8  N   UNL     1       3.940  -0.425  23.610  0.00  0.00    -0.326 N 
ATOM     27  C   UNL     1       4.551   0.572  22.720  0.00  0.00    +0.133 C 
ATOM     28  C   UNL     1       4.682  -1.682  23.745  0.00  0.00    +0.133 C 
ATOM     31  C   UNL     1       6.023   0.749  23.080  0.00  0.00    +0.178 C 
ATOM     32  C   UNL     1       6.147  -1.385  24.050  0.00  0.00    +0.178 C 
ENDBRANCH  25   8
BRANCH   9  14
ATOM     14  C   UNL     1      -6.283   1.406  26.462  0.00  0.00    +0.100 C 
BRANCH  14  17
ATOM      2  O   UNL     1      -7.406   1.971  24.396  0.00  0.00    -0.276 OA
ATOM      6  N   UNL     1      -6.613   3.670  25.771  0.00  0.00    -0.316 N 
ATOM     17  C   UNL     1      -6.838   2.347  25.417  0.00  0.00    +0.213 C 
ATOM     34  H   UNL     1      -6.138   3.877  26.644  0.00  0.00    +0.149 HD
BRANCH   6  23
ATOM     23  C   UNL     1      -7.034   4.786  24.956  0.00  0.00    +0.101 C 
ATOM     33  C   UNL     1      -6.280   6.050  25.314  0.00  0.00    +0.024 C 
ENDBRANCH   6  23
ENDBRANCH  14  17
ENDBRANCH   9  14
TORSDOF 4
ENDMDL
MODEL 4
REMARK VINA RESULT:      20.4      1.520      1.798
REMARK  Name = 71692850
REMARK  5 active torsions:
REMARK  status: ('A' for Active; 'I' for Inactive)
REMARK    1  A    between atoms: N_6  and  C_23
REMARK    2  A    between atoms: N_8  and  C_25
REMARK    3  A    between atoms: C_9  and  C_14
REMARK    4  A    between atoms: C_14  and  C_17
REMARK    5  A    between atoms: C_23  and  C_33
REMARK                            x       y       z     vdW  Elec       q    Type
REMARK                         _______ _______ _______ _____ _____    ______ ____
ROOT
ATOM      1  O   UNL     1      -2.495   4.731  23.878  0.00  0.00    -0.274 OA
ATOM      3  O   UNL     1      -1.850  -0.528  24.157  0.00  0.00    -0.488 OA
ATOM      5  N   UNL     1      -4.179   3.145  23.914  0.00  0.00    -0.300 N 
ATOM      7  N   UNL     1      -1.646   1.851  22.496  0.00  0.00    -0.304 NA
ATOM      9  C   UNL     1      -5.148   1.377  26.020  0.00  0.00    +0.008 C 
ATOM     10  C   UNL     1      -4.470   0.864  24.715  0.00  0.00    +0.032 C 
ATOM     11  C   UNL     1      -4.676   2.823  26.302  0.00  0.00    +0.023 C 
ATOM     12  C   UNL     1      -4.728   1.835  23.547  0.00  0.00    +0.115 C 
ATOM     13  C   UNL     1      -4.826   3.741  25.086  0.00  0.00    +0.108 C 
ATOM     15  C   UNL     1      -4.837  -0.548  24.343  0.00  0.00    -0.023 C 
ATOM     16  C   UNL     1      -3.013   3.714  23.403  0.00  0.00    +0.229 C 
ATOM     18  C   UNL     1      -4.034  -1.616  24.194  0.00  0.00    +0.010 C 
ATOM     19  C   UNL     1      -2.367   3.081  22.184  0.00  0.00    +0.178 C 
ATOM     20  C   UNL     1      -2.537  -1.768  24.285  0.00  0.00    +0.256 C 
ATOM     21  C   UNL     1      -0.657   1.966  23.565  0.00  0.00    +0.120 C 
ATOM     22  C   UNL     1       0.138   0.683  23.741  0.00  0.00    +0.010 A 
ATOM     24  C   UNL     1      -0.482  -0.549  24.050  0.00  0.00    +0.125 A 
ATOM     25  C   UNL     1       2.306  -0.417  23.792  0.00  0.00    +0.030 A 
ATOM     26  C   UNL     1       1.536   0.731  23.617  0.00  0.00    +0.031 A 
ATOM     29  C   UNL     1       0.304  -1.694  24.230  0.00  0.00    +0.048 A 
ATOM     30  C   UNL     1       1.691  -1.625  24.099  0.00  0.00    +0.027 A 
ATOM     35  H   UNL     1      -1.190   1.520  21.645  0.00  0.00    +0.123 HD
ENDROOT
BRANCH  25   8
ATOM      4  O   UNL     1       6.458  -0.302  23.140  0.00  0.00    -0.377 OA
ATOM      8  N   UNL     1       3.698  -0.352  23.663  0.00  0.00    -0.326 N 
ATOM     27  C   UNL     1       4.264   0.658  22.758  0.00  0.00    +0.133 C 
ATOM     28  C   UNL     1       4.505  -1.565  23.829  0.00  0.00    +0.133 C 
ATOM     31  C   UNL     1       5.721   0.920  23.126  0.00  0.00    +0.178 C 
ATOM     32  C   UNL     1       5.949  -1.186  24.138  0.00  0.00    +0.178 C 
ENDBRANCH  25   8
BRANCH   9  14
ATOM     14  C   UNL     1      -6.680   1.302  26.016  0.00  0.00    +0.100 C 
BRANCH  14  17
ATOM      2  O   UNL     1      -7.961   2.406  27.746  0.00  0.00    -0.276 OA
ATOM      6  N   UNL     1      -6.890   0.398  28.219  0.00  0.00    -0.316 N 
ATOM     17  C   UNL     1      -7.260   1.459  27.404  0.00  0.00    +0.213 C 
ATOM     34  H   UNL     1      -6.311  -0.344  27.838  0.00  0.00    +0.149 HD
BRANCH   6  23
ATOM     23  C   UNL     1      -7.298   0.286  29.600  0.00  0.00    +0.101 C 
ATOM     33  C   UNL     1      -6.860  -1.032  30.204  0.00  0.00    +0.024 C 
ENDBRANCH   6  23
ENDBRANCH  14  17
ENDBRANCH   9  14
TORSDOF 4
ENDMDL
