MODEL 1
REMARK VINA RESULT:       2.0      0.000      0.000
REMARK  Name = 51137143
REMARK  7 active torsions:
REMARK  status: ('A' for Active; 'I' for Inactive)
REMARK    1  A    between atoms: S_1  and  C_19
REMARK    2  A    between atoms: S_1  and  C_26
REMARK    3  A    between atoms: N_5  and  C_11
REMARK    4  A    between atoms: C_7  and  C_12
REMARK    5  A    between atoms: C_11  and  C_13
REMARK    6  A    between atoms: C_16  and  C_23
REMARK    7  A    between atoms: C_26  and  C_27
REMARK                            x       y       z     vdW  Elec       q    Type
REMARK                         _______ _______ _______ _____ _____    ______ ____
ROOT
ATOM      2  O   UNL     1      -1.183   0.579  24.114  0.00  0.00    -0.439 OA
ATOM      6  N   UNL     1      -0.336  -1.472  23.651  0.00  0.00    -0.213 NA
ATOM     12  C   UNL     1      -1.392  -0.761  23.980  0.00  0.00    +0.201 A 
ATOM     14  C   UNL     1       0.661  -0.532  23.555  0.00  0.00    +0.111 A 
ATOM     15  C   UNL     1       0.146   0.725  23.839  0.00  0.00    +0.155 A 
ATOM     18  C   UNL     1       2.022  -0.650  23.237  0.00  0.00    +0.058 A 
ATOM     19  C   UNL     1       2.800   0.516  23.222  0.00  0.00    +0.090 A 
ATOM     20  C   UNL     1       0.884   1.902  23.833  0.00  0.00    +0.050 A 
ATOM     21  C   UNL     1       2.240   1.766  23.514  0.00  0.00    +0.030 A 
ENDROOT
BRANCH  12   7
ATOM      5  N   UNL     1      -4.984  -0.475  24.639  0.00  0.00    -0.297 NA
ATOM      7  C   UNL     1      -2.805  -1.237  24.229  0.00  0.00    +0.090 C 
ATOM      8  C   UNL     1      -3.159  -1.464  25.708  0.00  0.00    +0.029 C 
ATOM      9  C   UNL     1      -3.865  -0.249  23.722  0.00  0.00    +0.097 C 
ATOM     10  C   UNL     1      -4.373  -0.579  25.963  0.00  0.00    +0.085 C 
BRANCH   5  11
ATOM     11  C   UNL     1      -5.981   0.583  24.570  0.00  0.00    +0.119 C 
BRANCH  11  13
ATOM     13  C   UNL     1      -5.370   1.944  24.773  0.00  0.00    -0.030 A 
ATOM     16  C   UNL     1      -5.652   2.694  25.915  0.00  0.00    -0.046 A 
ATOM     17  C   UNL     1      -4.510   2.452  23.800  0.00  0.00    +0.005 A 
ATOM     22  C   UNL     1      -5.074   3.953  26.083  0.00  0.00    +0.003 A 
ATOM     23  C   UNL     1      -6.570   2.172  26.970  0.00  0.00    +0.044 C 
ATOM     24  C   UNL     1      -3.931   3.710  23.967  0.00  0.00    +0.000 A 
ATOM     25  C   UNL     1      -4.213   4.461  25.110  0.00  0.00    +0.000 A 
ENDBRANCH  11  13
ENDBRANCH   5  11
ENDBRANCH  12   7
BRANCH  19   1
ATOM      1  S   UNL     1       4.501   0.406  22.832  0.00  0.00    -0.003 S 
ATOM      3  O   UNL     1       4.645   0.300  21.388  0.00  0.00    -0.169 OA
ATOM      4  O   UNL     1       5.191   1.466  23.553  0.00  0.00    -0.169 OA
BRANCH   1  26
ATOM     26  C   UNL     1       5.011  -1.149  23.523  0.00  0.00    +0.168 C 
ATOM     27  C   UNL     1       5.923  -0.955  24.714  0.00  0.00    +0.028 C 
ENDBRANCH   1  26
ENDBRANCH  19   1
TORSDOF 5
ENDMDL
MODEL 2
REMARK VINA RESULT:       3.3      1.197      1.875
REMARK  Name = 51137143
REMARK  7 active torsions:
REMARK  status: ('A' for Active; 'I' for Inactive)
REMARK    1  A    between atoms: S_1  and  C_19
REMARK    2  A    between atoms: S_1  and  C_26
REMARK    3  A    between atoms: N_5  and  C_11
REMARK    4  A    between atoms: C_7  and  C_12
REMARK    5  A    between atoms: C_11  and  C_13
REMARK    6  A    between atoms: C_16  and  C_23
REMARK    7  A    between atoms: C_26  and  C_27
REMARK                            x       y       z     vdW  Elec       q    Type
REMARK                         _______ _______ _______ _____ _____    ______ ____
ROOT
ATOM      2  O   UNL     1      -0.938   0.774  23.676  0.00  0.00    -0.439 OA
ATOM      6  N   UNL     1      -0.480  -1.431  23.930  0.00  0.00    -0.213 NA
ATOM     12  C   UNL     1      -1.398  -0.491  23.892  0.00  0.00    +0.201 A 
ATOM     14  C   UNL     1       0.690  -0.741  23.722  0.00  0.00    +0.111 A 
ATOM     15  C   UNL     1       0.413   0.610  23.566  0.00  0.00    +0.155 A 
ATOM     18  C   UNL     1       2.022  -1.172  23.649  0.00  0.00    +0.058 A 
ATOM     19  C   UNL     1       3.015  -0.209  23.422  0.00  0.00    +0.090 A 
ATOM     20  C   UNL     1       1.368   1.593  23.338  0.00  0.00    +0.050 A 
ATOM     21  C   UNL     1       2.693   1.145  23.270  0.00  0.00    +0.030 A 
ENDROOT
BRANCH  12   7
ATOM      5  N   UNL     1      -4.824   0.562  24.652  0.00  0.00    -0.297 NA
ATOM      7  C   UNL     1      -2.894  -0.630  24.057  0.00  0.00    +0.090 C 
ATOM      8  C   UNL     1      -3.352  -1.061  25.460  0.00  0.00    +0.029 C 
ATOM      9  C   UNL     1      -3.649   0.679  23.787  0.00  0.00    +0.097 C 
ATOM     10  C   UNL     1      -4.312   0.032  25.915  0.00  0.00    +0.085 C 
BRANCH   5  11
ATOM     11  C   UNL     1      -5.517   1.830  24.823  0.00  0.00    +0.119 C 
BRANCH  11  13
ATOM     13  C   UNL     1      -4.562   2.956  25.117  0.00  0.00    -0.030 A 
ATOM     16  C   UNL     1      -3.904   3.628  24.087  0.00  0.00    -0.046 A 
ATOM     17  C   UNL     1      -4.338   3.325  26.444  0.00  0.00    +0.005 A 
ATOM     22  C   UNL     1      -3.023   4.669  24.383  0.00  0.00    +0.003 A 
ATOM     23  C   UNL     1      -4.127   3.251  22.659  0.00  0.00    +0.044 C 
ATOM     24  C   UNL     1      -3.458   4.365  26.740  0.00  0.00    +0.000 A 
ATOM     25  C   UNL     1      -2.801   5.037  25.709  0.00  0.00    +0.000 A 
ENDBRANCH  11  13
ENDBRANCH   5  11
ENDBRANCH  12   7
BRANCH  19   1
ATOM      1  S   UNL     1       4.689  -0.709  23.328  0.00  0.00    -0.003 S 
ATOM      3  O   UNL     1       4.768  -2.135  23.605  0.00  0.00    -0.169 OA
ATOM      4  O   UNL     1       5.241  -0.179  22.089  0.00  0.00    -0.169 OA
BRANCH   1  26
ATOM     26  C   UNL     1       5.475   0.130  24.682  0.00  0.00    +0.168 C 
ATOM     27  C   UNL     1       6.345   1.269  24.199  0.00  0.00    +0.028 C 
ENDBRANCH   1  26
ENDBRANCH  19   1
TORSDOF 5
ENDMDL
MODEL 3
REMARK VINA RESULT:       3.3      1.842      3.552
REMARK  Name = 51137143
REMARK  7 active torsions:
REMARK  status: ('A' for Active; 'I' for Inactive)
REMARK    1  A    between atoms: S_1  and  C_19
REMARK    2  A    between atoms: S_1  and  C_26
REMARK    3  A    between atoms: N_5  and  C_11
REMARK    4  A    between atoms: C_7  and  C_12
REMARK    5  A    between atoms: C_11  and  C_13
REMARK    6  A    between atoms: C_16  and  C_23
REMARK    7  A    between atoms: C_26  and  C_27
REMARK                            x       y       z     vdW  Elec       q    Type
REMARK                         _______ _______ _______ _____ _____    ______ ____
ROOT
ATOM      2  O   UNL     1      -0.399   0.915  23.004  0.00  0.00    -0.439 OA
ATOM      6  N   UNL     1       0.689   2.148  24.564  0.00  0.00    -0.213 NA
ATOM     12  C   UNL     1      -0.462   1.825  24.017  0.00  0.00    +0.201 A 
ATOM     14  C   UNL     1       1.596   1.393  23.862  0.00  0.00    +0.111 A 
ATOM     15  C   UNL     1       0.933   0.637  22.905  0.00  0.00    +0.155 A 
ATOM     18  C   UNL     1       2.991   1.284  23.964  0.00  0.00    +0.058 A 
ATOM     19  C   UNL     1       3.650   0.412  23.087  0.00  0.00    +0.090 A 
ATOM     20  C   UNL     1       1.551  -0.238  22.020  0.00  0.00    +0.050 A 
ATOM     21  C   UNL     1       2.943  -0.333  22.135  0.00  0.00    +0.030 A 
ENDROOT
BRANCH  12   7
ATOM      5  N   UNL     1      -4.026   1.617  24.840  0.00  0.00    -0.297 NA
ATOM      7  C   UNL     1      -1.844   2.330  24.366  0.00  0.00    +0.090 C 
ATOM      8  C   UNL     1      -2.752   2.615  23.157  0.00  0.00    +0.029 C 
ATOM      9  C   UNL     1      -2.641   1.342  25.227  0.00  0.00    +0.097 C 
ATOM     10  C   UNL     1      -3.991   1.758  23.384  0.00  0.00    +0.085 C 
BRANCH   5  11
ATOM     11  C   UNL     1      -4.942   0.573  25.274  0.00  0.00    +0.119 C 
BRANCH  11  13
ATOM     13  C   UNL     1      -4.451  -0.798  24.892  0.00  0.00    -0.030 A 
ATOM     16  C   UNL     1      -3.643  -1.537  25.755  0.00  0.00    -0.046 A 
ATOM     17  C   UNL     1      -4.816  -1.328  23.654  0.00  0.00    +0.005 A 
ATOM     22  C   UNL     1      -3.199  -2.807  25.381  0.00  0.00    +0.003 A 
ATOM     23  C   UNL     1      -3.238  -0.992  27.085  0.00  0.00    +0.044 C 
ATOM     24  C   UNL     1      -4.373  -2.596  23.279  0.00  0.00    +0.000 A 
ATOM     25  C   UNL     1      -3.565  -3.336  24.144  0.00  0.00    +0.000 A 
ENDBRANCH  11  13
ENDBRANCH   5  11
ENDBRANCH  12   7
BRANCH  19   1
ATOM      1  S   UNL     1       5.389   0.252  23.183  0.00  0.00    -0.003 S 
ATOM      3  O   UNL     1       5.900  -0.110  21.870  0.00  0.00    -0.169 OA
ATOM      4  O   UNL     1       5.906   1.430  23.863  0.00  0.00    -0.169 OA
BRANCH   1  26
ATOM     26  C   UNL     1       5.643  -1.150  24.246  0.00  0.00    +0.168 C 
ATOM     27  C   UNL     1       4.569  -2.197  24.048  0.00  0.00    +0.028 C 
ENDBRANCH   1  26
ENDBRANCH  19   1
TORSDOF 5
ENDMDL
MODEL 4
REMARK VINA RESULT:       4.0      1.260      2.000
REMARK  Name = 51137143
REMARK  7 active torsions:
REMARK  status: ('A' for Active; 'I' for Inactive)
REMARK    1  A    between atoms: S_1  and  C_19
REMARK    2  A    between atoms: S_1  and  C_26
REMARK    3  A    between atoms: N_5  and  C_11
REMARK    4  A    between atoms: C_7  and  C_12
REMARK    5  A    between atoms: C_11  and  C_13
REMARK    6  A    between atoms: C_16  and  C_23
REMARK    7  A    between atoms: C_26  and  C_27
REMARK                            x       y       z     vdW  Elec       q    Type
REMARK                         _______ _______ _______ _____ _____    ______ ____
ROOT
ATOM      2  O   UNL     1      -0.701  -0.582  22.362  0.00  0.00    -0.439 OA
ATOM      6  N   UNL     1      -0.063  -0.358  24.524  0.00  0.00    -0.213 NA
ATOM     12  C   UNL     1      -1.051  -0.551  23.679  0.00  0.00    +0.201 A 
ATOM     14  C   UNL     1       1.037  -0.252  23.709  0.00  0.00    +0.111 A 
ATOM     15  C   UNL     1       0.650  -0.388  22.384  0.00  0.00    +0.155 A 
ATOM     18  C   UNL     1       2.392  -0.041  24.001  0.00  0.00    +0.058 A 
ATOM     19  C   UNL     1       3.295   0.023  22.930  0.00  0.00    +0.090 A 
ATOM     20  C   UNL     1       1.514  -0.331  21.297  0.00  0.00    +0.050 A 
ATOM     21  C   UNL     1       2.863  -0.120  21.606  0.00  0.00    +0.030 A 
ENDROOT
BRANCH  12   7
ATOM      5  N   UNL     1      -4.441   0.391  24.699  0.00  0.00    -0.297 NA
ATOM      7  C   UNL     1      -2.520  -0.743  23.976  0.00  0.00    +0.090 C 
ATOM      8  C   UNL     1      -2.839  -1.145  25.426  0.00  0.00    +0.029 C 
ATOM      9  C   UNL     1      -3.349   0.526  23.733  0.00  0.00    +0.097 C 
ATOM     10  C   UNL     1      -3.801  -0.075  25.929  0.00  0.00    +0.085 C 
BRANCH   5  11
ATOM     11  C   UNL     1      -5.170   1.636  24.892  0.00  0.00    +0.119 C 
BRANCH  11  13
ATOM     13  C   UNL     1      -4.241   2.803  25.101  0.00  0.00    -0.030 A 
ATOM     16  C   UNL     1      -3.711   3.501  24.016  0.00  0.00    -0.046 A 
ATOM     17  C   UNL     1      -3.914   3.183  26.402  0.00  0.00    +0.005 A 
ATOM     22  C   UNL     1      -2.852   4.580  24.233  0.00  0.00    +0.003 A 
ATOM     23  C   UNL     1      -4.046   3.113  22.614  0.00  0.00    +0.044 C 
ATOM     24  C   UNL     1      -3.056   4.261  26.620  0.00  0.00    +0.000 A 
ATOM     25  C   UNL     1      -2.525   4.960  25.534  0.00  0.00    +0.000 A 
ENDBRANCH  11  13
ENDBRANCH   5  11
ENDBRANCH  12   7
BRANCH  19   1
ATOM      1  S   UNL     1       4.993   0.286  23.255  0.00  0.00    -0.003 S 
ATOM      3  O   UNL     1       5.744   0.073  22.027  0.00  0.00    -0.169 OA
ATOM      4  O   UNL     1       5.118   1.547  23.972  0.00  0.00    -0.169 OA
BRANCH   1  26
ATOM     26  C   UNL     1       5.435  -1.025  24.371  0.00  0.00    +0.168 C 
ATOM     27  C   UNL     1       4.770  -2.327  23.987  0.00  0.00    +0.028 C 
ENDBRANCH   1  26
ENDBRANCH  19   1
TORSDOF 5
ENDMDL
MODEL 5
REMARK VINA RESULT:       4.4      2.082      3.751
REMARK  Name = 51137143
REMARK  7 active torsions:
REMARK  status: ('A' for Active; 'I' for Inactive)
REMARK    1  A    between atoms: S_1  and  C_19
REMARK    2  A    between atoms: S_1  and  C_26
REMARK    3  A    between atoms: N_5  and  C_11
REMARK    4  A    between atoms: C_7  and  C_12
REMARK    5  A    between atoms: C_11  and  C_13
REMARK    6  A    between atoms: C_16  and  C_23
REMARK    7  A    between atoms: C_26  and  C_27
REMARK                            x       y       z     vdW  Elec       q    Type
REMARK                         _______ _______ _______ _____ _____    ______ ____
ROOT
ATOM      2  O   UNL     1      -1.232   1.971  24.929  0.00  0.00    -0.439 OA
ATOM      6  N   UNL     1       0.580   3.328  24.841  0.00  0.00    -0.213 NA
ATOM     12  C   UNL     1      -0.678   3.188  25.193  0.00  0.00    +0.201 A 
ATOM     14  C   UNL     1       0.896   2.107  24.297  0.00  0.00    +0.111 A 
ATOM     15  C   UNL     1      -0.212   1.274  24.349  0.00  0.00    +0.155 A 
ATOM     18  C   UNL     1       2.086   1.618  23.739  0.00  0.00    +0.058 A 
ATOM     19  C   UNL     1       2.096   0.302  23.257  0.00  0.00    +0.090 A 
ATOM     20  C   UNL     1      -0.240  -0.035  23.883  0.00  0.00    +0.050 A 
ATOM     21  C   UNL     1       0.955  -0.507  23.329  0.00  0.00    +0.030 A 
ENDROOT
BRANCH  12   7
ATOM      5  N   UNL     1      -3.821   4.910  25.956  0.00  0.00    -0.297 NA
ATOM      7  C   UNL     1      -1.589   4.198  25.852  0.00  0.00    +0.090 C 
ATOM      8  C   UNL     1      -1.742   5.526  25.089  0.00  0.00    +0.029 C 
ATOM      9  C   UNL     1      -3.024   3.684  26.027  0.00  0.00    +0.097 C 
ATOM     10  C   UNL     1      -3.239   5.674  24.852  0.00  0.00    +0.085 C 
BRANCH   5  11
ATOM     11  C   UNL     1      -5.238   4.642  25.758  0.00  0.00    +0.119 C 
BRANCH  11  13
ATOM     13  C   UNL     1      -5.510   3.172  25.577  0.00  0.00    -0.030 A 
ATOM     16  C   UNL     1      -5.053   2.491  24.450  0.00  0.00    -0.046 A 
ATOM     17  C   UNL     1      -6.232   2.492  26.558  0.00  0.00    +0.005 A 
ATOM     22  C   UNL     1      -5.317   1.128  24.303  0.00  0.00    +0.003 A 
ATOM     23  C   UNL     1      -4.279   3.197  23.386  0.00  0.00    +0.044 C 
ATOM     24  C   UNL     1      -6.496   1.130  26.412  0.00  0.00    +0.000 A 
ATOM     25  C   UNL     1      -6.038   0.448  25.284  0.00  0.00    +0.000 A 
ENDBRANCH  11  13
ENDBRANCH   5  11
ENDBRANCH  12   7
BRANCH  19   1
ATOM      1  S   UNL     1       3.562  -0.342  22.553  0.00  0.00    -0.003 S 
ATOM      3  O   UNL     1       3.808  -1.664  23.108  0.00  0.00    -0.169 OA
ATOM      4  O   UNL     1       3.476  -0.165  21.111  0.00  0.00    -0.169 OA
BRANCH   1  26
ATOM     26  C   UNL     1       4.846   0.726  23.160  0.00  0.00    +0.168 C 
ATOM     27  C   UNL     1       5.757   0.003  24.128  0.00  0.00    +0.028 C 
ENDBRANCH   1  26
ENDBRANCH  19   1
TORSDOF 5
ENDMDL
