MODEL 1
REMARK VINA RESULT:      11.4      0.000      0.000
REMARK  Name = 11912433
REMARK  4 active torsions:
REMARK  status: ('A' for Active; 'I' for Inactive)
REMARK    1  A    between atoms: O_6  and  C_33
REMARK    2  A    between atoms: O_6  and  C_34
REMARK    3  A    between atoms: N_9  and  C_18
REMARK    4  A    between atoms: C_25  and  C_28
REMARK                            x       y       z     vdW  Elec       q    Type
REMARK                         _______ _______ _______ _____ _____    ______ ____
ROOT
ATOM      4  O   UNL     1      -4.649  -0.210  23.633  0.00  0.00    -0.253 OA
ATOM      5  O   UNL     1       0.535   2.013  25.759  0.00  0.00    -0.267 OA
ATOM      7  N   UNL     1      -4.449   1.648  25.011  0.00  0.00    -0.285 N 
ATOM      8  N   UNL     1      -1.463   2.847  24.891  0.00  0.00    -0.311 N 
ATOM      9  N   UNL     1      -4.327  -0.550  25.879  0.00  0.00    -0.296 N 
ATOM     10  C   UNL     1      -3.442   3.501  26.375  0.00  0.00    +0.027 C 
ATOM     11  C   UNL     1      -3.616   3.741  23.939  0.00  0.00    +0.054 C 
ATOM     12  C   UNL     1      -3.781   4.483  25.262  0.00  0.00    +0.018 C 
ATOM     13  C   UNL     1      -4.377   2.276  26.339  0.00  0.00    +0.114 C 
ATOM     14  C   UNL     1      -4.614   2.574  23.884  0.00  0.00    +0.119 C 
ATOM     15  C   UNL     1      -1.968   3.100  26.247  0.00  0.00    +0.130 C 
ATOM     16  C   UNL     1      -2.202   3.219  23.767  0.00  0.00    +0.027 A 
ATOM     17  C   UNL     1      -4.485   0.264  24.762  0.00  0.00    +0.302 C 
ATOM     19  C   UNL     1      -1.671   3.092  22.541  0.00  0.00    +0.022 A 
ATOM     20  C   UNL     1      -0.161   2.318  24.789  0.00  0.00    +0.259 A 
ATOM     25  C   UNL     1       0.393   2.152  23.399  0.00  0.00    +0.047 A 
ATOM     27  C   UNL     1      -0.357   2.544  22.357  0.00  0.00    +0.015 A 
ATOM     35  H   UNL     1      -4.344  -0.160  26.810  0.00  0.00    +0.151 HD
ENDROOT
BRANCH   9  18
ATOM     18  C   UNL     1      -4.346  -1.993  25.788  0.00  0.00    +0.074 C 
ATOM     21  C   UNL     1      -4.490  -2.451  24.333  0.00  0.00    +0.022 C 
ATOM     22  C   UNL     1      -3.102  -2.602  26.442  0.00  0.00    +0.022 C 
ATOM     23  C   UNL     1      -3.220  -2.213  23.516  0.00  0.00    +0.002 C 
ATOM     24  C   UNL     1      -1.833  -2.363  25.622  0.00  0.00    +0.002 C 
ATOM     26  C   UNL     1      -1.998  -2.838  24.182  0.00  0.00    +0.000 C 
ENDBRANCH   9  18
BRANCH  25  28
ATOM     28  C   UNL     1       1.724   1.565  23.173  0.00  0.00    -0.012 A 
ATOM     29  C   UNL     1       2.830   2.394  22.979  0.00  0.00    +0.012 A 
ATOM     30  C   UNL     1       1.883   0.179  23.151  0.00  0.00    +0.012 A 
ATOM     31  C   UNL     1       4.091   1.838  22.765  0.00  0.00    +0.046 A 
ATOM     32  C   UNL     1       3.144  -0.377  22.937  0.00  0.00    +0.046 A 
ATOM     33  C   UNL     1       4.248   0.452  22.744  0.00  0.00    +0.130 A 
BRANCH  33   6
ATOM      6  O   UNL     1       5.478  -0.090  22.536  0.00  0.00    -0.406 OA
BRANCH   6  34
ATOM      1  F   UNL     1       5.846   0.194  24.745  0.00  0.00    -0.133 F 
ATOM      2  F   UNL     1       5.966  -1.833  23.934  0.00  0.00    -0.133 F 
ATOM      3  F   UNL     1       7.544  -0.353  23.482  0.00  0.00    -0.133 F 
ATOM     34  C   UNL     1       6.219  -0.534  23.667  0.00  0.00    +0.575 C 
ENDBRANCH   6  34
ENDBRANCH  33   6
ENDBRANCH  25  28
TORSDOF 4
ENDMDL
MODEL 2
REMARK VINA RESULT:      12.3      1.707      4.502
REMARK  Name = 11912433
REMARK  4 active torsions:
REMARK  status: ('A' for Active; 'I' for Inactive)
REMARK    1  A    between atoms: O_6  and  C_33
REMARK    2  A    between atoms: O_6  and  C_34
REMARK    3  A    between atoms: N_9  and  C_18
REMARK    4  A    between atoms: C_25  and  C_28
REMARK                            x       y       z     vdW  Elec       q    Type
REMARK                         _______ _______ _______ _____ _____    ______ ____
ROOT
ATOM      4  O   UNL     1      -3.465   2.102  26.595  0.00  0.00    -0.253 OA
ATOM      5  O   UNL     1      -0.413  -0.430  22.055  0.00  0.00    -0.267 OA
ATOM      7  N   UNL     1      -4.296   0.477  25.159  0.00  0.00    -0.285 N 
ATOM      8  N   UNL     1      -1.895  -1.115  23.721  0.00  0.00    -0.311 N 
ATOM      9  N   UNL     1      -4.169   2.748  24.509  0.00  0.00    -0.296 N 
ATOM     10  C   UNL     1      -4.422  -1.255  23.344  0.00  0.00    +0.027 C 
ATOM     11  C   UNL     1      -3.483  -1.853  25.531  0.00  0.00    +0.054 C 
ATOM     12  C   UNL     1      -4.386  -2.346  24.404  0.00  0.00    +0.018 C 
ATOM     13  C   UNL     1      -4.975   0.063  23.922  0.00  0.00    +0.114 C 
ATOM     14  C   UNL     1      -4.093  -0.586  26.152  0.00  0.00    +0.119 C 
ATOM     15  C   UNL     1      -3.011  -1.080  22.768  0.00  0.00    +0.130 C 
ATOM     16  C   UNL     1      -2.081  -1.559  25.032  0.00  0.00    +0.027 A 
ATOM     17  C   UNL     1      -3.942   1.796  25.497  0.00  0.00    +0.302 C 
ATOM     19  C   UNL     1      -1.026  -1.701  25.850  0.00  0.00    +0.022 A 
ATOM     20  C   UNL     1      -0.621  -0.789  23.216  0.00  0.00    +0.259 A 
ATOM     25  C   UNL     1       0.537  -0.922  24.168  0.00  0.00    +0.047 A 
ATOM     27  C   UNL     1       0.299  -1.370  25.411  0.00  0.00    +0.015 A 
ATOM     35  H   UNL     1      -4.692   2.517  23.678  0.00  0.00    +0.151 HD
ENDROOT
BRANCH   9  18
ATOM     18  C   UNL     1      -3.863   4.147  24.705  0.00  0.00    +0.074 C 
ATOM     21  C   UNL     1      -3.248   4.389  26.088  0.00  0.00    +0.022 C 
ATOM     22  C   UNL     1      -2.950   4.672  23.593  0.00  0.00    +0.022 C 
ATOM     23  C   UNL     1      -1.822   3.852  26.196  0.00  0.00    +0.002 C 
ATOM     24  C   UNL     1      -1.522   4.135  23.704  0.00  0.00    +0.002 C 
ATOM     26  C   UNL     1      -0.930   4.397  25.086  0.00  0.00    +0.000 C 
ENDBRANCH   9  18
BRANCH  25  28
ATOM     28  C   UNL     1       1.906  -0.562  23.761  0.00  0.00    -0.012 A 
ATOM     29  C   UNL     1       2.942  -1.487  23.898  0.00  0.00    +0.012 A 
ATOM     30  C   UNL     1       2.170   0.704  23.238  0.00  0.00    +0.012 A 
ATOM     31  C   UNL     1       4.239  -1.146  23.513  0.00  0.00    +0.046 A 
ATOM     32  C   UNL     1       3.466   1.045  22.852  0.00  0.00    +0.046 A 
ATOM     33  C   UNL     1       4.500   0.120  22.989  0.00  0.00    +0.130 A 
BRANCH  33   6
ATOM      6  O   UNL     1       5.765   0.451  22.612  0.00  0.00    -0.406 OA
BRANCH   6  34
ATOM      1  F   UNL     1       7.810   0.631  23.552  0.00  0.00    -0.133 F 
ATOM      2  F   UNL     1       6.458  -0.907  24.317  0.00  0.00    -0.133 F 
ATOM      3  F   UNL     1       7.393  -1.129  22.326  0.00  0.00    -0.133 F 
ATOM     34  C   UNL     1       6.851  -0.256  23.201  0.00  0.00    +0.575 C 
ENDBRANCH   6  34
ENDBRANCH  33   6
ENDBRANCH  25  28
TORSDOF 4
ENDMDL
