MODEL 1
REMARK VINA RESULT:      -1.0      0.000      0.000
REMARK  Name = 56775075
REMARK  6 active torsions:
REMARK  status: ('A' for Active; 'I' for Inactive)
REMARK    1  A    between atoms: O_3  and  C_28
REMARK    2  A    between atoms: O_3  and  C_29
REMARK    3  A    between atoms: N_4  and  C_11
REMARK    4  A    between atoms: N_5  and  C_14
REMARK    5  A    between atoms: C_11  and  C_15
REMARK    6  A    between atoms: C_14  and  C_16
REMARK                            x       y       z     vdW  Elec       q    Type
REMARK                         _______ _______ _______ _____ _____    ______ ____
ROOT
ATOM      1  O   UNL     1      -3.665   4.294  26.211  0.00  0.00    -0.364 OA
ATOM      2  O   UNL     1      -6.404   2.112  26.597  0.00  0.00    -0.273 OA
ATOM      4  N   UNL     1      -1.413   3.152  24.094  0.00  0.00    -0.294 NA
ATOM      5  N   UNL     1      -4.856   2.210  24.862  0.00  0.00    -0.288 N 
ATOM      7  C   UNL     1      -3.702   2.872  24.262  0.00  0.00    +0.120 C 
ATOM      8  C   UNL     1      -3.398   4.262  24.811  0.00  0.00    +0.154 C 
ATOM      9  C   UNL     1      -2.384   2.139  24.506  0.00  0.00    +0.110 C 
ATOM     10  C   UNL     1      -1.890   4.439  24.618  0.00  0.00    +0.118 C 
ATOM     12  C   UNL     1      -5.487   2.686  26.007  0.00  0.00    +0.242 C 
ATOM     13  C   UNL     1      -5.028   4.051  26.471  0.00  0.00    +0.256 C 
ENDROOT
BRANCH   4  11
ATOM     11  C   UNL     1      -0.058   2.835  24.516  0.00  0.00    +0.121 C 
BRANCH  11  15
ATOM      6  N   UNL     1       0.407  -0.643  23.421  0.00  0.00    -0.360 N 
ATOM     15  C   UNL     1       0.395   1.501  23.997  0.00  0.00    -0.008 A 
ATOM     17  C   UNL     1       1.675   1.194  23.456  0.00  0.00    +0.004 A 
ATOM     18  C   UNL     1      -0.362   0.353  23.963  0.00  0.00    +0.088 A 
ATOM     19  C   UNL     1       1.656  -0.157  23.103  0.00  0.00    +0.047 A 
ATOM     22  C   UNL     1       2.850   1.937  23.232  0.00  0.00    +0.010 A 
ATOM     23  C   UNL     1       2.758  -0.806  22.534  0.00  0.00    +0.026 A 
ATOM     26  C   UNL     1       3.961   1.302  22.663  0.00  0.00    +0.001 A 
ATOM     27  C   UNL     1       3.913  -0.047  22.321  0.00  0.00    +0.002 A 
ATOM     30  H   UNL     1       0.103  -1.595  23.276  0.00  0.00    +0.165 HD
ENDBRANCH  11  15
ENDBRANCH   4  11
BRANCH   5  14
ATOM     14  C   UNL     1      -5.280   0.950  24.265  0.00  0.00    +0.143 C 
BRANCH  14  16
ATOM     16  C   UNL     1      -4.309  -0.160  24.546  0.00  0.00    -0.030 A 
ATOM     20  C   UNL     1      -3.931  -1.033  23.526  0.00  0.00    +0.009 A 
ATOM     21  C   UNL     1      -3.783  -0.317  25.829  0.00  0.00    +0.009 A 
ATOM     24  C   UNL     1      -3.029  -2.064  23.789  0.00  0.00    +0.046 A 
ATOM     25  C   UNL     1      -2.880  -1.347  26.092  0.00  0.00    +0.046 A 
ATOM     28  C   UNL     1      -2.503  -2.220  25.071  0.00  0.00    +0.120 A 
BRANCH  28   3
ATOM      3  O   UNL     1      -1.621  -3.226  25.327  0.00  0.00    -0.495 OA
ATOM     29  C   UNL     1      -0.256  -2.859  25.517  0.00  0.00    +0.277 C 
ENDBRANCH  28   3
ENDBRANCH  14  16
ENDBRANCH   5  14
TORSDOF 5
ENDMDL
MODEL 2
REMARK VINA RESULT:      -0.9      1.428      2.656
REMARK  Name = 56775075
REMARK  6 active torsions:
REMARK  status: ('A' for Active; 'I' for Inactive)
REMARK    1  A    between atoms: O_3  and  C_28
REMARK    2  A    between atoms: O_3  and  C_29
REMARK    3  A    between atoms: N_4  and  C_11
REMARK    4  A    between atoms: N_5  and  C_14
REMARK    5  A    between atoms: C_11  and  C_15
REMARK    6  A    between atoms: C_14  and  C_16
REMARK                            x       y       z     vdW  Elec       q    Type
REMARK                         _______ _______ _______ _____ _____    ______ ____
ROOT
ATOM      1  O   UNL     1      -2.470   4.633  26.525  0.00  0.00    -0.364 OA
ATOM      2  O   UNL     1      -5.636   3.089  26.449  0.00  0.00    -0.273 OA
ATOM      4  N   UNL     1      -0.516   3.656  24.058  0.00  0.00    -0.294 NA
ATOM      5  N   UNL     1      -4.090   3.321  24.725  0.00  0.00    -0.288 N 
ATOM      7  C   UNL     1      -2.810   3.852  24.267  0.00  0.00    +0.120 C 
ATOM      8  C   UNL     1      -2.204   4.933  25.157  0.00  0.00    +0.154 C 
ATOM      9  C   UNL     1      -1.696   2.809  24.230  0.00  0.00    +0.110 C 
ATOM     10  C   UNL     1      -0.693   4.819  24.937  0.00  0.00    +0.118 C 
ATOM     12  C   UNL     1      -4.607   3.588  25.990  0.00  0.00    +0.242 C 
ATOM     13  C   UNL     1      -3.855   4.634  26.782  0.00  0.00    +0.256 C 
ENDROOT
BRANCH   4  11
ATOM     11  C   UNL     1       0.727   2.944  24.303  0.00  0.00    +0.121 C 
BRANCH  11  15
ATOM      6  N   UNL     1       0.800  -0.444  22.879  0.00  0.00    -0.360 N 
ATOM     15  C   UNL     1       0.618   1.486  23.960  0.00  0.00    -0.008 A 
ATOM     17  C   UNL     1       0.005   0.474  24.751  0.00  0.00    +0.004 A 
ATOM     18  C   UNL     1       1.097   0.892  22.816  0.00  0.00    +0.088 A 
ATOM     19  C   UNL     1       0.133  -0.726  24.049  0.00  0.00    +0.047 A 
ATOM     22  C   UNL     1      -0.648   0.464  25.999  0.00  0.00    +0.010 A 
ATOM     23  C   UNL     1      -0.361  -1.943  24.536  0.00  0.00    +0.026 A 
ATOM     26  C   UNL     1      -1.148  -0.745  26.498  0.00  0.00    +0.001 A 
ATOM     27  C   UNL     1      -1.005  -1.927  25.777  0.00  0.00    +0.002 A 
ATOM     30  H   UNL     1       1.036  -1.123  22.169  0.00  0.00    +0.165 HD
ENDBRANCH  11  15
ENDBRANCH   4  11
BRANCH   5  14
ATOM     14  C   UNL     1      -4.783   2.402  23.832  0.00  0.00    +0.143 C 
BRANCH  14  16
ATOM     16  C   UNL     1      -4.479   0.968  24.154  0.00  0.00    -0.030 A 
ATOM     20  C   UNL     1      -4.713   0.476  25.439  0.00  0.00    +0.009 A 
ATOM     21  C   UNL     1      -3.964   0.126  23.168  0.00  0.00    +0.009 A 
ATOM     24  C   UNL     1      -4.430  -0.856  25.737  0.00  0.00    +0.046 A 
ATOM     25  C   UNL     1      -3.681  -1.207  23.467  0.00  0.00    +0.046 A 
ATOM     28  C   UNL     1      -3.915  -1.698  24.751  0.00  0.00    +0.120 A 
BRANCH  28   3
ATOM      3  O   UNL     1      -3.640  -3.000  25.042  0.00  0.00    -0.495 OA
ATOM     29  C   UNL     1      -3.518  -3.899  23.942  0.00  0.00    +0.277 C 
ENDBRANCH  28   3
ENDBRANCH  14  16
ENDBRANCH   5  14
TORSDOF 5
ENDMDL
MODEL 3
REMARK VINA RESULT:      -0.8      2.393      5.206
REMARK  Name = 56775075
REMARK  6 active torsions:
REMARK  status: ('A' for Active; 'I' for Inactive)
REMARK    1  A    between atoms: O_3  and  C_28
REMARK    2  A    between atoms: O_3  and  C_29
REMARK    3  A    between atoms: N_4  and  C_11
REMARK    4  A    between atoms: N_5  and  C_14
REMARK    5  A    between atoms: C_11  and  C_15
REMARK    6  A    between atoms: C_14  and  C_16
REMARK                            x       y       z     vdW  Elec       q    Type
REMARK                         _______ _______ _______ _____ _____    ______ ____
ROOT
ATOM      1  O   UNL     1      -0.530   3.878  23.654  0.00  0.00    -0.364 OA
ATOM      2  O   UNL     1       0.935   0.677  23.805  0.00  0.00    -0.273 OA
ATOM      4  N   UNL     1      -2.633   4.435  26.128  0.00  0.00    -0.294 NA
ATOM      5  N   UNL     1      -0.093   1.887  25.506  0.00  0.00    -0.288 N 
ATOM      7  C   UNL     1      -0.739   3.123  25.936  0.00  0.00    +0.120 C 
ATOM      8  C   UNL     1      -0.530   4.317  25.010  0.00  0.00    +0.154 C 
ATOM      9  C   UNL     1      -2.262   3.027  25.992  0.00  0.00    +0.110 C 
ATOM     10  C   UNL     1      -1.767   5.195  25.218  0.00  0.00    +0.118 C 
ATOM     12  C   UNL     1       0.462   1.728  24.240  0.00  0.00    +0.242 C 
ATOM     13  C   UNL     1       0.537   2.991  23.410  0.00  0.00    +0.256 C 
ENDROOT
BRANCH   4  11
ATOM     11  C   UNL     1      -4.048   4.669  25.891  0.00  0.00    +0.121 C 
BRANCH  11  15
ATOM      6  N   UNL     1      -6.339   1.795  25.828  0.00  0.00    -0.360 N 
ATOM     15  C   UNL     1      -4.801   3.388  25.673  0.00  0.00    -0.008 A 
ATOM     17  C   UNL     1      -4.434   2.329  24.796  0.00  0.00    +0.004 A 
ATOM     18  C   UNL     1      -5.976   3.031  26.293  0.00  0.00    +0.088 A 
ATOM     19  C   UNL     1      -5.415   1.343  24.912  0.00  0.00    +0.047 A 
ATOM     22  C   UNL     1      -3.357   2.114  23.913  0.00  0.00    +0.010 A 
ATOM     23  C   UNL     1      -5.375   0.147  24.186  0.00  0.00    +0.026 A 
ATOM     26  C   UNL     1      -3.304   0.923  23.179  0.00  0.00    +0.001 A 
ATOM     27  C   UNL     1      -4.298  -0.043  23.315  0.00  0.00    +0.002 A 
ATOM     30  H   UNL     1      -7.166   1.289  26.114  0.00  0.00    +0.165 HD
ENDBRANCH  11  15
ENDBRANCH   4  11
BRANCH   5  14
ATOM     14  C   UNL     1      -0.133   0.763  26.433  0.00  0.00    +0.143 C 
BRANCH  14  16
ATOM     16  C   UNL     1      -1.039  -0.331  25.950  0.00  0.00    -0.030 A 
ATOM     20  C   UNL     1      -0.593  -1.235  24.986  0.00  0.00    +0.009 A 
ATOM     21  C   UNL     1      -2.330  -0.446  26.469  0.00  0.00    +0.009 A 
ATOM     24  C   UNL     1      -1.436  -2.252  24.539  0.00  0.00    +0.046 A 
ATOM     25  C   UNL     1      -3.173  -1.463  26.021  0.00  0.00    +0.046 A 
ATOM     28  C   UNL     1      -2.726  -2.367  25.057  0.00  0.00    +0.120 A 
BRANCH  28   3
ATOM      3  O   UNL     1      -3.549  -3.360  24.621  0.00  0.00    -0.495 OA
ATOM     29  C   UNL     1      -4.305  -3.105  23.439  0.00  0.00    +0.277 C 
ENDBRANCH  28   3
ENDBRANCH  14  16
ENDBRANCH   5  14
TORSDOF 5
ENDMDL
MODEL 4
REMARK VINA RESULT:      -0.7      2.558      6.830
REMARK  Name = 56775075
REMARK  6 active torsions:
REMARK  status: ('A' for Active; 'I' for Inactive)
REMARK    1  A    between atoms: O_3  and  C_28
REMARK    2  A    between atoms: O_3  and  C_29
REMARK    3  A    between atoms: N_4  and  C_11
REMARK    4  A    between atoms: N_5  and  C_14
REMARK    5  A    between atoms: C_11  and  C_15
REMARK    6  A    between atoms: C_14  and  C_16
REMARK                            x       y       z     vdW  Elec       q    Type
REMARK                         _______ _______ _______ _____ _____    ______ ____
ROOT
ATOM      1  O   UNL     1      -1.349   1.365  26.077  0.00  0.00    -0.364 OA
ATOM      2  O   UNL     1       1.453   2.486  24.258  0.00  0.00    -0.273 OA
ATOM      4  N   UNL     1      -2.961  -1.075  24.560  0.00  0.00    -0.294 NA
ATOM      5  N   UNL     1       0.314   0.465  24.075  0.00  0.00    -0.288 N 
ATOM      7  C   UNL     1      -0.746  -0.412  24.561  0.00  0.00    +0.120 C 
ATOM      8  C   UNL     1      -1.302  -0.052  25.935  0.00  0.00    +0.154 C 
ATOM      9  C   UNL     1      -2.002  -0.389  23.693  0.00  0.00    +0.110 C 
ATOM     10  C   UNL     1      -2.744  -0.568  25.921  0.00  0.00    +0.118 C 
ATOM     12  C   UNL     1       0.631   1.675  24.686  0.00  0.00    +0.242 C 
ATOM     13  C   UNL     1      -0.056   1.922  26.011  0.00  0.00    +0.256 C 
ENDROOT
BRANCH   4  11
ATOM     11  C   UNL     1      -4.335  -0.919  24.109  0.00  0.00    +0.121 C 
BRANCH  11  15
ATOM      6  N   UNL     1      -6.338   1.760  25.632  0.00  0.00    -0.360 N 
ATOM     15  C   UNL     1      -4.954   0.349  24.622  0.00  0.00    -0.008 A 
ATOM     17  C   UNL     1      -4.461   1.670  24.429  0.00  0.00    +0.004 A 
ATOM     18  C   UNL     1      -6.109   0.436  25.364  0.00  0.00    +0.088 A 
ATOM     19  C   UNL     1      -5.348   2.535  25.073  0.00  0.00    +0.047 A 
ATOM     22  C   UNL     1      -3.343   2.214  23.767  0.00  0.00    +0.010 A 
ATOM     23  C   UNL     1      -5.171   3.924  25.090  0.00  0.00    +0.026 A 
ATOM     26  C   UNL     1      -3.153   3.601  23.775  0.00  0.00    +0.001 A 
ATOM     27  C   UNL     1      -4.054   4.440  24.426  0.00  0.00    +0.002 A 
ATOM     30  H   UNL     1      -7.121   2.115  26.164  0.00  0.00    +0.165 HD
ENDBRANCH  11  15
ENDBRANCH   4  11
BRANCH   5  14
ATOM     14  C   UNL     1       0.984   0.073  22.841  0.00  0.00    +0.143 C 
BRANCH  14  16
ATOM     16  C   UNL     1       2.471  -0.022  23.015  0.00  0.00    -0.030 A 
ATOM     20  C   UNL     1       3.293   1.019  22.582  0.00  0.00    +0.009 A 
ATOM     21  C   UNL     1       3.033  -1.151  23.612  0.00  0.00    +0.009 A 
ATOM     24  C   UNL     1       4.675   0.930  22.744  0.00  0.00    +0.046 A 
ATOM     25  C   UNL     1       4.416  -1.240  23.774  0.00  0.00    +0.046 A 
ATOM     28  C   UNL     1       5.237  -0.199  23.340  0.00  0.00    +0.120 A 
BRANCH  28   3
ATOM      3  O   UNL     1       6.586  -0.285  23.500  0.00  0.00    -0.495 OA
ATOM     29  C   UNL     1       7.311  -1.012  22.510  0.00  0.00    +0.277 C 
ENDBRANCH  28   3
ENDBRANCH  14  16
ENDBRANCH   5  14
TORSDOF 5
ENDMDL
MODEL 5
REMARK VINA RESULT:       0.3      1.789      2.886
REMARK  Name = 56775075
REMARK  6 active torsions:
REMARK  status: ('A' for Active; 'I' for Inactive)
REMARK    1  A    between atoms: O_3  and  C_28
REMARK    2  A    between atoms: O_3  and  C_29
REMARK    3  A    between atoms: N_4  and  C_11
REMARK    4  A    between atoms: N_5  and  C_14
REMARK    5  A    between atoms: C_11  and  C_15
REMARK    6  A    between atoms: C_14  and  C_16
REMARK                            x       y       z     vdW  Elec       q    Type
REMARK                         _______ _______ _______ _____ _____    ______ ____
ROOT
ATOM      1  O   UNL     1      -4.306   4.147  24.462  0.00  0.00    -0.364 OA
ATOM      2  O   UNL     1      -5.891   2.363  27.055  0.00  0.00    -0.273 OA
ATOM      4  N   UNL     1      -3.006   2.173  22.166  0.00  0.00    -0.294 NA
ATOM      5  N   UNL     1      -5.360   1.641  24.907  0.00  0.00    -0.288 N 
ATOM      7  C   UNL     1      -4.815   1.956  23.589  0.00  0.00    +0.120 C 
ATOM      8  C   UNL     1      -4.687   3.444  23.282  0.00  0.00    +0.154 C 
ATOM      9  C   UNL     1      -3.382   1.466  23.390  0.00  0.00    +0.110 C 
ATOM     10  C   UNL     1      -3.529   3.540  22.285  0.00  0.00    +0.118 C 
ATOM     12  C   UNL     1      -5.522   2.600  25.903  0.00  0.00    +0.242 C 
ATOM     13  C   UNL     1      -5.291   4.028  25.461  0.00  0.00    +0.256 C 
ENDROOT
BRANCH   4  11
ATOM     11  C   UNL     1      -1.575   2.134  21.913  0.00  0.00    +0.121 C 
BRANCH  11  15
ATOM      6  N   UNL     1       0.545   0.618  24.505  0.00  0.00    -0.360 N 
ATOM     15  C   UNL     1      -0.798   1.733  23.133  0.00  0.00    -0.008 A 
ATOM     17  C   UNL     1      -0.777   2.411  24.384  0.00  0.00    +0.004 A 
ATOM     18  C   UNL     1       0.023   0.634  23.238  0.00  0.00    +0.088 A 
ATOM     19  C   UNL     1       0.073   1.692  25.226  0.00  0.00    +0.047 A 
ATOM     22  C   UNL     1      -1.401   3.573  24.882  0.00  0.00    +0.010 A 
ATOM     23  C   UNL     1       0.333   2.076  26.547  0.00  0.00    +0.026 A 
ATOM     26  C   UNL     1      -1.151   3.969  26.201  0.00  0.00    +0.001 A 
ATOM     27  C   UNL     1      -0.297   3.232  27.018  0.00  0.00    +0.002 A 
ATOM     30  H   UNL     1       1.184  -0.081  24.858  0.00  0.00    +0.165 HD
ENDBRANCH  11  15
ENDBRANCH   4  11
BRANCH   5  14
ATOM     14  C   UNL     1      -5.646   0.240  25.187  0.00  0.00    +0.143 C 
BRANCH  14  16
ATOM     16  C   UNL     1      -4.419  -0.616  25.081  0.00  0.00    -0.030 A 
ATOM     20  C   UNL     1      -3.315  -0.360  25.894  0.00  0.00    +0.009 A 
ATOM     21  C   UNL     1      -4.382  -1.672  24.169  0.00  0.00    +0.009 A 
ATOM     24  C   UNL     1      -2.175  -1.157  25.795  0.00  0.00    +0.046 A 
ATOM     25  C   UNL     1      -3.242  -2.469  24.069  0.00  0.00    +0.046 A 
ATOM     28  C   UNL     1      -2.139  -2.212  24.883  0.00  0.00    +0.120 A 
BRANCH  28   3
ATOM      3  O   UNL     1      -1.026  -2.991  24.787  0.00  0.00    -0.495 OA
ATOM     29  C   UNL     1       0.144  -2.538  25.464  0.00  0.00    +0.277 C 
ENDBRANCH  28   3
ENDBRANCH  14  16
ENDBRANCH   5  14
TORSDOF 5
ENDMDL
MODEL 6
REMARK VINA RESULT:       0.7      2.189      5.859
REMARK  Name = 56775075
REMARK  6 active torsions:
REMARK  status: ('A' for Active; 'I' for Inactive)
REMARK    1  A    between atoms: O_3  and  C_28
REMARK    2  A    between atoms: O_3  and  C_29
REMARK    3  A    between atoms: N_4  and  C_11
REMARK    4  A    between atoms: N_5  and  C_14
REMARK    5  A    between atoms: C_11  and  C_15
REMARK    6  A    between atoms: C_14  and  C_16
REMARK                            x       y       z     vdW  Elec       q    Type
REMARK                         _______ _______ _______ _____ _____    ______ ____
ROOT
ATOM      1  O   UNL     1       0.608   2.499  23.668  0.00  0.00    -0.364 OA
ATOM      2  O   UNL     1       0.469  -1.021  23.610  0.00  0.00    -0.273 OA
ATOM      4  N   UNL     1      -1.398   3.817  25.925  0.00  0.00    -0.294 NA
ATOM      5  N   UNL     1      -0.177   0.431  25.309  0.00  0.00    -0.288 N 
ATOM      7  C   UNL     1      -0.272   1.802  25.803  0.00  0.00    +0.120 C 
ATOM      8  C   UNL     1       0.586   2.818  25.057  0.00  0.00    +0.154 C 
ATOM      9  C   UNL     1      -1.669   2.403  25.667  0.00  0.00    +0.110 C 
ATOM     10  C   UNL     1      -0.154   4.149  25.220  0.00  0.00    +0.118 C 
ATOM     12  C   UNL     1       0.445   0.106  24.108  0.00  0.00    +0.242 C 
ATOM     13  C   UNL     1       1.199   1.239  23.449  0.00  0.00    +0.256 C 
ENDROOT
BRANCH   4  11
ATOM     11  C   UNL     1      -2.508   4.678  25.552  0.00  0.00    +0.121 C 
BRANCH  11  15
ATOM      6  N   UNL     1      -4.709   3.128  23.050  0.00  0.00    -0.360 N 
ATOM     15  C   UNL     1      -3.548   3.943  24.757  0.00  0.00    -0.008 A 
ATOM     17  C   UNL     1      -4.626   3.175  25.279  0.00  0.00    +0.004 A 
ATOM     18  C   UNL     1      -3.626   3.896  23.384  0.00  0.00    +0.088 A 
ATOM     19  C   UNL     1      -5.338   2.675  24.187  0.00  0.00    +0.047 A 
ATOM     22  C   UNL     1      -5.065   2.856  26.579  0.00  0.00    +0.010 A 
ATOM     23  C   UNL     1      -6.474   1.867  24.330  0.00  0.00    +0.026 A 
ATOM     26  C   UNL     1      -6.199   2.050  26.738  0.00  0.00    +0.001 A 
ATOM     27  C   UNL     1      -6.890   1.564  25.630  0.00  0.00    +0.002 A 
ATOM     30  H   UNL     1      -5.004   2.923  22.105  0.00  0.00    +0.165 HD
ENDBRANCH  11  15
ENDBRANCH   4  11
BRANCH   5  14
ATOM     14  C   UNL     1      -0.855  -0.600  26.084  0.00  0.00    +0.143 C 
BRANCH  14  16
ATOM     16  C   UNL     1      -2.060  -1.139  25.371  0.00  0.00    -0.030 A 
ATOM     20  C   UNL     1      -3.155  -0.311  25.126  0.00  0.00    +0.009 A 
ATOM     21  C   UNL     1      -2.084  -2.469  24.951  0.00  0.00    +0.009 A 
ATOM     24  C   UNL     1      -4.275  -0.812  24.463  0.00  0.00    +0.046 A 
ATOM     25  C   UNL     1      -3.204  -2.971  24.287  0.00  0.00    +0.046 A 
ATOM     28  C   UNL     1      -4.299  -2.142  24.042  0.00  0.00    +0.120 A 
BRANCH  28   3
ATOM      3  O   UNL     1      -5.391  -2.632  23.394  0.00  0.00    -0.495 OA
ATOM     29  C   UNL     1      -5.258  -3.909  22.772  0.00  0.00    +0.277 C 
ENDBRANCH  28   3
ENDBRANCH  14  16
ENDBRANCH   5  14
TORSDOF 5
ENDMDL
MODEL 7
REMARK VINA RESULT:       1.0      2.078      5.815
REMARK  Name = 56775075
REMARK  6 active torsions:
REMARK  status: ('A' for Active; 'I' for Inactive)
REMARK    1  A    between atoms: O_3  and  C_28
REMARK    2  A    between atoms: O_3  and  C_29
REMARK    3  A    between atoms: N_4  and  C_11
REMARK    4  A    between atoms: N_5  and  C_14
REMARK    5  A    between atoms: C_11  and  C_15
REMARK    6  A    between atoms: C_14  and  C_16
REMARK                            x       y       z     vdW  Elec       q    Type
REMARK                         _______ _______ _______ _____ _____    ______ ____
ROOT
ATOM      1  O   UNL     1      -2.674  -1.025  26.307  0.00  0.00    -0.364 OA
ATOM      2  O   UNL     1       0.422  -1.591  24.723  0.00  0.00    -0.273 OA
ATOM      4  N   UNL     1      -4.657   0.945  24.563  0.00  0.00    -0.294 NA
ATOM      5  N   UNL     1      -1.578  -0.857  23.786  0.00  0.00    -0.288 N 
ATOM      7  C   UNL     1      -2.993  -0.543  23.965  0.00  0.00    +0.120 C 
ATOM      8  C   UNL     1      -3.619  -1.092  25.242  0.00  0.00    +0.154 C 
ATOM      9  C   UNL     1      -3.273   0.953  24.090  0.00  0.00    +0.110 C 
ATOM     10  C   UNL     1      -4.759  -0.122  25.566  0.00  0.00    +0.118 C 
ATOM     12  C   UNL     1      -0.793  -1.396  24.801  0.00  0.00    +0.242 C 
ATOM     13  C   UNL     1      -1.551  -1.830  26.035  0.00  0.00    +0.256 C 
ENDROOT
BRANCH   4  11
ATOM     11  C   UNL     1      -5.085   2.240  25.068  0.00  0.00    +0.121 C 
BRANCH  11  15
ATOM      6  N   UNL     1      -3.128   5.188  24.073  0.00  0.00    -0.360 N 
ATOM     15  C   UNL     1      -4.070   3.313  24.796  0.00  0.00    -0.008 A 
ATOM     17  C   UNL     1      -2.706   3.311  25.201  0.00  0.00    +0.004 A 
ATOM     18  C   UNL     1      -4.300   4.480  24.104  0.00  0.00    +0.088 A 
ATOM     19  C   UNL     1      -2.139   4.498  24.735  0.00  0.00    +0.047 A 
ATOM     22  C   UNL     1      -1.898   2.409  25.922  0.00  0.00    +0.010 A 
ATOM     23  C   UNL     1      -0.797   4.832  24.954  0.00  0.00    +0.026 A 
ATOM     26  C   UNL     1      -0.554   2.730  26.149  0.00  0.00    +0.001 A 
ATOM     27  C   UNL     1      -0.015   3.922  25.673  0.00  0.00    +0.002 A 
ATOM     30  H   UNL     1      -3.008   6.088  23.629  0.00  0.00    +0.165 HD
ENDBRANCH  11  15
ENDBRANCH   4  11
BRANCH   5  14
ATOM     14  C   UNL     1      -0.975  -0.490  22.512  0.00  0.00    +0.143 C 
BRANCH  14  16
ATOM     16  C   UNL     1       0.440  -0.017  22.675  0.00  0.00    -0.030 A 
ATOM     20  C   UNL     1       1.464  -0.605  21.931  0.00  0.00    +0.009 A 
ATOM     21  C   UNL     1       0.733   1.013  23.570  0.00  0.00    +0.009 A 
ATOM     24  C   UNL     1       2.778  -0.165  22.083  0.00  0.00    +0.046 A 
ATOM     25  C   UNL     1       2.047   1.453  23.722  0.00  0.00    +0.046 A 
ATOM     28  C   UNL     1       3.070   0.864  22.978  0.00  0.00    +0.120 A 
BRANCH  28   3
ATOM      3  O   UNL     1       4.353   1.295  23.126  0.00  0.00    -0.495 OA
ATOM     29  C   UNL     1       5.332   0.314  23.463  0.00  0.00    +0.277 C 
ENDBRANCH  28   3
ENDBRANCH  14  16
ENDBRANCH   5  14
TORSDOF 5
ENDMDL
MODEL 8
REMARK VINA RESULT:       1.0      1.946      5.162
REMARK  Name = 56775075
REMARK  6 active torsions:
REMARK  status: ('A' for Active; 'I' for Inactive)
REMARK    1  A    between atoms: O_3  and  C_28
REMARK    2  A    between atoms: O_3  and  C_29
REMARK    3  A    between atoms: N_4  and  C_11
REMARK    4  A    between atoms: N_5  and  C_14
REMARK    5  A    between atoms: C_11  and  C_15
REMARK    6  A    between atoms: C_14  and  C_16
REMARK                            x       y       z     vdW  Elec       q    Type
REMARK                         _______ _______ _______ _____ _____    ______ ____
ROOT
ATOM      1  O   UNL     1       0.641   2.243  25.757  0.00  0.00    -0.364 OA
ATOM      2  O   UNL     1      -2.181   4.176  26.600  0.00  0.00    -0.273 OA
ATOM      4  N   UNL     1       0.331   0.739  22.842  0.00  0.00    -0.294 NA
ATOM      5  N   UNL     1      -1.513   3.415  24.505  0.00  0.00    -0.288 N 
ATOM      7  C   UNL     1      -0.524   2.709  23.696  0.00  0.00    +0.120 C 
ATOM      8  C   UNL     1       0.829   2.502  24.368  0.00  0.00    +0.154 C 
ATOM      9  C   UNL     1      -0.930   1.278  23.350  0.00  0.00    +0.110 C 
ATOM     10  C   UNL     1       1.394   1.231  23.727  0.00  0.00    +0.118 C 
ATOM     12  C   UNL     1      -1.336   3.666  25.862  0.00  0.00    +0.242 C 
ATOM     13  C   UNL     1       0.040   3.343  26.399  0.00  0.00    +0.256 C 
ENDROOT
BRANCH   4  11
ATOM     11  C   UNL     1       0.316  -0.711  22.727  0.00  0.00    +0.121 C 
BRANCH  11  15
ATOM      6  N   UNL     1      -0.690  -2.346  25.862  0.00  0.00    -0.360 N 
ATOM     15  C   UNL     1      -0.359  -1.361  23.900  0.00  0.00    -0.008 A 
ATOM     17  C   UNL     1      -1.753  -1.611  24.043  0.00  0.00    +0.004 A 
ATOM     18  C   UNL     1       0.268  -1.824  25.033  0.00  0.00    +0.088 A 
ATOM     19  C   UNL     1      -1.933  -2.229  25.282  0.00  0.00    +0.047 A 
ATOM     22  C   UNL     1      -2.882  -1.370  23.235  0.00  0.00    +0.010 A 
ATOM     23  C   UNL     1      -3.191  -2.620  25.757  0.00  0.00    +0.026 A 
ATOM     26  C   UNL     1      -4.146  -1.756  23.696  0.00  0.00    +0.001 A 
ATOM     27  C   UNL     1      -4.296  -2.370  24.937  0.00  0.00    +0.002 A 
ATOM     30  H   UNL     1      -0.510  -2.756  26.768  0.00  0.00    +0.165 HD
ENDBRANCH  11  15
ENDBRANCH   4  11
BRANCH   5  14
ATOM     14  C   UNL     1      -2.766   3.774  23.853  0.00  0.00    +0.143 C 
BRANCH  14  16
ATOM     16  C   UNL     1      -3.952   3.164  24.540  0.00  0.00    -0.030 A 
ATOM     20  C   UNL     1      -4.881   3.981  25.186  0.00  0.00    +0.009 A 
ATOM     21  C   UNL     1      -4.128   1.780  24.532  0.00  0.00    +0.009 A 
ATOM     24  C   UNL     1      -5.984   3.413  25.825  0.00  0.00    +0.046 A 
ATOM     25  C   UNL     1      -5.231   1.212  25.170  0.00  0.00    +0.046 A 
ATOM     28  C   UNL     1      -6.159   2.029  25.816  0.00  0.00    +0.120 A 
BRANCH  28   3
ATOM      3  O   UNL     1      -7.236   1.475  26.438  0.00  0.00    -0.495 OA
ATOM     29  C   UNL     1      -7.082   1.123  27.812  0.00  0.00    +0.277 C 
ENDBRANCH  28   3
ENDBRANCH  14  16
ENDBRANCH   5  14
TORSDOF 5
ENDMDL
MODEL 9
REMARK VINA RESULT:       1.7      1.725      2.378
REMARK  Name = 56775075
REMARK  6 active torsions:
REMARK  status: ('A' for Active; 'I' for Inactive)
REMARK    1  A    between atoms: O_3  and  C_28
REMARK    2  A    between atoms: O_3  and  C_29
REMARK    3  A    between atoms: N_4  and  C_11
REMARK    4  A    between atoms: N_5  and  C_14
REMARK    5  A    between atoms: C_11  and  C_15
REMARK    6  A    between atoms: C_14  and  C_16
REMARK                            x       y       z     vdW  Elec       q    Type
REMARK                         _______ _______ _______ _____ _____    ______ ____
ROOT
ATOM      1  O   UNL     1      -5.108   3.756  26.774  0.00  0.00    -0.364 OA
ATOM      2  O   UNL     1      -6.462   0.528  26.369  0.00  0.00    -0.273 OA
ATOM      4  N   UNL     1      -2.792   4.456  24.537  0.00  0.00    -0.294 NA
ATOM      5  N   UNL     1      -5.308   1.826  24.819  0.00  0.00    -0.288 N 
ATOM      7  C   UNL     1      -4.658   3.093  24.498  0.00  0.00    +0.120 C 
ATOM      8  C   UNL     1      -4.989   4.245  25.440  0.00  0.00    +0.154 C 
ATOM      9  C   UNL     1      -3.135   3.035  24.588  0.00  0.00    +0.110 C 
ATOM     10  C   UNL     1      -3.762   5.160  25.385  0.00  0.00    +0.118 C 
ATOM     12  C   UNL     1      -5.979   1.607  26.019  0.00  0.00    +0.242 C 
ATOM     13  C   UNL     1      -6.169   2.835  26.880  0.00  0.00    +0.256 C 
ENDROOT
BRANCH   4  11
ATOM     11  C   UNL     1      -1.413   4.715  24.920  0.00  0.00    +0.121 C 
BRANCH  11  15
ATOM      6  N   UNL     1       0.719   1.902  25.945  0.00  0.00    -0.360 N 
ATOM     15  C   UNL     1      -0.630   3.446  25.094  0.00  0.00    -0.008 A 
ATOM     17  C   UNL     1      -0.598   2.341  24.198  0.00  0.00    +0.004 A 
ATOM     18  C   UNL     1       0.189   3.147  26.158  0.00  0.00    +0.088 A 
ATOM     19  C   UNL     1       0.256   1.387  24.755  0.00  0.00    +0.047 A 
ATOM     22  C   UNL     1      -1.214   2.061  22.963  0.00  0.00    +0.010 A 
ATOM     23  C   UNL     1       0.525   0.160  24.137  0.00  0.00    +0.026 A 
ATOM     26  C   UNL     1      -0.955   0.837  22.332  0.00  0.00    +0.001 A 
ATOM     27  C   UNL     1      -0.099  -0.096  22.912  0.00  0.00    +0.002 A 
ATOM     30  H   UNL     1       1.357   1.430  26.570  0.00  0.00    +0.165 HD
ENDBRANCH  11  15
ENDBRANCH   4  11
BRANCH   5  14
ATOM     14  C   UNL     1      -5.148   0.738  23.863  0.00  0.00    +0.143 C 
BRANCH  14  16
ATOM     16  C   UNL     1      -4.127  -0.264  24.317  0.00  0.00    -0.030 A 
ATOM     20  C   UNL     1      -3.235   0.062  25.338  0.00  0.00    +0.009 A 
ATOM     21  C   UNL     1      -4.072  -1.523  23.718  0.00  0.00    +0.009 A 
ATOM     24  C   UNL     1      -2.287  -0.871  25.760  0.00  0.00    +0.046 A 
ATOM     25  C   UNL     1      -3.124  -2.455  24.139  0.00  0.00    +0.046 A 
ATOM     28  C   UNL     1      -2.232  -2.129  25.161  0.00  0.00    +0.120 A 
BRANCH  28   3
ATOM      3  O   UNL     1      -1.307  -3.040  25.573  0.00  0.00    -0.495 OA
ATOM     29  C   UNL     1       0.060  -2.635  25.544  0.00  0.00    +0.277 C 
ENDBRANCH  28   3
ENDBRANCH  14  16
ENDBRANCH   5  14
TORSDOF 5
ENDMDL
