MODEL 1
REMARK VINA RESULT:      -3.7      0.000      0.000
REMARK  Name = 75367106
REMARK  6 active torsions:
REMARK  status: ('A' for Active; 'I' for Inactive)
REMARK    1  A    between atoms: O_2  and  C_9
REMARK    2  A    between atoms: N_4  and  C_7
REMARK    3  A    between atoms: N_4  and  C_8
REMARK    4  A    between atoms: N_5  and  C_17
REMARK    5  A    between atoms: N_6  and  C_19
REMARK    6  A    between atoms: C_12  and  C_17
REMARK                            x       y       z     vdW  Elec       q    Type
REMARK                         _______ _______ _______ _____ _____    ______ ____
ROOT
ATOM      1  O   UNL     1      -3.170   3.676  23.631  0.00  0.00    -0.371 OA
ATOM      8  C   UNL     1      -4.830   2.359  24.704  0.00  0.00    +0.111 C 
ATOM      9  C   UNL     1      -3.893   2.926  25.754  0.00  0.00    +0.164 C 
ATOM     12  C   UNL     1      -3.283   4.100  25.000  0.00  0.00    +0.165 C 
ATOM     13  C   UNL     1      -3.996   2.515  23.442  0.00  0.00    +0.181 C 
ENDROOT
BRANCH   9   2
ATOM      2  O   UNL     1      -4.573   3.346  26.922  0.00  0.00    -0.388 OA
ATOM     26  H   UNL     1      -4.657   4.314  26.896  0.00  0.00    +0.210 HD
ENDBRANCH   9   2
BRANCH   8   4
ATOM      4  N   UNL     1      -5.224   0.982  24.956  0.00  0.00    -0.306 NA
ATOM     25  H   UNL     1      -6.092   0.770  24.464  0.00  0.00    +0.123 HD
BRANCH   4   7
ATOM      7  C   UNL     1      -4.174   0.058  24.534  0.00  0.00    +0.054 C 
ATOM     10  C   UNL     1      -3.168  -0.143  25.674  0.00  0.00    +0.019 C 
ATOM     11  C   UNL     1      -4.796  -1.275  24.104  0.00  0.00    +0.019 C 
ATOM     14  C   UNL     1      -2.096  -1.164  25.296  0.00  0.00    +0.002 C 
ATOM     15  C   UNL     1      -3.721  -2.295  23.728  0.00  0.00    +0.002 C 
ATOM     16  C   UNL     1      -2.711  -2.489  24.856  0.00  0.00    +0.000 C 
ENDBRANCH   4   7
ENDBRANCH   8   4
BRANCH  12  17
ATOM     17  C   UNL     1      -1.918   4.508  25.526  0.00  0.00    +0.140 C 
BRANCH  17   5
ATOM      3  O   UNL     1      -0.505   3.528  23.235  0.00  0.00    -0.253 OA
ATOM      5  N   UNL     1      -0.997   3.409  25.492  0.00  0.00    -0.297 N 
ATOM      6  N   UNL     1       0.494   1.898  24.595  0.00  0.00    -0.269 N 
ATOM     18  C   UNL     1      -0.340   2.986  24.325  0.00  0.00    +0.304 C 
ATOM     27  H   UNL     1      -0.821   2.904  26.355  0.00  0.00    +0.150 HD
ATOM     28  H   UNL     1       0.516   1.569  25.557  0.00  0.00    +0.156 HD
BRANCH   6  19
ATOM     19  C   UNL     1       1.319   1.190  23.691  0.00  0.00    +0.035 A 
ATOM     20  C   UNL     1       2.666   1.530  23.562  0.00  0.00    +0.023 A 
ATOM     21  C   UNL     1       0.786   0.153  22.927  0.00  0.00    +0.023 A 
ATOM     22  C   UNL     1       3.480   0.833  22.670  0.00  0.00    +0.002 A 
ATOM     23  C   UNL     1       1.600  -0.546  22.035  0.00  0.00    +0.002 A 
ATOM     24  C   UNL     1       2.947  -0.205  21.907  0.00  0.00    +0.000 A 
ENDBRANCH   6  19
ENDBRANCH  17   5
ENDBRANCH  12  17
TORSDOF 6
ENDMDL
MODEL 2
REMARK VINA RESULT:      -3.7      2.208      4.647
REMARK  Name = 75367106
REMARK  6 active torsions:
REMARK  status: ('A' for Active; 'I' for Inactive)
REMARK    1  A    between atoms: O_2  and  C_9
REMARK    2  A    between atoms: N_4  and  C_7
REMARK    3  A    between atoms: N_4  and  C_8
REMARK    4  A    between atoms: N_5  and  C_17
REMARK    5  A    between atoms: N_6  and  C_19
REMARK    6  A    between atoms: C_12  and  C_17
REMARK                            x       y       z     vdW  Elec       q    Type
REMARK                         _______ _______ _______ _____ _____    ______ ____
ROOT
ATOM      1  O   UNL     1      -0.152   4.839  24.032  0.00  0.00    -0.371 OA
ATOM      8  C   UNL     1      -1.779   4.817  25.762  0.00  0.00    +0.111 C 
ATOM      9  C   UNL     1      -1.137   3.444  25.667  0.00  0.00    +0.164 C 
ATOM     12  C   UNL     1       0.163   3.777  24.948  0.00  0.00    +0.165 C 
ATOM     13  C   UNL     1      -1.415   5.412  24.411  0.00  0.00    +0.181 C 
ENDROOT
BRANCH   9   2
ATOM      2  O   UNL     1      -0.904   2.863  26.936  0.00  0.00    -0.388 OA
ATOM     26  H   UNL     1      -1.707   2.971  27.474  0.00  0.00    +0.210 HD
ENDBRANCH   9   2
BRANCH   8   4
ATOM      4  N   UNL     1      -3.214   4.775  25.994  0.00  0.00    -0.306 NA
ATOM     25  H   UNL     1      -3.676   5.520  25.473  0.00  0.00    +0.123 HD
BRANCH   4   7
ATOM      7  C   UNL     1      -3.764   3.479  25.603  0.00  0.00    +0.054 C 
ATOM     10  C   UNL     1      -5.038   3.190  26.405  0.00  0.00    +0.019 C 
ATOM     11  C   UNL     1      -4.045   3.466  24.096  0.00  0.00    +0.019 C 
ATOM     14  C   UNL     1      -5.685   1.877  25.968  0.00  0.00    +0.002 C 
ATOM     15  C   UNL     1      -4.693   2.152  23.663  0.00  0.00    +0.002 C 
ATOM     16  C   UNL     1      -5.955   1.855  24.467  0.00  0.00    +0.000 C 
ENDBRANCH   4   7
ENDBRANCH   8   4
BRANCH  12  17
ATOM     17  C   UNL     1       0.747   2.600  24.189  0.00  0.00    +0.140 C 
BRANCH  17   5
ATOM      3  O   UNL     1      -1.537   1.222  23.146  0.00  0.00    -0.253 OA
ATOM      5  N   UNL     1       0.208   1.357  24.658  0.00  0.00    -0.297 N 
ATOM      6  N   UNL     1      -1.211  -0.455  24.753  0.00  0.00    -0.269 N 
ATOM     18  C   UNL     1      -0.920   0.740  24.093  0.00  0.00    +0.304 C 
ATOM     27  H   UNL     1       0.660   0.907  25.448  0.00  0.00    +0.150 HD
ATOM     28  H   UNL     1      -0.597  -0.712  25.522  0.00  0.00    +0.156 HD
BRANCH   6  19
ATOM     19  C   UNL     1      -2.263  -1.362  24.485  0.00  0.00    +0.035 A 
ATOM     20  C   UNL     1      -3.550  -0.884  24.235  0.00  0.00    +0.023 A 
ATOM     21  C   UNL     1      -2.013  -2.734  24.471  0.00  0.00    +0.023 A 
ATOM     22  C   UNL     1      -4.587  -1.778  23.970  0.00  0.00    +0.002 A 
ATOM     23  C   UNL     1      -3.051  -3.629  24.205  0.00  0.00    +0.002 A 
ATOM     24  C   UNL     1      -4.337  -3.150  23.956  0.00  0.00    +0.000 A 
ENDBRANCH   6  19
ENDBRANCH  17   5
ENDBRANCH  12  17
TORSDOF 6
ENDMDL
MODEL 3
REMARK VINA RESULT:      -3.5      1.896      4.874
REMARK  Name = 75367106
REMARK  6 active torsions:
REMARK  status: ('A' for Active; 'I' for Inactive)
REMARK    1  A    between atoms: O_2  and  C_9
REMARK    2  A    between atoms: N_4  and  C_7
REMARK    3  A    between atoms: N_4  and  C_8
REMARK    4  A    between atoms: N_5  and  C_17
REMARK    5  A    between atoms: N_6  and  C_19
REMARK    6  A    between atoms: C_12  and  C_17
REMARK                            x       y       z     vdW  Elec       q    Type
REMARK                         _______ _______ _______ _____ _____    ______ ____
ROOT
ATOM      1  O   UNL     1      -4.200   4.221  26.874  0.00  0.00    -0.371 OA
ATOM      8  C   UNL     1      -2.522   4.692  25.261  0.00  0.00    +0.111 C 
ATOM      9  C   UNL     1      -3.713   4.059  24.566  0.00  0.00    +0.164 C 
ATOM     12  C   UNL     1      -4.818   4.321  25.579  0.00  0.00    +0.165 C 
ATOM     13  C   UNL     1      -2.774   4.299  26.707  0.00  0.00    +0.181 C 
ENDROOT
BRANCH   9   2
ATOM      2  O   UNL     1      -3.994   4.655  23.313  0.00  0.00    -0.388 OA
ATOM     26  H   UNL     1      -4.959   4.702  23.206  0.00  0.00    +0.210 HD
ENDBRANCH   9   2
BRANCH   8   4
ATOM      4  N   UNL     1      -1.238   4.224  24.762  0.00  0.00    -0.306 NA
ATOM     25  H   UNL     1      -0.488   4.532  25.381  0.00  0.00    +0.123 HD
BRANCH   4   7
ATOM      7  C   UNL     1      -1.226   2.768  24.653  0.00  0.00    +0.054 C 
ATOM     10  C   UNL     1      -1.216   2.356  23.176  0.00  0.00    +0.019 C 
ATOM     11  C   UNL     1      -0.010   2.200  25.393  0.00  0.00    +0.019 C 
ATOM     14  C   UNL     1      -1.125   0.839  23.021  0.00  0.00    +0.002 C 
ATOM     15  C   UNL     1       0.078   0.683  25.236  0.00  0.00    +0.002 C 
ATOM     16  C   UNL     1       0.077   0.268  23.767  0.00  0.00    +0.000 C 
ENDBRANCH   4   7
ENDBRANCH   8   4
BRANCH  12  17
ATOM     17  C   UNL     1      -5.969   3.336  25.482  0.00  0.00    +0.140 C 
BRANCH  17   5
ATOM      3  O   UNL     1      -4.437   1.539  23.860  0.00  0.00    -0.253 OA
ATOM      5  N   UNL     1      -5.550   2.009  25.832  0.00  0.00    -0.297 N 
ATOM      6  N   UNL     1      -4.538  -0.046  25.587  0.00  0.00    -0.269 N 
ATOM     18  C   UNL     1      -4.798   1.185  24.981  0.00  0.00    +0.304 C 
ATOM     27  H   UNL     1      -5.824   1.645  26.740  0.00  0.00    +0.150 HD
ATOM     28  H   UNL     1      -4.911  -0.180  26.524  0.00  0.00    +0.156 HD
BRANCH   6  19
ATOM     19  C   UNL     1      -3.816  -1.141  25.058  0.00  0.00    +0.035 A 
ATOM     20  C   UNL     1      -4.374  -1.920  24.044  0.00  0.00    +0.023 A 
ATOM     21  C   UNL     1      -2.546  -1.442  25.550  0.00  0.00    +0.023 A 
ATOM     22  C   UNL     1      -3.662  -3.000  23.522  0.00  0.00    +0.002 A 
ATOM     23  C   UNL     1      -1.834  -2.521  25.028  0.00  0.00    +0.002 A 
ATOM     24  C   UNL     1      -2.392  -3.300  24.014  0.00  0.00    +0.000 A 
ENDBRANCH   6  19
ENDBRANCH  17   5
ENDBRANCH  12  17
TORSDOF 6
ENDMDL
MODEL 4
REMARK VINA RESULT:      -3.2      2.340      4.445
REMARK  Name = 75367106
REMARK  6 active torsions:
REMARK  status: ('A' for Active; 'I' for Inactive)
REMARK    1  A    between atoms: O_2  and  C_9
REMARK    2  A    between atoms: N_4  and  C_7
REMARK    3  A    between atoms: N_4  and  C_8
REMARK    4  A    between atoms: N_5  and  C_17
REMARK    5  A    between atoms: N_6  and  C_19
REMARK    6  A    between atoms: C_12  and  C_17
REMARK                            x       y       z     vdW  Elec       q    Type
REMARK                         _______ _______ _______ _____ _____    ______ ____
ROOT
ATOM      1  O   UNL     1      -3.815  -1.112  26.019  0.00  0.00    -0.371 OA
ATOM      8  C   UNL     1      -4.555   0.605  24.555  0.00  0.00    +0.111 C 
ATOM      9  C   UNL     1      -3.405  -0.140  23.903  0.00  0.00    +0.164 C 
ATOM     12  C   UNL     1      -3.429  -1.451  24.676  0.00  0.00    +0.165 C 
ATOM     13  C   UNL     1      -4.381   0.209  26.013  0.00  0.00    +0.181 C 
ENDROOT
BRANCH   9   2
ATOM      2  O   UNL     1      -3.603  -0.342  22.516  0.00  0.00    -0.388 OA
ATOM     26  H   UNL     1      -3.181   0.391  22.037  0.00  0.00    +0.210 HD
ENDBRANCH   9   2
BRANCH   8   4
ATOM      4  N   UNL     1      -4.510   2.044  24.350  0.00  0.00    -0.306 NA
ATOM     25  H   UNL     1      -5.332   2.484  24.762  0.00  0.00    +0.123 HD
BRANCH   4   7
ATOM      7  C   UNL     1      -3.297   2.612  24.934  0.00  0.00    +0.054 C 
ATOM     10  C   UNL     1      -2.198   2.702  23.868  0.00  0.00    +0.019 C 
ATOM     11  C   UNL     1      -3.602   3.990  25.531  0.00  0.00    +0.019 C 
ATOM     14  C   UNL     1      -0.938   3.364  24.423  0.00  0.00    +0.002 C 
ATOM     15  C   UNL     1      -2.339   4.648  26.085  0.00  0.00    +0.002 C 
ATOM     16  C   UNL     1      -1.239   4.730  25.030  0.00  0.00    +0.000 C 
ENDBRANCH   4   7
ENDBRANCH   8   4
BRANCH  12  17
ATOM     17  C   UNL     1      -2.088  -2.163  24.692  0.00  0.00    +0.140 C 
BRANCH  17   5
ATOM      3  O   UNL     1       0.710  -1.904  25.247  0.00  0.00    -0.253 OA
ATOM      5  N   UNL     1      -1.118  -1.466  23.899  0.00  0.00    -0.297 N 
ATOM      6  N   UNL     1       0.944  -0.643  23.282  0.00  0.00    -0.269 N 
ATOM     18  C   UNL     1       0.243  -1.382  24.237  0.00  0.00    +0.304 C 
ATOM     27  H   UNL     1      -1.435  -0.998  23.055  0.00  0.00    +0.150 HD
ATOM     28  H   UNL     1       0.404  -0.278  22.501  0.00  0.00    +0.156 HD
BRANCH   6  19
ATOM     19  C   UNL     1       2.325  -0.335  23.264  0.00  0.00    +0.035 A 
ATOM     20  C   UNL     1       2.754   0.918  22.828  0.00  0.00    +0.023 A 
ATOM     21  C   UNL     1       3.256  -1.286  23.681  0.00  0.00    +0.023 A 
ATOM     22  C   UNL     1       4.115   1.222  22.809  0.00  0.00    +0.002 A 
ATOM     23  C   UNL     1       4.617  -0.982  23.663  0.00  0.00    +0.002 A 
ATOM     24  C   UNL     1       5.047   0.271  23.226  0.00  0.00    +0.000 A 
ENDBRANCH   6  19
ENDBRANCH  17   5
ENDBRANCH  12  17
TORSDOF 6
ENDMDL
MODEL 5
REMARK VINA RESULT:      -3.0      1.478      2.154
REMARK  Name = 75367106
REMARK  6 active torsions:
REMARK  status: ('A' for Active; 'I' for Inactive)
REMARK    1  A    between atoms: O_2  and  C_9
REMARK    2  A    between atoms: N_4  and  C_7
REMARK    3  A    between atoms: N_4  and  C_8
REMARK    4  A    between atoms: N_5  and  C_17
REMARK    5  A    between atoms: N_6  and  C_19
REMARK    6  A    between atoms: C_12  and  C_17
REMARK                            x       y       z     vdW  Elec       q    Type
REMARK                         _______ _______ _______ _____ _____    ______ ____
ROOT
ATOM      1  O   UNL     1      -2.578   1.996  23.002  0.00  0.00    -0.371 OA
ATOM      8  C   UNL     1      -4.362   1.526  24.498  0.00  0.00    +0.111 C 
ATOM      9  C   UNL     1      -3.373   2.452  25.182  0.00  0.00    +0.164 C 
ATOM     12  C   UNL     1      -2.649   3.046  23.982  0.00  0.00    +0.165 C 
ATOM     13  C   UNL     1      -3.517   0.968  23.364  0.00  0.00    +0.181 C 
ENDROOT
BRANCH   9   2
ATOM      2  O   UNL     1      -4.008   3.448  25.961  0.00  0.00    -0.388 OA
ATOM     26  H   UNL     1      -4.100   4.249  25.417  0.00  0.00    +0.210 HD
ENDBRANCH   9   2
BRANCH   8   4
ATOM      4  N   UNL     1      -4.892   0.490  25.371  0.00  0.00    -0.306 NA
ATOM     25  H   UNL     1      -5.799   0.174  25.029  0.00  0.00    +0.123 HD
BRANCH   4   7
ATOM      7  C   UNL     1      -3.970  -0.639  25.453  0.00  0.00    +0.054 C 
ATOM     10  C   UNL     1      -4.157  -1.555  24.237  0.00  0.00    +0.019 C 
ATOM     11  C   UNL     1      -2.527  -0.129  25.543  0.00  0.00    +0.019 C 
ATOM     14  C   UNL     1      -3.155  -2.708  24.249  0.00  0.00    +0.002 C 
ATOM     15  C   UNL     1      -1.528  -1.284  25.554  0.00  0.00    +0.002 C 
ATOM     16  C   UNL     1      -1.719  -2.204  24.351  0.00  0.00    +0.000 C 
ENDBRANCH   4   7
ENDBRANCH   8   4
BRANCH  12  17
ATOM     17  C   UNL     1      -1.250   3.538  24.307  0.00  0.00    +0.140 C 
BRANCH  17   5
ATOM      3  O   UNL     1       0.906   1.932  25.295  0.00  0.00    -0.253 OA
ATOM      5  N   UNL     1      -0.261   2.856  23.525  0.00  0.00    -0.297 N 
ATOM      6  N   UNL     1       1.578   1.542  23.081  0.00  0.00    -0.269 N 
ATOM     18  C   UNL     1       0.770   2.084  24.083  0.00  0.00    +0.304 C 
ATOM     27  H   UNL     1      -0.303   2.947  22.514  0.00  0.00    +0.150 HD
ATOM     28  H   UNL     1       1.327   1.766  22.121  0.00  0.00    +0.156 HD
BRANCH   6  19
ATOM     19  C   UNL     1       2.713   0.712  23.235  0.00  0.00    +0.035 A 
ATOM     20  C   UNL     1       2.553  -0.649  23.498  0.00  0.00    +0.023 A 
ATOM     21  C   UNL     1       3.993   1.254  23.123  0.00  0.00    +0.023 A 
ATOM     22  C   UNL     1       3.672  -1.467  23.650  0.00  0.00    +0.002 A 
ATOM     23  C   UNL     1       5.113   0.436  23.273  0.00  0.00    +0.002 A 
ATOM     24  C   UNL     1       4.952  -0.925  23.538  0.00  0.00    +0.000 A 
ENDBRANCH   6  19
ENDBRANCH  17   5
ENDBRANCH  12  17
TORSDOF 6
ENDMDL
MODEL 6
REMARK VINA RESULT:      -2.8      2.337      6.615
REMARK  Name = 75367106
REMARK  6 active torsions:
REMARK  status: ('A' for Active; 'I' for Inactive)
REMARK    1  A    between atoms: O_2  and  C_9
REMARK    2  A    between atoms: N_4  and  C_7
REMARK    3  A    between atoms: N_4  and  C_8
REMARK    4  A    between atoms: N_5  and  C_17
REMARK    5  A    between atoms: N_6  and  C_19
REMARK    6  A    between atoms: C_12  and  C_17
REMARK                            x       y       z     vdW  Elec       q    Type
REMARK                         _______ _______ _______ _____ _____    ______ ____
ROOT
ATOM      1  O   UNL     1      -0.925  -1.513  22.778  0.00  0.00    -0.371 OA
ATOM      8  C   UNL     1       0.666  -0.429  24.168  0.00  0.00    +0.111 C 
ATOM      9  C   UNL     1      -0.348  -1.144  25.042  0.00  0.00    +0.164 C 
ATOM     12  C   UNL     1      -0.914  -2.162  24.061  0.00  0.00    +0.165 C 
ATOM     13  C   UNL     1      -0.077  -0.354  22.844  0.00  0.00    +0.181 C 
ENDROOT
BRANCH   9   2
ATOM      2  O   UNL     1       0.243  -1.766  26.166  0.00  0.00    -0.388 OA
ATOM     26  H   UNL     1       0.424  -1.083  26.834  0.00  0.00    +0.210 HD
ENDBRANCH   9   2
BRANCH   8   4
ATOM      4  N   UNL     1       1.054   0.878  24.674  0.00  0.00    -0.306 NA
ATOM     25  H   UNL     1       1.788   1.278  24.090  0.00  0.00    +0.123 HD
BRANCH   4   7
ATOM      7  C   UNL     1      -0.095   1.779  24.715  0.00  0.00    +0.054 C 
ATOM     10  C   UNL     1      -0.357   2.225  26.158  0.00  0.00    +0.019 C 
ATOM     11  C   UNL     1       0.155   2.984  23.802  0.00  0.00    +0.019 C 
ATOM     14  C   UNL     1      -1.506   3.230  26.230  0.00  0.00    +0.002 C 
ATOM     15  C   UNL     1      -0.995   3.988  23.877  0.00  0.00    +0.002 C 
ATOM     16  C   UNL     1      -1.266   4.425  25.313  0.00  0.00    +0.000 C 
ENDBRANCH   4   7
ENDBRANCH   8   4
BRANCH  12  17
ATOM     17  C   UNL     1      -2.316  -2.623  24.416  0.00  0.00    +0.140 C 
BRANCH  17   5
ATOM      3  O   UNL     1      -2.686  -0.125  25.768  0.00  0.00    -0.253 OA
ATOM      5  N   UNL     1      -3.290  -1.617  24.107  0.00  0.00    -0.297 N 
ATOM      6  N   UNL     1      -4.442   0.370  24.293  0.00  0.00    -0.269 N 
ATOM     18  C   UNL     1      -3.411  -0.412  24.818  0.00  0.00    +0.304 C 
ATOM     27  H   UNL     1      -3.933  -1.791  23.340  0.00  0.00    +0.150 HD
ATOM     28  H   UNL     1      -4.948  -0.016  23.500  0.00  0.00    +0.156 HD
BRANCH   6  19
ATOM     19  C   UNL     1      -4.875   1.644  24.729  0.00  0.00    +0.035 A 
ATOM     20  C   UNL     1      -5.844   1.748  25.727  0.00  0.00    +0.023 A 
ATOM     21  C   UNL     1      -4.333   2.796  24.161  0.00  0.00    +0.023 A 
ATOM     22  C   UNL     1      -6.272   3.004  26.157  0.00  0.00    +0.002 A 
ATOM     23  C   UNL     1      -4.760   4.053  24.591  0.00  0.00    +0.002 A 
ATOM     24  C   UNL     1      -5.730   4.156  25.589  0.00  0.00    +0.000 A 
ENDBRANCH   6  19
ENDBRANCH  17   5
ENDBRANCH  12  17
TORSDOF 6
ENDMDL
MODEL 7
REMARK VINA RESULT:      -1.9      2.604      4.247
REMARK  Name = 75367106
REMARK  6 active torsions:
REMARK  status: ('A' for Active; 'I' for Inactive)
REMARK    1  A    between atoms: O_2  and  C_9
REMARK    2  A    between atoms: N_4  and  C_7
REMARK    3  A    between atoms: N_4  and  C_8
REMARK    4  A    between atoms: N_5  and  C_17
REMARK    5  A    between atoms: N_6  and  C_19
REMARK    6  A    between atoms: C_12  and  C_17
REMARK                            x       y       z     vdW  Elec       q    Type
REMARK                         _______ _______ _______ _____ _____    ______ ____
ROOT
ATOM      1  O   UNL     1      -0.027   3.606  24.006  0.00  0.00    -0.371 OA
ATOM      8  C   UNL     1      -2.231   4.487  24.093  0.00  0.00    +0.111 C 
ATOM      9  C   UNL     1      -1.822   4.039  25.484  0.00  0.00    +0.164 C 
ATOM     12  C   UNL     1      -0.305   4.024  25.353  0.00  0.00    +0.165 C 
ATOM     13  C   UNL     1      -1.230   3.737  23.229  0.00  0.00    +0.181 C 
ENDROOT
BRANCH   9   2
ATOM      2  O   UNL     1      -2.255   4.930  26.493  0.00  0.00    -0.388 OA
ATOM     26  H   UNL     1      -1.967   5.827  26.254  0.00  0.00    +0.210 HD
ENDBRANCH   9   2
BRANCH   8   4
ATOM      4  N   UNL     1      -3.612   4.173  23.761  0.00  0.00    -0.306 NA
ATOM     25  H   UNL     1      -3.679   3.866  22.791  0.00  0.00    +0.123 HD
BRANCH   4   7
ATOM      7  C   UNL     1      -4.135   3.137  24.649  0.00  0.00    +0.054 C 
ATOM     10  C   UNL     1      -5.376   3.658  25.383  0.00  0.00    +0.019 C 
ATOM     11  C   UNL     1      -4.459   1.875  23.842  0.00  0.00    +0.019 C 
ATOM     14  C   UNL     1      -5.996   2.574  26.264  0.00  0.00    +0.002 C 
ATOM     15  C   UNL     1      -5.079   0.794  24.726  0.00  0.00    +0.002 C 
ATOM     16  C   UNL     1      -6.309   1.312  25.467  0.00  0.00    +0.000 C 
ENDBRANCH   4   7
ENDBRANCH   8   4
BRANCH  12  17
ATOM     17  C   UNL     1       0.374   3.084  26.333  0.00  0.00    +0.140 C 
BRANCH  17   5
ATOM      3  O   UNL     1      -1.963   1.461  25.999  0.00  0.00    -0.253 OA
ATOM      5  N   UNL     1       0.331   1.728  25.869  0.00  0.00    -0.297 N 
ATOM      6  N   UNL     1      -0.591  -0.294  25.260  0.00  0.00    -0.269 N 
ATOM     18  C   UNL     1      -0.858   0.994  25.730  0.00  0.00    +0.304 C 
ATOM     27  H   UNL     1       1.209   1.272  25.640  0.00  0.00    +0.150 HD
ATOM     28  H   UNL     1       0.384  -0.523  25.086  0.00  0.00    +0.156 HD
BRANCH   6  19
ATOM     19  C   UNL     1      -1.517  -1.330  24.992  0.00  0.00    +0.035 A 
ATOM     20  C   UNL     1      -1.192  -2.337  24.082  0.00  0.00    +0.023 A 
ATOM     21  C   UNL     1      -2.753  -1.344  25.637  0.00  0.00    +0.023 A 
ATOM     22  C   UNL     1      -2.104  -3.358  23.817  0.00  0.00    +0.002 A 
ATOM     23  C   UNL     1      -3.665  -2.366  25.373  0.00  0.00    +0.002 A 
ATOM     24  C   UNL     1      -3.340  -3.372  24.462  0.00  0.00    +0.000 A 
ENDBRANCH   6  19
ENDBRANCH  17   5
ENDBRANCH  12  17
TORSDOF 6
ENDMDL
MODEL 8
REMARK VINA RESULT:      -1.5     15.903     17.779
REMARK  Name = 75367106
REMARK  6 active torsions:
REMARK  status: ('A' for Active; 'I' for Inactive)
REMARK    1  A    between atoms: O_2  and  C_9
REMARK    2  A    between atoms: N_4  and  C_7
REMARK    3  A    between atoms: N_4  and  C_8
REMARK    4  A    between atoms: N_5  and  C_17
REMARK    5  A    between atoms: N_6  and  C_19
REMARK    6  A    between atoms: C_12  and  C_17
REMARK                            x       y       z     vdW  Elec       q    Type
REMARK                         _______ _______ _______ _____ _____    ______ ____
ROOT
ATOM      1  O   UNL     1      -5.502  -8.683  11.430  0.00  0.00    -0.371 OA
ATOM      8  C   UNL     1      -6.834  -8.359   9.491  0.00  0.00    +0.111 C 
ATOM      9  C   UNL     1      -6.015  -9.626   9.323  0.00  0.00    +0.164 C 
ATOM     12  C   UNL     1      -5.674  -9.949  10.772  0.00  0.00    +0.165 C 
ATOM     13  C   UNL     1      -6.074  -7.655  10.604  0.00  0.00    +0.181 C 
ENDROOT
BRANCH   9   2
ATOM      2  O   UNL     1      -6.745 -10.670   8.707  0.00  0.00    -0.388 OA
ATOM     26  H   UNL     1      -6.872 -10.442   7.770  0.00  0.00    +0.210 HD
ENDBRANCH   9   2
BRANCH   8   4
ATOM      4  N   UNL     1      -6.931  -7.562   8.279  0.00  0.00    -0.306 NA
ATOM     25  H   UNL     1      -6.689  -8.128   7.466  0.00  0.00    +0.123 HD
BRANCH   4   7
ATOM      7  C   UNL     1      -8.278  -7.018   8.124  0.00  0.00    +0.054 C 
ATOM     10  C   UNL     1      -9.268  -7.826   8.971  0.00  0.00    +0.019 C 
ATOM     11  C   UNL     1      -8.291  -5.538   8.520  0.00  0.00    +0.019 C 
ATOM     14  C   UNL     1     -10.676  -7.238   8.894  0.00  0.00    +0.002 C 
ATOM     15  C   UNL     1      -9.701  -4.953   8.443  0.00  0.00    +0.002 C 
ATOM     16  C   UNL     1     -10.691  -5.762   9.276  0.00  0.00    +0.000 C 
ENDBRANCH   4   7
ENDBRANCH   8   4
BRANCH  12  17
ATOM     17  C   UNL     1      -4.414 -10.781  10.921  0.00  0.00    +0.140 C 
BRANCH  17   5
ATOM      3  O   UNL     1      -2.306  -9.791  12.588  0.00  0.00    -0.253 OA
ATOM      5  N   UNL     1      -3.254 -10.053  10.495  0.00  0.00    -0.297 N 
ATOM      6  N   UNL     1      -1.255  -8.923  10.679  0.00  0.00    -0.269 N 
ATOM     18  C   UNL     1      -2.259  -9.598  11.376  0.00  0.00    +0.304 C 
ATOM     27  H   UNL     1      -3.155  -9.845   9.506  0.00  0.00    +0.150 HD
ATOM     28  H   UNL     1      -1.369  -8.851   9.671  0.00  0.00    +0.156 HD
BRANCH   6  19
ATOM     19  C   UNL     1      -0.088  -8.320  11.204  0.00  0.00    +0.035 A 
ATOM     20  C   UNL     1       1.162  -8.635  10.668  0.00  0.00    +0.023 A 
ATOM     21  C   UNL     1      -0.186  -7.412  12.257  0.00  0.00    +0.023 A 
ATOM     22  C   UNL     1       2.313  -8.041  11.186  0.00  0.00    +0.002 A 
ATOM     23  C   UNL     1       0.965  -6.817  12.775  0.00  0.00    +0.002 A 
ATOM     24  C   UNL     1       2.214  -7.133  12.239  0.00  0.00    +0.000 A 
ENDBRANCH   6  19
ENDBRANCH  17   5
ENDBRANCH  12  17
TORSDOF 6
ENDMDL
MODEL 9
REMARK VINA RESULT:      -0.5      2.805      3.771
REMARK  Name = 75367106
REMARK  6 active torsions:
REMARK  status: ('A' for Active; 'I' for Inactive)
REMARK    1  A    between atoms: O_2  and  C_9
REMARK    2  A    between atoms: N_4  and  C_7
REMARK    3  A    between atoms: N_4  and  C_8
REMARK    4  A    between atoms: N_5  and  C_17
REMARK    5  A    between atoms: N_6  and  C_19
REMARK    6  A    between atoms: C_12  and  C_17
REMARK                            x       y       z     vdW  Elec       q    Type
REMARK                         _______ _______ _______ _____ _____    ______ ____
ROOT
ATOM      1  O   UNL     1      -3.038   1.455  22.653  0.00  0.00    -0.371 OA
ATOM      8  C   UNL     1      -4.398   1.100  24.567  0.00  0.00    +0.111 C 
ATOM      9  C   UNL     1      -3.413   2.216  24.860  0.00  0.00    +0.164 C 
ATOM     12  C   UNL     1      -3.034   2.651  23.451  0.00  0.00    +0.165 C 
ATOM     13  C   UNL     1      -3.744   0.429  23.370  0.00  0.00    +0.181 C 
ENDROOT
BRANCH   9   2
ATOM      2  O   UNL     1      -3.992   3.274  25.601  0.00  0.00    -0.388 OA
ATOM     26  H   UNL     1      -4.526   2.890  26.317  0.00  0.00    +0.210 HD
ENDBRANCH   9   2
BRANCH   8   4
ATOM      4  N   UNL     1      -4.602   0.192  25.685  0.00  0.00    -0.306 NA
ATOM     25  H   UNL     1      -5.540  -0.205  25.649  0.00  0.00    +0.123 HD
BRANCH   4   7
ATOM      7  C   UNL     1      -3.608  -0.879  25.669  0.00  0.00    +0.054 C 
ATOM     10  C   UNL     1      -3.915  -1.858  24.530  0.00  0.00    +0.019 C 
ATOM     11  C   UNL     1      -2.203  -0.283  25.522  0.00  0.00    +0.019 C 
ATOM     14  C   UNL     1      -2.851  -2.951  24.434  0.00  0.00    +0.002 C 
ATOM     15  C   UNL     1      -1.142  -1.379  25.425  0.00  0.00    +0.002 C 
ATOM     16  C   UNL     1      -1.451  -2.362  24.300  0.00  0.00    +0.000 C 
ENDBRANCH   4   7
ENDBRANCH   8   4
BRANCH  12  17
ATOM     17  C   UNL     1      -1.672   3.316  23.374  0.00  0.00    +0.140 C 
BRANCH  17   5
ATOM      3  O   UNL     1      -1.030   4.150  26.037  0.00  0.00    -0.253 OA
ATOM      5  N   UNL     1      -0.736   2.693  24.265  0.00  0.00    -0.297 N 
ATOM      6  N   UNL     1       0.478   2.359  26.194  0.00  0.00    -0.269 N 
ATOM     18  C   UNL     1      -0.474   3.162  25.563  0.00  0.00    +0.304 C 
ATOM     27  H   UNL     1      -0.229   1.878  23.934  0.00  0.00    +0.150 HD
ATOM     28  H   UNL     1       0.841   1.575  25.658  0.00  0.00    +0.156 HD
BRANCH   6  19
ATOM     19  C   UNL     1       1.006   2.500  27.499  0.00  0.00    +0.035 A 
ATOM     20  C   UNL     1       2.329   2.906  27.676  0.00  0.00    +0.023 A 
ATOM     21  C   UNL     1       0.204   2.234  28.608  0.00  0.00    +0.023 A 
ATOM     22  C   UNL     1       2.850   3.045  28.963  0.00  0.00    +0.002 A 
ATOM     23  C   UNL     1       0.724   2.373  29.895  0.00  0.00    +0.002 A 
ATOM     24  C   UNL     1       2.047   2.778  30.072  0.00  0.00    +0.000 A 
ENDBRANCH   6  19
ENDBRANCH  17   5
ENDBRANCH  12  17
TORSDOF 6
ENDMDL
MODEL 10
REMARK VINA RESULT:       0.2      2.449      7.046
REMARK  Name = 75367106
REMARK  6 active torsions:
REMARK  status: ('A' for Active; 'I' for Inactive)
REMARK    1  A    between atoms: O_2  and  C_9
REMARK    2  A    between atoms: N_4  and  C_7
REMARK    3  A    between atoms: N_4  and  C_8
REMARK    4  A    between atoms: N_5  and  C_17
REMARK    5  A    between atoms: N_6  and  C_19
REMARK    6  A    between atoms: C_12  and  C_17
REMARK                            x       y       z     vdW  Elec       q    Type
REMARK                         _______ _______ _______ _____ _____    ______ ____
ROOT
ATOM      1  O   UNL     1      -1.351  -2.974  23.346  0.00  0.00    -0.371 OA
ATOM      8  C   UNL     1       0.235  -1.332  24.001  0.00  0.00    +0.111 C 
ATOM      9  C   UNL     1      -0.967  -1.255  24.924  0.00  0.00    +0.164 C 
ATOM     12  C   UNL     1      -1.579  -2.635  24.724  0.00  0.00    +0.165 C 
ATOM     13  C   UNL     1      -0.341  -2.096  22.820  0.00  0.00    +0.181 C 
ENDROOT
BRANCH   9   2
ATOM      2  O   UNL     1      -0.605  -1.029  26.273  0.00  0.00    -0.388 OA
ATOM     26  H   UNL     1       0.360  -0.920  26.317  0.00  0.00    +0.210 HD
ENDBRANCH   9   2
BRANCH   8   4
ATOM      4  N   UNL     1       0.770  -0.032  23.629  0.00  0.00    -0.306 NA
ATOM     25  H   UNL     1       0.779   0.589  24.438  0.00  0.00    +0.123 HD
BRANCH   4   7
ATOM      7  C   UNL     1       2.120  -0.163  23.087  0.00  0.00    +0.054 C 
ATOM     10  C   UNL     1       2.792   1.214  23.023  0.00  0.00    +0.019 C 
ATOM     11  C   UNL     1       2.934  -1.136  23.946  0.00  0.00    +0.019 C 
ATOM     14  C   UNL     1       4.235   1.106  22.532  0.00  0.00    +0.002 C 
ATOM     15  C   UNL     1       4.376  -1.241  23.453  0.00  0.00    +0.002 C 
ATOM     16  C   UNL     1       5.045   0.129  23.377  0.00  0.00    +0.000 C 
ENDBRANCH   4   7
ENDBRANCH   8   4
BRANCH  12  17
ATOM     17  C   UNL     1      -3.066  -2.681  25.025  0.00  0.00    +0.140 C 
BRANCH  17   5
ATOM      3  O   UNL     1      -3.202  -0.065  26.182  0.00  0.00    -0.253 OA
ATOM      5  N   UNL     1      -3.744  -1.539  24.484  0.00  0.00    -0.297 N 
ATOM      6  N   UNL     1      -4.499   0.634  24.356  0.00  0.00    -0.269 N 
ATOM     18  C   UNL     1      -3.766  -0.283  25.112  0.00  0.00    +0.304 C 
ATOM     27  H   UNL     1      -4.243  -1.649  23.607  0.00  0.00    +0.150 HD
ATOM     28  H   UNL     1      -4.904   0.289  23.489  0.00  0.00    +0.156 HD
BRANCH   6  19
ATOM     19  C   UNL     1      -4.753   1.995  24.647  0.00  0.00    +0.035 A 
ATOM     20  C   UNL     1      -5.843   2.347  25.443  0.00  0.00    +0.023 A 
ATOM     21  C   UNL     1      -3.913   2.985  24.138  0.00  0.00    +0.023 A 
ATOM     22  C   UNL     1      -6.094   3.688  25.730  0.00  0.00    +0.002 A 
ATOM     23  C   UNL     1      -4.163   4.327  24.426  0.00  0.00    +0.002 A 
ATOM     24  C   UNL     1      -5.254   4.678  25.221  0.00  0.00    +0.000 A 
ENDBRANCH   6  19
ENDBRANCH  17   5
ENDBRANCH  12  17
TORSDOF 6
ENDMDL
