MODEL 1
REMARK VINA RESULT:       2.1      0.000      0.000
REMARK  Name = 7049571
REMARK  12 active torsions:
REMARK  status: ('A' for Active; 'I' for Inactive)
REMARK    1  A    between atoms: O_6  and  C_23
REMARK    2  A    between atoms: O_6  and  C_33
REMARK    3  A    between atoms: N_9  and  C_13
REMARK    4  A    between atoms: N_10  and  C_19
REMARK    5  A    between atoms: N_11  and  C_29
REMARK    6  A    between atoms: N_12  and  C_30
REMARK    7  A    between atoms: C_14  and  C_17
REMARK    8  A    between atoms: C_18  and  C_21
REMARK    9  A    between atoms: C_19  and  C_20
REMARK   10  A    between atoms: C_19  and  C_23
REMARK   11  A    between atoms: C_20  and  C_24
REMARK   12  A    between atoms: C_20  and  C_25
REMARK                            x       y       z     vdW  Elec       q    Type
REMARK                         _______ _______ _______ _____ _____    ______ ____
ROOT
ATOM      4  O   UNL     1      -2.104  -0.194  26.390  0.00  0.00    -0.268 OA
ATOM      8  N   UNL     1      -2.265   0.872  24.350  0.00  0.00    -0.283 N 
ATOM     13  C   UNL     1      -1.281   2.849  23.484  0.00  0.00    +0.105 C 
ATOM     14  C   UNL     1      -1.592   2.095  24.778  0.00  0.00    +0.182 C 
ATOM     15  C   UNL     1      -2.385   2.383  22.531  0.00  0.00    +0.043 C 
ATOM     16  C   UNL     1      -2.619   0.932  22.931  0.00  0.00    +0.111 C 
ATOM     18  C   UNL     1      -2.429  -0.224  25.202  0.00  0.00    +0.264 C 
ENDROOT
BRANCH  13   9
ATOM      5  O   UNL     1       0.602   1.061  24.690  0.00  0.00    -0.252 OA
ATOM      9  N   UNL     1       0.024   2.499  22.976  0.00  0.00    -0.294 N 
ATOM     12  N   UNL     1       2.073   1.467  22.908  0.00  0.00    -0.267 N 
ATOM     22  C   UNL     1       0.886   1.613  23.630  0.00  0.00    +0.304 C 
ATOM     37  H   UNL     1       0.305   2.862  22.070  0.00  0.00    +0.151 HD
ATOM     39  H   UNL     1       2.152   2.000  22.044  0.00  0.00    +0.156 HD
BRANCH  12  30
ATOM      1  F   UNL     1       1.820  -1.265  23.393  0.00  0.00    -0.203 F 
ATOM      2  F   UNL     1       6.470  -1.666  24.164  0.00  0.00    -0.205 F 
ATOM     30  C   UNL     1       3.193   0.665  23.229  0.00  0.00    +0.070 A 
ATOM     31  C   UNL     1       3.033  -0.700  23.467  0.00  0.00    +0.147 A 
ATOM     32  C   UNL     1       4.460   1.244  23.309  0.00  0.00    +0.029 A 
ATOM     34  C   UNL     1       4.140  -1.488  23.782  0.00  0.00    +0.078 A 
ATOM     35  C   UNL     1       5.567   0.456  23.626  0.00  0.00    +0.040 A 
ATOM     36  C   UNL     1       5.407  -0.909  23.862  0.00  0.00    +0.126 A 
ENDBRANCH  12  30
ENDBRANCH  13   9
BRANCH  18  21
ATOM     11  N   UNL     1      -2.367  -2.582  24.363  0.00  0.00    -0.346 N 
ATOM     21  C   UNL     1      -3.035  -1.414  24.621  0.00  0.00    +0.104 A 
ATOM     26  C   UNL     1      -4.346  -1.585  24.234  0.00  0.00    +0.032 A 
ATOM     27  C   UNL     1      -3.230  -3.495  23.817  0.00  0.00    +0.086 A 
ATOM     28  C   UNL     1      -4.470  -2.902  23.725  0.00  0.00    +0.020 A 
ATOM     29  C   UNL     1      -0.965  -2.830  24.620  0.00  0.00    +0.149 C 
ENDBRANCH  18  21
BRANCH  14  17
ATOM      3  O   UNL     1      -2.202   3.622  26.511  0.00  0.00    -0.274 OA
ATOM     10  N   UNL     1      -3.886   2.561  25.303  0.00  0.00    -0.301 N 
ATOM     17  C   UNL     1      -2.570   2.853  25.626  0.00  0.00    +0.236 C 
ATOM     38  H   UNL     1      -4.067   1.950  24.512  0.00  0.00    +0.150 HD
BRANCH  10  19
ATOM     19  C   UNL     1      -5.016   3.140  25.986  0.00  0.00    +0.184 C 
BRANCH  19  20
ATOM     20  C   UNL     1      -6.274   2.247  25.910  0.00  0.00    +0.014 C 
ATOM     24  C   UNL     1      -6.239   1.345  24.672  0.00  0.00    +0.009 C 
ATOM     25  C   UNL     1      -6.492   1.400  27.168  0.00  0.00    +0.009 C 
ENDBRANCH  19  20
BRANCH  19  23
ATOM      7  O   UNL     1      -6.368   5.127  25.717  0.00  0.00    -0.249 OA
ATOM     23  C   UNL     1      -5.308   4.552  25.491  0.00  0.00    +0.328 C 
BRANCH  23   6
ATOM      6  O   UNL     1      -4.268   5.076  24.784  0.00  0.00    -0.467 OA
ATOM     33  C   UNL     1      -4.318   4.880  23.366  0.00  0.00    +0.280 C 
ENDBRANCH  23   6
ENDBRANCH  19  23
ENDBRANCH  10  19
ENDBRANCH  14  17
TORSDOF 8
ENDMDL
MODEL 2
REMARK VINA RESULT:       5.0      1.363      2.229
REMARK  Name = 7049571
REMARK  12 active torsions:
REMARK  status: ('A' for Active; 'I' for Inactive)
REMARK    1  A    between atoms: O_6  and  C_23
REMARK    2  A    between atoms: O_6  and  C_33
REMARK    3  A    between atoms: N_9  and  C_13
REMARK    4  A    between atoms: N_10  and  C_19
REMARK    5  A    between atoms: N_11  and  C_29
REMARK    6  A    between atoms: N_12  and  C_30
REMARK    7  A    between atoms: C_14  and  C_17
REMARK    8  A    between atoms: C_18  and  C_21
REMARK    9  A    between atoms: C_19  and  C_20
REMARK   10  A    between atoms: C_19  and  C_23
REMARK   11  A    between atoms: C_20  and  C_24
REMARK   12  A    between atoms: C_20  and  C_25
REMARK                            x       y       z     vdW  Elec       q    Type
REMARK                         _______ _______ _______ _____ _____    ______ ____
ROOT
ATOM      4  O   UNL     1      -2.392  -0.382  26.119  0.00  0.00    -0.268 OA
ATOM      8  N   UNL     1      -2.384   0.494  23.985  0.00  0.00    -0.283 N 
ATOM     13  C   UNL     1      -1.077   2.175  22.939  0.00  0.00    +0.105 C 
ATOM     14  C   UNL     1      -1.502   1.615  24.297  0.00  0.00    +0.182 C 
ATOM     15  C   UNL     1      -2.254   1.820  22.027  0.00  0.00    +0.043 C 
ATOM     16  C   UNL     1      -2.736   0.479  22.564  0.00  0.00    +0.111 C 
ATOM     18  C   UNL     1      -2.729  -0.468  24.937  0.00  0.00    +0.264 C 
ENDROOT
BRANCH  13   9
ATOM      5  O   UNL     1       1.164   1.398  24.543  0.00  0.00    -0.252 OA
ATOM      9  N   UNL     1       0.141   1.554  22.476  0.00  0.00    -0.294 N 
ATOM     12  N   UNL     1       2.236   0.622  22.604  0.00  0.00    -0.267 N 
ATOM     22  C   UNL     1       1.193   1.204  23.330  0.00  0.00    +0.304 C 
ATOM     37  H   UNL     1       0.214   1.299  21.496  0.00  0.00    +0.151 HD
ATOM     39  H   UNL     1       2.102   0.536  21.599  0.00  0.00    +0.156 HD
BRANCH  12  30
ATOM      1  F   UNL     1       4.520   2.218  22.644  0.00  0.00    -0.203 F 
ATOM      2  F   UNL     1       7.066  -1.293  24.533  0.00  0.00    -0.205 F 
ATOM     30  C   UNL     1       3.470   0.136  23.095  0.00  0.00    +0.070 A 
ATOM     31  C   UNL     1       4.596   0.960  23.101  0.00  0.00    +0.147 A 
ATOM     32  C   UNL     1       3.559  -1.171  23.573  0.00  0.00    +0.029 A 
ATOM     34  C   UNL     1       5.811   0.477  23.588  0.00  0.00    +0.078 A 
ATOM     35  C   UNL     1       4.775  -1.654  24.059  0.00  0.00    +0.040 A 
ATOM     36  C   UNL     1       5.900  -0.830  24.066  0.00  0.00    +0.126 A 
ENDBRANCH  12  30
ENDBRANCH  13   9
BRANCH  18  21
ATOM     11  N   UNL     1      -3.076  -2.858  24.275  0.00  0.00    -0.346 N 
ATOM     21  C   UNL     1      -3.541  -1.584  24.469  0.00  0.00    +0.104 A 
ATOM     26  C   UNL     1      -4.880  -1.570  24.145  0.00  0.00    +0.032 A 
ATOM     27  C   UNL     1      -4.097  -3.658  23.832  0.00  0.00    +0.086 A 
ATOM     28  C   UNL     1      -5.232  -2.882  23.741  0.00  0.00    +0.020 A 
ATOM     29  C   UNL     1      -1.719  -3.308  24.498  0.00  0.00    +0.149 C 
ENDBRANCH  18  21
BRANCH  14  17
ATOM      3  O   UNL     1      -2.242   2.717  26.282  0.00  0.00    -0.274 OA
ATOM     10  N   UNL     1      -3.163   3.345  24.238  0.00  0.00    -0.301 N 
ATOM     17  C   UNL     1      -2.323   2.611  25.061  0.00  0.00    +0.236 C 
ATOM     38  H   UNL     1      -3.100   3.207  23.234  0.00  0.00    +0.150 HD
BRANCH  10  19
ATOM     19  C   UNL     1      -4.071   4.351  24.730  0.00  0.00    +0.184 C 
BRANCH  19  20
ATOM     20  C   UNL     1      -3.400   5.314  25.735  0.00  0.00    +0.014 C 
ATOM     24  C   UNL     1      -3.391   4.721  27.148  0.00  0.00    +0.009 C 
ATOM     25  C   UNL     1      -1.979   5.718  25.328  0.00  0.00    +0.009 C 
ENDBRANCH  19  20
BRANCH  19  23
ATOM      7  O   UNL     1      -6.216   4.398  25.847  0.00  0.00    -0.249 OA
ATOM     23  C   UNL     1      -5.334   3.730  25.317  0.00  0.00    +0.328 C 
BRANCH  23   6
ATOM      6  O   UNL     1      -5.351   2.374  25.184  0.00  0.00    -0.467 OA
ATOM     33  C   UNL     1      -6.166   1.666  26.124  0.00  0.00    +0.280 C 
ENDBRANCH  23   6
ENDBRANCH  19  23
ENDBRANCH  10  19
ENDBRANCH  14  17
TORSDOF 8
ENDMDL
