MODEL 1
REMARK VINA RESULT:      -2.5      0.000      0.000
REMARK  Name = 75368469
REMARK  7 active torsions:
REMARK  status: ('A' for Active; 'I' for Inactive)
REMARK    1  A    between atoms: O_3  and  C_24
REMARK    2  A    between atoms: O_3  and  C_25
REMARK    3  A    between atoms: N_5  and  C_14
REMARK    4  A    between atoms: N_7  and  C_17
REMARK    5  A    between atoms: C_14  and  C_16
REMARK    6  A    between atoms: C_17  and  C_20
REMARK    7  A    between atoms: C_17  and  C_21
REMARK                            x       y       z     vdW  Elec       q    Type
REMARK                         _______ _______ _______ _____ _____    ______ ____
ROOT
ATOM      1  O   UNL     1      -8.831  -8.582   9.436  0.00  0.00    -0.252 OA
ATOM      2  O   UNL     1      -1.970  -9.211  10.025  0.00  0.00    -0.253 OA
ATOM      4  N   UNL     1      -6.739  -8.995  10.423  0.00  0.00    -0.278 N 
ATOM      5  N   UNL     1      -8.588  -9.501  11.595  0.00  0.00    -0.279 N 
ATOM      6  N   UNL     1      -4.110  -9.880  10.615  0.00  0.00    -0.282 N 
ATOM      7  N   UNL     1      -2.319  -9.983  12.156  0.00  0.00    -0.297 N 
ATOM      8  C   UNL     1      -6.245  -9.416  11.724  0.00  0.00    +0.112 C 
ATOM      9  C   UNL     1      -7.488  -9.961  12.423  0.00  0.00    +0.133 C 
ATOM     10  C   UNL     1      -5.111 -10.422  11.556  0.00  0.00    +0.133 C 
ATOM     11  C   UNL     1      -5.804  -8.564   9.398  0.00  0.00    +0.128 C 
ATOM     12  C   UNL     1      -4.653  -9.564   9.284  0.00  0.00    +0.128 C 
ATOM     13  C   UNL     1      -8.140  -8.973  10.368  0.00  0.00    +0.306 C 
ATOM     15  C   UNL     1      -2.747  -9.662  10.874  0.00  0.00    +0.303 C 
ATOM     26  H   UNL     1      -2.982 -10.217  12.882  0.00  0.00    +0.150 HD
ENDROOT
BRANCH   7  17
ATOM     17  C   UNL     1      -0.947  -9.808  12.575  0.00  0.00    +0.068 C 
ATOM     20  C   UNL     1      -0.307  -8.638  11.838  0.00  0.00    +0.027 C 
ATOM     21  C   UNL     1      -0.876  -9.614  14.085  0.00  0.00    +0.027 C 
ENDBRANCH   7  17
BRANCH   5  14
ATOM     14  C   UNL     1      -9.969  -9.715  11.968  0.00  0.00    +0.144 C 
BRANCH  14  16
ATOM     16  C   UNL     1     -10.166  -9.642  13.454  0.00  0.00    -0.030 A 
ATOM     18  C   UNL     1     -10.536  -8.437  14.050  0.00  0.00    +0.009 A 
ATOM     19  C   UNL     1      -9.981 -10.780  14.239  0.00  0.00    +0.009 A 
ATOM     22  C   UNL     1     -10.720  -8.367  15.431  0.00  0.00    +0.046 A 
ATOM     23  C   UNL     1     -10.165 -10.712  15.621  0.00  0.00    +0.046 A 
ATOM     24  C   UNL     1     -10.534  -9.505  16.216  0.00  0.00    +0.120 A 
BRANCH  24   3
ATOM      3  O   UNL     1     -10.712  -9.439  17.563  0.00  0.00    -0.495 OA
ATOM     25  C   UNL     1      -9.996 -10.384  18.359  0.00  0.00    +0.277 C 
ENDBRANCH  24   3
ENDBRANCH  14  16
ENDBRANCH   5  14
TORSDOF 4
ENDMDL
MODEL 2
REMARK VINA RESULT:      -1.9      1.956      2.519
REMARK  Name = 75368469
REMARK  7 active torsions:
REMARK  status: ('A' for Active; 'I' for Inactive)
REMARK    1  A    between atoms: O_3  and  C_24
REMARK    2  A    between atoms: O_3  and  C_25
REMARK    3  A    between atoms: N_5  and  C_14
REMARK    4  A    between atoms: N_7  and  C_17
REMARK    5  A    between atoms: C_14  and  C_16
REMARK    6  A    between atoms: C_17  and  C_20
REMARK    7  A    between atoms: C_17  and  C_21
REMARK                            x       y       z     vdW  Elec       q    Type
REMARK                         _______ _______ _______ _____ _____    ______ ____
ROOT
ATOM      1  O   UNL     1      -9.356  -9.674  11.516  0.00  0.00    -0.252 OA
ATOM      2  O   UNL     1      -2.837  -8.955   9.328  0.00  0.00    -0.253 OA
ATOM      4  N   UNL     1      -7.020  -9.443  11.610  0.00  0.00    -0.278 N 
ATOM      5  N   UNL     1      -8.122  -9.910  13.512  0.00  0.00    -0.279 N 
ATOM      6  N   UNL     1      -4.364  -9.786  10.861  0.00  0.00    -0.282 N 
ATOM      7  N   UNL     1      -2.180  -9.159  11.516  0.00  0.00    -0.297 N 
ATOM      8  C   UNL     1      -6.000  -9.400  12.645  0.00  0.00    +0.112 C 
ATOM      9  C   UNL     1      -6.717  -9.933  13.882  0.00  0.00    +0.133 C 
ATOM     10  C   UNL     1      -4.779 -10.208  12.214  0.00  0.00    +0.133 C 
ATOM     11  C   UNL     1      -6.665  -9.160  10.230  0.00  0.00    +0.128 C 
ATOM     12  C   UNL     1      -5.412  -9.944   9.840  0.00  0.00    +0.128 C 
ATOM     13  C   UNL     1      -8.300  -9.672  12.135  0.00  0.00    +0.306 C 
ATOM     15  C   UNL     1      -3.108  -9.280  10.489  0.00  0.00    +0.303 C 
ATOM     26  H   UNL     1      -2.451  -9.292  12.481  0.00  0.00    +0.150 HD
ENDROOT
BRANCH   7  17
ATOM     17  C   UNL     1      -0.847  -8.648  11.291  0.00  0.00    +0.068 C 
ATOM     20  C   UNL     1      -0.381  -7.823  12.485  0.00  0.00    +0.027 C 
ATOM     21  C   UNL     1       0.117  -9.792  11.001  0.00  0.00    +0.027 C 
ENDBRANCH   7  17
BRANCH   5  14
ATOM     14  C   UNL     1      -9.167 -10.242  14.454  0.00  0.00    +0.144 C 
BRANCH  14  16
ATOM     16  C   UNL     1      -8.649 -10.326  15.861  0.00  0.00    -0.030 A 
ATOM     18  C   UNL     1      -9.498 -10.057  16.934  0.00  0.00    +0.009 A 
ATOM     19  C   UNL     1      -7.319 -10.674  16.095  0.00  0.00    +0.009 A 
ATOM     22  C   UNL     1      -9.018 -10.134  18.241  0.00  0.00    +0.046 A 
ATOM     23  C   UNL     1      -6.838 -10.752  17.402  0.00  0.00    +0.046 A 
ATOM     24  C   UNL     1      -7.688 -10.483  18.475  0.00  0.00    +0.120 A 
BRANCH  24   3
ATOM      3  O   UNL     1      -7.218 -10.558  19.749  0.00  0.00    -0.495 OA
ATOM     25  C   UNL     1      -5.817 -10.781  19.912  0.00  0.00    +0.277 C 
ENDBRANCH  24   3
ENDBRANCH  14  16
ENDBRANCH   5  14
TORSDOF 4
ENDMDL
