MODEL 1
REMARK VINA RESULT:       7.3      0.000      0.000
REMARK  Name = 11911962
REMARK  2 active torsions:
REMARK  status: ('A' for Active; 'I' for Inactive)
REMARK    1  A    between atoms: C_13  and  C_14
REMARK    2  A    between atoms: C_22  and  C_24
REMARK                            x       y       z     vdW  Elec       q    Type
REMARK                         _______ _______ _______ _____ _____    ______ ____
ROOT
ATOM      2  O   UNL     1      -4.135   0.254  27.185  0.00  0.00    -0.275 OA
ATOM      3  O   UNL     1       0.375   2.484  25.377  0.00  0.00    -0.267 OA
ATOM      4  N   UNL     1      -4.553   1.526  25.287  0.00  0.00    -0.300 N 
ATOM      5  N   UNL     1      -1.703   2.597  24.323  0.00  0.00    -0.311 N 
ATOM      6  C   UNL     1      -3.688   3.869  25.322  0.00  0.00    +0.027 C 
ATOM      7  C   UNL     1      -3.945   2.697  23.177  0.00  0.00    +0.054 C 
ATOM      8  C   UNL     1      -4.128   4.042  23.875  0.00  0.00    +0.018 C 
ATOM      9  C   UNL     1      -4.539   2.794  26.020  0.00  0.00    +0.113 C 
ATOM     10  C   UNL     1      -4.844   1.640  23.849  0.00  0.00    +0.117 C 
ATOM     11  C   UNL     1      -2.193   3.528  25.349  0.00  0.00    +0.130 C 
ATOM     12  C   UNL     1      -2.497   2.246  23.228  0.00  0.00    +0.027 A 
ATOM     14  C   UNL     1      -4.378   0.327  25.978  0.00  0.00    +0.219 C 
ATOM     17  C   UNL     1      -1.989   1.490  22.240  0.00  0.00    +0.022 A 
ATOM     20  C   UNL     1      -0.366   2.168  24.445  0.00  0.00    +0.260 A 
ATOM     22  C   UNL     1       0.158   1.292  23.341  0.00  0.00    +0.053 A 
ATOM     23  C   UNL     1      -0.640   1.003  22.303  0.00  0.00    +0.016 A 
ENDROOT
BRANCH  22  24
ATOM      1  S   UNL     1       1.743  -0.880  23.724  0.00  0.00    -0.088 S 
ATOM     24  C   UNL     1       1.489   0.776  23.391  0.00  0.00    +0.026 A 
ATOM     25  C   UNL     1       2.682   1.443  23.203  0.00  0.00    +0.024 A 
ATOM     26  C   UNL     1       3.831   0.593  23.330  0.00  0.00    -0.010 A 
ATOM     27  C   UNL     1       3.457  -0.723  23.619  0.00  0.00    +0.020 A 
ATOM     28  C   UNL     1       5.211   0.885  23.210  0.00  0.00    +0.009 A 
ATOM     29  C   UNL     1       4.416  -1.741  23.789  0.00  0.00    +0.015 A 
ATOM     30  C   UNL     1       6.165  -0.122  23.379  0.00  0.00    +0.001 A 
ATOM     31  C   UNL     1       5.769  -1.421  23.665  0.00  0.00    +0.001 A 
ENDBRANCH  22  24
BRANCH  14  13
ATOM     13  C   UNL     1      -4.490  -0.934  25.174  0.00  0.00    +0.075 C 
ATOM     15  C   UNL     1      -4.105  -0.661  23.719  0.00  0.00    +0.013 C 
ATOM     16  C   UNL     1      -3.612  -2.026  25.791  0.00  0.00    +0.013 C 
ATOM     18  C   UNL     1      -4.114  -1.939  22.883  0.00  0.00    +0.001 C 
ATOM     19  C   UNL     1      -3.622  -3.300  24.951  0.00  0.00    +0.001 C 
ATOM     21  C   UNL     1      -3.235  -3.023  23.502  0.00  0.00    +0.000 C 
ENDBRANCH  14  13
TORSDOF 2
ENDMDL
