MODEL 1
REMARK VINA RESULT:      -3.8      0.000      0.000
REMARK  Name = 45784307
REMARK  5 active torsions:
REMARK  status: ('A' for Active; 'I' for Inactive)
REMARK    1  A    between atoms: O_1  and  C_18
REMARK    2  A    between atoms: O_1  and  C_22
REMARK    3  A    between atoms: N_2  and  C_12
REMARK    4  A    between atoms: C_7  and  C_11
REMARK    5  A    between atoms: C_12  and  C_13
REMARK                            x       y       z     vdW  Elec       q    Type
REMARK                         _______ _______ _______ _____ _____    ______ ____
ROOT
ATOM      2  N   UNL     1      -5.216  -9.828  10.147  0.00  0.00    -0.295 NA
ATOM      7  C   UNL     1      -6.986  -9.529  11.655  0.00  0.00    +0.070 C 
ATOM      8  C   UNL     1      -6.335  -8.170  11.353  0.00  0.00    +0.028 C 
ATOM      9  C   UNL     1      -5.969 -10.567  11.162  0.00  0.00    +0.096 C 
ATOM     10  C   UNL     1      -4.983  -8.509  10.736  0.00  0.00    +0.085 C 
ENDROOT
BRANCH   7  11
ATOM      3  N   UNL     1      -6.447  -9.823  14.089  0.00  0.00    -0.341 N 
ATOM      4  N   UNL     1      -8.607  -9.851  13.567  0.00  0.00    -0.232 NA
ATOM     11  C   UNL     1      -7.385  -9.735  13.098  0.00  0.00    +0.113 A 
ATOM     14  C   UNL     1      -7.108 -10.007  15.276  0.00  0.00    +0.070 A 
ATOM     15  C   UNL     1      -8.454 -10.023  14.924  0.00  0.00    +0.089 A 
ATOM     16  C   UNL     1      -6.657 -10.159  16.589  0.00  0.00    +0.073 A 
ATOM     17  C   UNL     1      -9.423 -10.198  15.927  0.00  0.00    +0.033 A 
ATOM     18  C   UNL     1      -7.635 -10.333  17.574  0.00  0.00    +0.122 A 
ATOM     19  C   UNL     1      -8.993 -10.352  17.251  0.00  0.00    +0.048 A 
ATOM     23  H   UNL     1      -5.444  -9.762  13.972  0.00  0.00    +0.167 HD
BRANCH  18   1
ATOM      1  O   UNL     1      -7.252 -10.485  18.873  0.00  0.00    -0.495 OA
ATOM     22  C   UNL     1      -5.851 -10.506  19.137  0.00  0.00    +0.277 C 
ENDBRANCH  18   1
ENDBRANCH   7  11
BRANCH   2  12
ATOM     12  C   UNL     1      -3.977 -10.496   9.778  0.00  0.00    +0.158 C 
BRANCH  12  13
ATOM      5  N   UNL     1      -1.923  -9.252  10.492  0.00  0.00    -0.347 N 
ATOM      6  N   UNL     1      -2.671 -10.781  11.918  0.00  0.00    -0.239 NA
ATOM     13  C   UNL     1      -2.869 -10.203  10.755  0.00  0.00    +0.121 A 
ATOM     20  C   UNL     1      -1.066  -9.223  11.556  0.00  0.00    +0.104 A 
ATOM     21  C   UNL     1      -1.548 -10.175  12.423  0.00  0.00    +0.130 A 
ATOM     24  H   UNL     1      -1.865  -8.675   9.664  0.00  0.00    +0.167 HD
ENDBRANCH  12  13
ENDBRANCH   2  12
TORSDOF 4
ENDMDL
MODEL 2
REMARK VINA RESULT:      -3.5      1.659      1.987
REMARK  Name = 45784307
REMARK  5 active torsions:
REMARK  status: ('A' for Active; 'I' for Inactive)
REMARK    1  A    between atoms: O_1  and  C_18
REMARK    2  A    between atoms: O_1  and  C_22
REMARK    3  A    between atoms: N_2  and  C_12
REMARK    4  A    between atoms: C_7  and  C_11
REMARK    5  A    between atoms: C_12  and  C_13
REMARK                            x       y       z     vdW  Elec       q    Type
REMARK                         _______ _______ _______ _____ _____    ______ ____
ROOT
ATOM      2  N   UNL     1      -4.655 -10.208  10.514  0.00  0.00    -0.295 NA
ATOM      7  C   UNL     1      -6.882  -9.929  11.193  0.00  0.00    +0.070 C 
ATOM      8  C   UNL     1      -6.345  -8.600  10.638  0.00  0.00    +0.028 C 
ATOM      9  C   UNL     1      -5.631 -10.781  11.444  0.00  0.00    +0.096 C 
ATOM     10  C   UNL     1      -4.829  -8.760  10.631  0.00  0.00    +0.085 C 
ENDROOT
BRANCH   7  11
ATOM      3  N   UNL     1      -7.222  -9.718  13.671  0.00  0.00    -0.341 N 
ATOM      4  N   UNL     1      -9.072  -9.747  12.440  0.00  0.00    -0.232 NA
ATOM     11  C   UNL     1      -7.760  -9.798  12.416  0.00  0.00    +0.113 A 
ATOM     14  C   UNL     1      -8.257  -9.608  14.564  0.00  0.00    +0.070 A 
ATOM     15  C   UNL     1      -9.402  -9.629  13.771  0.00  0.00    +0.089 A 
ATOM     16  C   UNL     1      -8.290  -9.496  15.954  0.00  0.00    +0.073 A 
ATOM     17  C   UNL     1     -10.662  -9.533  14.385  0.00  0.00    +0.033 A 
ATOM     18  C   UNL     1      -9.553  -9.402  16.548  0.00  0.00    +0.122 A 
ATOM     19  C   UNL     1     -10.719  -9.420  15.780  0.00  0.00    +0.048 A 
ATOM     23  H   UNL     1      -6.238  -9.736  13.903  0.00  0.00    +0.167 HD
BRANCH  18   1
ATOM      1  O   UNL     1      -9.646  -9.290  17.904  0.00  0.00    -0.495 OA
ATOM     22  C   UNL     1     -10.498 -10.218  18.573  0.00  0.00    +0.277 C 
ENDBRANCH  18   1
ENDBRANCH   7  11
BRANCH   2  12
ATOM     12  C   UNL     1      -3.293 -10.628  10.810  0.00  0.00    +0.158 C 
BRANCH  12  13
ATOM      5  N   UNL     1      -1.744 -10.252  12.743  0.00  0.00    -0.347 N 
ATOM      6  N   UNL     1      -3.836 -10.781  13.270  0.00  0.00    -0.239 NA
ATOM     13  C   UNL     1      -2.994 -10.563  12.284  0.00  0.00    +0.121 A 
ATOM     20  C   UNL     1      -1.792 -10.275  14.108  0.00  0.00    +0.104 A 
ATOM     21  C   UNL     1      -3.093 -10.604  14.409  0.00  0.00    +0.130 A 
ATOM     24  H   UNL     1      -0.932 -10.044  12.178  0.00  0.00    +0.167 HD
ENDBRANCH  12  13
ENDBRANCH   2  12
TORSDOF 4
ENDMDL
MODEL 3
REMARK VINA RESULT:      -3.0      2.462      3.806
REMARK  Name = 45784307
REMARK  5 active torsions:
REMARK  status: ('A' for Active; 'I' for Inactive)
REMARK    1  A    between atoms: O_1  and  C_18
REMARK    2  A    between atoms: O_1  and  C_22
REMARK    3  A    between atoms: N_2  and  C_12
REMARK    4  A    between atoms: C_7  and  C_11
REMARK    5  A    between atoms: C_12  and  C_13
REMARK                            x       y       z     vdW  Elec       q    Type
REMARK                         _______ _______ _______ _____ _____    ______ ____
ROOT
ATOM      2  N   UNL     1      -2.418 -10.208  11.033  0.00  0.00    -0.295 NA
ATOM      7  C   UNL     1      -4.668 -10.384  10.393  0.00  0.00    +0.070 C 
ATOM      8  C   UNL     1      -4.047  -9.134   9.748  0.00  0.00    +0.028 C 
ATOM      9  C   UNL     1      -3.683 -10.781  11.501  0.00  0.00    +0.096 C 
ATOM     10  C   UNL     1      -2.769  -8.877  10.538  0.00  0.00    +0.085 C 
ENDROOT
BRANCH   7  11
ATOM      3  N   UNL     1      -6.339  -9.999  12.226  0.00  0.00    -0.341 N 
ATOM      4  N   UNL     1      -7.180 -10.216  10.180  0.00  0.00    -0.232 NA
ATOM     11  C   UNL     1      -6.080 -10.203  10.899  0.00  0.00    +0.113 A 
ATOM     14  C   UNL     1      -7.697  -9.871  12.373  0.00  0.00    +0.070 A 
ATOM     15  C   UNL     1      -8.199 -10.012  11.082  0.00  0.00    +0.089 A 
ATOM     16  C   UNL     1      -8.504  -9.654  13.490  0.00  0.00    +0.073 A 
ATOM     17  C   UNL     1      -9.587  -9.932  10.875  0.00  0.00    +0.033 A 
ATOM     18  C   UNL     1      -9.883  -9.578  13.265  0.00  0.00    +0.122 A 
ATOM     19  C   UNL     1     -10.416  -9.714  11.982  0.00  0.00    +0.048 A 
ATOM     23  H   UNL     1      -5.655  -9.949  12.969  0.00  0.00    +0.167 HD
BRANCH  18   1
ATOM      1  O   UNL     1     -10.720  -9.366  14.320  0.00  0.00    -0.495 OA
ATOM     22  C   UNL     1     -10.215  -8.580  15.398  0.00  0.00    +0.277 C 
ENDBRANCH  18   1
ENDBRANCH   7  11
BRANCH   2  12
ATOM     12  C   UNL     1      -1.409 -10.161  12.080  0.00  0.00    +0.158 C 
BRANCH  12  13
ATOM      5  N   UNL     1      -1.258 -10.219  14.580  0.00  0.00    -0.347 N 
ATOM      6  N   UNL     1      -3.252 -10.689  13.721  0.00  0.00    -0.239 NA
ATOM     13  C   UNL     1      -2.008 -10.364  13.446  0.00  0.00    +0.121 A 
ATOM     20  C   UNL     1      -2.076 -10.466  15.646  0.00  0.00    +0.104 A 
ATOM     21  C   UNL     1      -3.301 -10.755  15.091  0.00  0.00    +0.130 A 
ATOM     24  H   UNL     1      -0.279  -9.972  14.625  0.00  0.00    +0.167 HD
ENDBRANCH  12  13
ENDBRANCH   2  12
TORSDOF 4
ENDMDL
MODEL 4
REMARK VINA RESULT:      -2.9     14.891     16.510
REMARK  Name = 45784307
REMARK  5 active torsions:
REMARK  status: ('A' for Active; 'I' for Inactive)
REMARK    1  A    between atoms: O_1  and  C_18
REMARK    2  A    between atoms: O_1  and  C_22
REMARK    3  A    between atoms: N_2  and  C_12
REMARK    4  A    between atoms: C_7  and  C_11
REMARK    5  A    between atoms: C_12  and  C_13
REMARK                            x       y       z     vdW  Elec       q    Type
REMARK                         _______ _______ _______ _____ _____    ______ ____
ROOT
ATOM      2  N   UNL     1       1.027  -0.398  23.518  0.00  0.00    -0.295 NA
ATOM      7  C   UNL     1      -0.899  -0.255  24.848  0.00  0.00    +0.070 C 
ATOM      8  C   UNL     1      -0.964  -1.526  23.984  0.00  0.00    +0.028 C 
ATOM      9  C   UNL     1       0.200   0.599  24.201  0.00  0.00    +0.096 C 
ATOM     10  C   UNL     1       0.073  -1.311  22.889  0.00  0.00    +0.085 C 
ENDROOT
BRANCH   7  11
ATOM      3  N   UNL     1      -2.247   1.798  25.366  0.00  0.00    -0.341 N 
ATOM      4  N   UNL     1      -3.413  -0.004  24.789  0.00  0.00    -0.232 NA
ATOM     11  C   UNL     1      -2.210   0.483  24.991  0.00  0.00    +0.113 A 
ATOM     14  C   UNL     1      -3.563   2.183  25.409  0.00  0.00    +0.070 A 
ATOM     15  C   UNL     1      -4.270   1.041  25.046  0.00  0.00    +0.089 A 
ATOM     16  C   UNL     1      -4.176   3.396  25.725  0.00  0.00    +0.073 A 
ATOM     17  C   UNL     1      -5.673   1.094  24.989  0.00  0.00    +0.033 A 
ATOM     18  C   UNL     1      -5.573   3.430  25.664  0.00  0.00    +0.122 A 
ATOM     19  C   UNL     1      -6.310   2.301  25.303  0.00  0.00    +0.048 A 
ATOM     23  H   UNL     1      -1.450   2.384  25.575  0.00  0.00    +0.167 HD
BRANCH  18   1
ATOM      1  O   UNL     1      -6.226   4.589  25.963  0.00  0.00    -0.495 OA
ATOM     22  C   UNL     1      -6.236   5.603  24.960  0.00  0.00    +0.277 C 
ENDBRANCH  18   1
ENDBRANCH   7  11
BRANCH   2  12
ATOM     12  C   UNL     1       1.938   0.202  22.554  0.00  0.00    +0.158 C 
BRANCH  12  13
ATOM      5  N   UNL     1       3.876  -1.050  23.530  0.00  0.00    -0.347 N 
ATOM      6  N   UNL     1       4.278   1.057  22.953  0.00  0.00    -0.239 NA
ATOM     13  C   UNL     1       3.372   0.106  23.002  0.00  0.00    +0.121 A 
ATOM     20  C   UNL     1       5.188  -0.821  23.837  0.00  0.00    +0.104 A 
ATOM     21  C   UNL     1       5.413   0.486  23.472  0.00  0.00    +0.130 A 
ATOM     24  H   UNL     1       3.374  -1.916  23.668  0.00  0.00    +0.167 HD
ENDBRANCH  12  13
ENDBRANCH   2  12
TORSDOF 4
ENDMDL
MODEL 5
REMARK VINA RESULT:      -2.4     15.239     16.956
REMARK  Name = 45784307
REMARK  5 active torsions:
REMARK  status: ('A' for Active; 'I' for Inactive)
REMARK    1  A    between atoms: O_1  and  C_18
REMARK    2  A    between atoms: O_1  and  C_22
REMARK    3  A    between atoms: N_2  and  C_12
REMARK    4  A    between atoms: C_7  and  C_11
REMARK    5  A    between atoms: C_12  and  C_13
REMARK                            x       y       z     vdW  Elec       q    Type
REMARK                         _______ _______ _______ _____ _____    ______ ____
ROOT
ATOM      2  N   UNL     1       1.641  -0.380  22.898  0.00  0.00    -0.295 NA
ATOM      7  C   UNL     1      -0.242  -0.017  24.248  0.00  0.00    +0.070 C 
ATOM      8  C   UNL     1      -0.652  -0.816  23.000  0.00  0.00    +0.028 C 
ATOM      9  C   UNL     1       1.140   0.556  23.907  0.00  0.00    +0.096 C 
ATOM     10  C   UNL     1       0.499  -0.630  22.018  0.00  0.00    +0.085 C 
ENDROOT
BRANCH   7  11
ATOM      3  N   UNL     1      -2.576   0.873  24.503  0.00  0.00    -0.341 N 
ATOM      4  N   UNL     1      -0.949   2.202  25.231  0.00  0.00    -0.232 NA
ATOM     11  C   UNL     1      -1.230   1.045  24.675  0.00  0.00    +0.113 A 
ATOM     14  C   UNL     1      -3.204   1.994  24.982  0.00  0.00    +0.070 A 
ATOM     15  C   UNL     1      -2.168   2.809  25.429  0.00  0.00    +0.089 A 
ATOM     16  C   UNL     1      -4.550   2.355  25.058  0.00  0.00    +0.073 A 
ATOM     17  C   UNL     1      -2.474   4.060  25.990  0.00  0.00    +0.033 A 
ATOM     18  C   UNL     1      -4.836   3.605  25.618  0.00  0.00    +0.122 A 
ATOM     19  C   UNL     1      -3.818   4.444  26.076  0.00  0.00    +0.048 A 
ATOM     23  H   UNL     1      -3.030   0.066  24.098  0.00  0.00    +0.167 HD
BRANCH  18   1
ATOM      1  O   UNL     1      -6.134   4.010  25.718  0.00  0.00    -0.495 OA
ATOM     22  C   UNL     1      -6.415   5.368  25.388  0.00  0.00    +0.277 C 
ENDBRANCH  18   1
ENDBRANCH   7  11
BRANCH   2  12
ATOM     12  C   UNL     1       2.791   0.143  22.177  0.00  0.00    +0.158 C 
BRANCH  12  13
ATOM      5  N   UNL     1       4.340  -1.081  23.720  0.00  0.00    -0.347 N 
ATOM      6  N   UNL     1       5.001   0.946  23.096  0.00  0.00    -0.239 NA
ATOM     13  C   UNL     1       4.056   0.037  22.987  0.00  0.00    +0.121 A 
ATOM     20  C   UNL     1       5.542  -0.873  24.335  0.00  0.00    +0.104 A 
ATOM     21  C   UNL     1       5.930   0.384  23.936  0.00  0.00    +0.130 A 
ATOM     24  H   UNL     1       3.769  -1.912  23.794  0.00  0.00    +0.167 HD
ENDBRANCH  12  13
ENDBRANCH   2  12
TORSDOF 4
ENDMDL
MODEL 6
REMARK VINA RESULT:      -2.2     14.154     16.858
REMARK  Name = 45784307
REMARK  5 active torsions:
REMARK  status: ('A' for Active; 'I' for Inactive)
REMARK    1  A    between atoms: O_1  and  C_18
REMARK    2  A    between atoms: O_1  and  C_22
REMARK    3  A    between atoms: N_2  and  C_12
REMARK    4  A    between atoms: C_7  and  C_11
REMARK    5  A    between atoms: C_12  and  C_13
REMARK                            x       y       z     vdW  Elec       q    Type
REMARK                         _______ _______ _______ _____ _____    ______ ____
ROOT
ATOM      2  N   UNL     1      -3.797   1.546  25.168  0.00  0.00    -0.295 NA
ATOM      7  C   UNL     1      -1.557   2.047  24.686  0.00  0.00    +0.070 C 
ATOM      8  C   UNL     1      -2.476   2.886  23.784  0.00  0.00    +0.028 C 
ATOM      9  C   UNL     1      -2.464   0.944  25.248  0.00  0.00    +0.096 C 
ATOM     10  C   UNL     1      -3.835   2.202  23.860  0.00  0.00    +0.085 C 
ENDROOT
BRANCH   7  11
ATOM      3  N   UNL     1       0.932   1.877  24.403  0.00  0.00    -0.341 N 
ATOM      4  N   UNL     1      -0.287   0.653  23.004  0.00  0.00    -0.232 NA
ATOM     11  C   UNL     1      -0.322   1.503  24.005  0.00  0.00    +0.113 A 
ATOM     14  C   UNL     1       1.836   1.225  23.605  0.00  0.00    +0.070 A 
ATOM     15  C   UNL     1       1.051   0.468  22.739  0.00  0.00    +0.089 A 
ATOM     16  C   UNL     1       3.231   1.232  23.566  0.00  0.00    +0.073 A 
ATOM     17  C   UNL     1       1.678  -0.335  21.771  0.00  0.00    +0.033 A 
ATOM     18  C   UNL     1       3.838   0.427  22.596  0.00  0.00    +0.122 A 
ATOM     19  C   UNL     1       3.077  -0.343  21.714  0.00  0.00    +0.048 A 
ATOM     23  H   UNL     1       1.156   2.519  25.152  0.00  0.00    +0.167 HD
BRANCH  18   1
ATOM      1  O   UNL     1       5.198   0.395  22.512  0.00  0.00    -0.495 OA
ATOM     22  C   UNL     1       5.906  -0.059  23.663  0.00  0.00    +0.277 C 
ENDBRANCH  18   1
ENDBRANCH   7  11
BRANCH   2  12
ATOM     12  C   UNL     1      -4.860   0.566  25.327  0.00  0.00    +0.158 C 
BRANCH  12  13
ATOM      5  N   UNL     1      -3.721  -1.604  25.847  0.00  0.00    -0.347 N 
ATOM      6  N   UNL     1      -4.586  -1.431  23.809  0.00  0.00    -0.239 NA
ATOM     13  C   UNL     1      -4.404  -0.821  24.959  0.00  0.00    +0.121 A 
ATOM     20  C   UNL     1      -3.450  -2.789  25.223  0.00  0.00    +0.104 A 
ATOM     21  C   UNL     1      -3.993  -2.659  23.966  0.00  0.00    +0.130 A 
ATOM     24  H   UNL     1      -3.463  -1.356  26.792  0.00  0.00    +0.167 HD
ENDBRANCH  12  13
ENDBRANCH   2  12
TORSDOF 4
ENDMDL
MODEL 7
REMARK VINA RESULT:      -1.9      2.578      3.603
REMARK  Name = 45784307
REMARK  5 active torsions:
REMARK  status: ('A' for Active; 'I' for Inactive)
REMARK    1  A    between atoms: O_1  and  C_18
REMARK    2  A    between atoms: O_1  and  C_22
REMARK    3  A    between atoms: N_2  and  C_12
REMARK    4  A    between atoms: C_7  and  C_11
REMARK    5  A    between atoms: C_12  and  C_13
REMARK                            x       y       z     vdW  Elec       q    Type
REMARK                         _______ _______ _______ _____ _____    ______ ____
ROOT
ATOM      2  N   UNL     1      -2.642 -10.211  10.951  0.00  0.00    -0.295 NA
ATOM      7  C   UNL     1      -4.923 -10.184  10.408  0.00  0.00    +0.070 C 
ATOM      8  C   UNL     1      -4.261  -8.888   9.911  0.00  0.00    +0.028 C 
ATOM      9  C   UNL     1      -3.914 -10.780  11.399  0.00  0.00    +0.096 C 
ATOM     10  C   UNL     1      -2.938  -8.808  10.663  0.00  0.00    +0.085 C 
ENDROOT
BRANCH   7  11
ATOM      3  N   UNL     1      -6.480  -9.893  12.355  0.00  0.00    -0.341 N 
ATOM      4  N   UNL     1      -7.437  -9.939  10.350  0.00  0.00    -0.232 NA
ATOM     11  C   UNL     1      -6.300 -10.005  11.004  0.00  0.00    +0.113 A 
ATOM     14  C   UNL     1      -7.823  -9.744  12.588  0.00  0.00    +0.070 A 
ATOM     15  C   UNL     1      -8.399  -9.778  11.321  0.00  0.00    +0.089 A 
ATOM     16  C   UNL     1      -8.561  -9.590  13.762  0.00  0.00    +0.073 A 
ATOM     17  C   UNL     1      -9.793  -9.649  11.199  0.00  0.00    +0.033 A 
ATOM     18  C   UNL     1      -9.948  -9.464  13.621  0.00  0.00    +0.122 A 
ATOM     19  C   UNL     1     -10.554  -9.493  12.364  0.00  0.00    +0.048 A 
ATOM     23  H   UNL     1      -5.754  -9.915  13.060  0.00  0.00    +0.167 HD
BRANCH  18   1
ATOM      1  O   UNL     1     -10.719  -9.310  14.735  0.00  0.00    -0.495 OA
ATOM     22  C   UNL     1     -10.617  -8.066  15.425  0.00  0.00    +0.277 C 
ENDBRANCH  18   1
ENDBRANCH   7  11
BRANCH   2  12
ATOM     12  C   UNL     1      -1.587 -10.362  11.942  0.00  0.00    +0.158 C 
BRANCH  12  13
ATOM      5  N   UNL     1      -0.346  -8.363  12.805  0.00  0.00    -0.347 N 
ATOM      6  N   UNL     1       0.278  -9.098  10.803  0.00  0.00    -0.239 NA
ATOM     13  C   UNL     1      -0.540  -9.287  11.815  0.00  0.00    +0.121 A 
ATOM     20  C   UNL     1       0.660  -7.533  12.397  0.00  0.00    +0.104 A 
ATOM     21  C   UNL     1       1.028  -8.006  11.160  0.00  0.00    +0.130 A 
ATOM     24  H   UNL     1      -0.851  -8.304  13.678  0.00  0.00    +0.167 HD
ENDBRANCH  12  13
ENDBRANCH   2  12
TORSDOF 4
ENDMDL
MODEL 8
REMARK VINA RESULT:      -1.6     14.926     17.163
REMARK  Name = 45784307
REMARK  5 active torsions:
REMARK  status: ('A' for Active; 'I' for Inactive)
REMARK    1  A    between atoms: O_1  and  C_18
REMARK    2  A    between atoms: O_1  and  C_22
REMARK    3  A    between atoms: N_2  and  C_12
REMARK    4  A    between atoms: C_7  and  C_11
REMARK    5  A    between atoms: C_12  and  C_13
REMARK                            x       y       z     vdW  Elec       q    Type
REMARK                         _______ _______ _______ _____ _____    ______ ____
ROOT
ATOM      2  N   UNL     1      -4.704  -0.212  24.777  0.00  0.00    -0.295 NA
ATOM      7  C   UNL     1      -2.523  -0.842  24.188  0.00  0.00    +0.070 C 
ATOM      8  C   UNL     1      -2.779  -1.195  25.662  0.00  0.00    +0.028 C 
ATOM      9  C   UNL     1      -3.650   0.132  23.820  0.00  0.00    +0.096 C 
ATOM     10  C   UNL     1      -4.010  -0.386  26.053  0.00  0.00    +0.085 C 
ENDROOT
BRANCH   7  11
ATOM      3  N   UNL     1      -0.139  -1.092  23.443  0.00  0.00    -0.341 N 
ATOM      4  N   UNL     1      -0.758   0.959  24.032  0.00  0.00    -0.232 NA
ATOM     11  C   UNL     1      -1.148  -0.288  23.897  0.00  0.00    +0.113 A 
ATOM     14  C   UNL     1       0.975  -0.311  23.274  0.00  0.00    +0.070 A 
ATOM     15  C   UNL     1       0.564   0.965  23.649  0.00  0.00    +0.089 A 
ATOM     16  C   UNL     1       2.269  -0.602  22.839  0.00  0.00    +0.073 A 
ATOM     17  C   UNL     1       1.484   2.025  23.593  0.00  0.00    +0.033 A 
ATOM     18  C   UNL     1       3.171   0.466  22.790  0.00  0.00    +0.122 A 
ATOM     19  C   UNL     1       2.788   1.757  23.159  0.00  0.00    +0.048 A 
ATOM     23  H   UNL     1      -0.200  -2.086  23.262  0.00  0.00    +0.167 HD
BRANCH  18   1
ATOM      1  O   UNL     1       4.449   0.240  22.372  0.00  0.00    -0.495 OA
ATOM     22  C   UNL     1       5.441   0.077  23.384  0.00  0.00    +0.277 C 
ENDBRANCH  18   1
ENDBRANCH   7  11
BRANCH   2  12
ATOM     12  C   UNL     1      -5.744   0.803  24.847  0.00  0.00    +0.158 C 
BRANCH  12  13
ATOM      5  N   UNL     1      -4.325   2.733  24.112  0.00  0.00    -0.347 N 
ATOM      6  N   UNL     1      -5.386   2.995  26.046  0.00  0.00    -0.239 NA
ATOM     13  C   UNL     1      -5.170   2.183  25.035  0.00  0.00    +0.121 A 
ATOM     20  C   UNL     1      -3.980   3.976  24.564  0.00  0.00    +0.104 A 
ATOM     21  C   UNL     1      -4.647   4.115  25.759  0.00  0.00    +0.130 A 
ATOM     24  H   UNL     1      -4.012   2.303  23.253  0.00  0.00    +0.167 HD
ENDBRANCH  12  13
ENDBRANCH   2  12
TORSDOF 4
ENDMDL
MODEL 9
REMARK VINA RESULT:      -1.6     15.502     18.208
REMARK  Name = 45784307
REMARK  5 active torsions:
REMARK  status: ('A' for Active; 'I' for Inactive)
REMARK    1  A    between atoms: O_1  and  C_18
REMARK    2  A    between atoms: O_1  and  C_22
REMARK    3  A    between atoms: N_2  and  C_12
REMARK    4  A    between atoms: C_7  and  C_11
REMARK    5  A    between atoms: C_12  and  C_13
REMARK                            x       y       z     vdW  Elec       q    Type
REMARK                         _______ _______ _______ _____ _____    ______ ____
ROOT
ATOM      2  N   UNL     1      -3.407   4.328  25.789  0.00  0.00    -0.295 NA
ATOM      7  C   UNL     1      -1.308   3.288  25.682  0.00  0.00    +0.070 C 
ATOM      8  C   UNL     1      -1.158   4.782  25.350  0.00  0.00    +0.028 C 
ATOM      9  C   UNL     1      -2.812   3.010  25.557  0.00  0.00    +0.096 C 
ATOM     10  C   UNL     1      -2.570   5.257  25.030  0.00  0.00    +0.085 C 
ENDROOT
BRANCH   7  11
ATOM      3  N   UNL     1       0.889   2.524  24.737  0.00  0.00    -0.341 N 
ATOM      4  N   UNL     1      -0.891   1.343  24.123  0.00  0.00    -0.232 NA
ATOM     11  C   UNL     1      -0.465   2.362  24.835  0.00  0.00    +0.113 A 
ATOM     14  C   UNL     1       1.369   1.543  23.907  0.00  0.00    +0.070 A 
ATOM     15  C   UNL     1       0.239   0.820  23.536  0.00  0.00    +0.089 A 
ATOM     16  C   UNL     1       2.655   1.237  23.462  0.00  0.00    +0.073 A 
ATOM     17  C   UNL     1       0.382  -0.277  22.671  0.00  0.00    +0.033 A 
ATOM     18  C   UNL     1       2.778   0.142  22.600  0.00  0.00    +0.122 A 
ATOM     19  C   UNL     1       1.664  -0.603  22.211  0.00  0.00    +0.048 A 
ATOM     23  H   UNL     1       1.442   3.237  25.194  0.00  0.00    +0.167 HD
BRANCH  18   1
ATOM      1  O   UNL     1       4.012  -0.204  22.134  0.00  0.00    -0.495 OA
ATOM     22  C   UNL     1       5.127   0.091  22.973  0.00  0.00    +0.277 C 
ENDBRANCH  18   1
ENDBRANCH   7  11
BRANCH   2  12
ATOM     12  C   UNL     1      -4.804   4.385  25.386  0.00  0.00    +0.158 C 
BRANCH  12  13
ATOM      5  N   UNL     1      -6.110   2.652  26.639  0.00  0.00    -0.347 N 
ATOM      6  N   UNL     1      -5.536   2.114  24.562  0.00  0.00    -0.239 NA
ATOM     13  C   UNL     1      -5.474   3.040  25.493  0.00  0.00    +0.121 A 
ATOM     20  C   UNL     1      -6.609   1.398  26.425  0.00  0.00    +0.104 A 
ATOM     21  C   UNL     1      -6.242   1.088  25.136  0.00  0.00    +0.130 A 
ATOM     24  H   UNL     1      -6.198   3.191  27.490  0.00  0.00    +0.167 HD
ENDBRANCH  12  13
ENDBRANCH   2  12
TORSDOF 4
ENDMDL
