MODEL 1
REMARK VINA RESULT:      -3.0      0.000      0.000
REMARK  Name = 7049279
REMARK  8 active torsions:
REMARK  status: ('A' for Active; 'I' for Inactive)
REMARK    1  A    between atoms: O_1  and  C_17
REMARK    2  A    between atoms: O_2  and  C_18
REMARK    3  A    between atoms: N_6  and  C_10
REMARK    4  A    between atoms: N_7  and  C_16
REMARK    5  A    between atoms: N_8  and  C_24
REMARK    6  A    between atoms: C_21  and  C_23
REMARK    7  A    between atoms: C_24  and  C_25
REMARK    8  A    between atoms: C_24  and  C_26
REMARK                            x       y       z     vdW  Elec       q    Type
REMARK                         _______ _______ _______ _____ _____    ______ ____
ROOT
ATOM     16  C   UNL     1      -0.631   2.704  25.649  0.00  0.00    +0.129 C 
ATOM     17  C   UNL     1      -1.112   3.991  24.951  0.00  0.00    +0.167 C 
ATOM     18  C   UNL     1      -2.607   4.237  25.190  0.00  0.00    +0.149 C 
ATOM     19  C   UNL     1      -3.467   3.039  24.752  0.00  0.00    +0.074 C 
ATOM     20  C   UNL     1      -1.575   1.547  25.475  0.00  0.00    +0.006 C 
ATOM     21  C   UNL     1      -2.842   1.710  25.064  0.00  0.00    +0.015 C 
ENDROOT
BRANCH  16   7
ATOM      3  O   UNL     1       0.006   1.188  23.277  0.00  0.00    -0.253 OA
ATOM      6  N   UNL     1       2.255   1.333  23.832  0.00  0.00    -0.297 N 
ATOM      7  N   UNL     1       0.680   2.311  25.195  0.00  0.00    -0.291 N 
ATOM     22  C   UNL     1       0.897   1.575  24.032  0.00  0.00    +0.300 C 
ATOM     27  H   UNL     1       2.916   1.760  24.473  0.00  0.00    +0.151 HD
ATOM     28  H   UNL     1       1.483   2.533  25.776  0.00  0.00    +0.151 HD
BRANCH   6  10
ATOM     10  C   UNL     1       2.759   0.590  22.698  0.00  0.00    +0.074 C 
ATOM     11  C   UNL     1       4.176   1.043  22.329  0.00  0.00    +0.022 C 
ATOM     12  C   UNL     1       2.711  -0.919  22.962  0.00  0.00    +0.022 C 
ATOM     13  C   UNL     1       5.220   0.591  23.350  0.00  0.00    +0.002 C 
ATOM     14  C   UNL     1       3.756  -1.368  23.982  0.00  0.00    +0.002 C 
ATOM     15  C   UNL     1       5.159  -0.915  23.588  0.00  0.00    +0.000 C 
ENDBRANCH   6  10
ENDBRANCH  16   7
BRANCH  21  23
ATOM      4  O   UNL     1      -4.792   0.565  24.426  0.00  0.00    -0.271 OA
ATOM      8  N   UNL     1      -3.060  -0.628  25.431  0.00  0.00    -0.301 N 
ATOM     23  C   UNL     1      -3.672   0.508  24.933  0.00  0.00    +0.240 C 
ATOM     31  H   UNL     1      -2.128  -0.557  25.833  0.00  0.00    +0.150 HD
BRANCH   8  24
ATOM     24  C   UNL     1      -3.682  -1.932  25.415  0.00  0.00    +0.156 C 
ATOM     25  C   UNL     1      -3.107  -2.826  26.501  0.00  0.00    +0.038 C 
BRANCH  24  26
ATOM      5  O   UNL     1      -4.361  -2.645  23.195  0.00  0.00    -0.274 OA
ATOM      9  N   UNL     1      -2.168  -2.928  23.816  0.00  0.00    -0.328 N 
ATOM     26  C   UNL     1      -3.473  -2.542  24.038  0.00  0.00    +0.231 C 
ATOM     32  H   UNL     1      -1.889  -3.340  22.932  0.00  0.00    +0.145 HD
ATOM     33  H   UNL     1      -1.440  -2.818  24.515  0.00  0.00    +0.145 HD
ENDBRANCH  24  26
ENDBRANCH   8  24
ENDBRANCH  21  23
BRANCH  17   1
ATOM      1  O   UNL     1      -0.883   3.887  23.544  0.00  0.00    -0.387 OA
ATOM     29  H   UNL     1      -1.677   4.222  23.093  0.00  0.00    +0.210 HD
ENDBRANCH  17   1
BRANCH  18   2
ATOM      2  O   UNL     1      -2.842   4.531  26.566  0.00  0.00    -0.389 OA
ATOM     30  H   UNL     1      -3.722   4.936  26.634  0.00  0.00    +0.210 HD
ENDBRANCH  18   2
TORSDOF 7
ENDMDL
MODEL 2
REMARK VINA RESULT:      -2.5      2.143      4.524
REMARK  Name = 7049279
REMARK  8 active torsions:
REMARK  status: ('A' for Active; 'I' for Inactive)
REMARK    1  A    between atoms: O_1  and  C_17
REMARK    2  A    between atoms: O_2  and  C_18
REMARK    3  A    between atoms: N_6  and  C_10
REMARK    4  A    between atoms: N_7  and  C_16
REMARK    5  A    between atoms: N_8  and  C_24
REMARK    6  A    between atoms: C_21  and  C_23
REMARK    7  A    between atoms: C_24  and  C_25
REMARK    8  A    between atoms: C_24  and  C_26
REMARK                            x       y       z     vdW  Elec       q    Type
REMARK                         _______ _______ _______ _____ _____    ______ ____
ROOT
ATOM     16  C   UNL     1      -1.121  -0.663  23.971  0.00  0.00    +0.129 C 
ATOM     17  C   UNL     1      -1.252  -1.777  25.028  0.00  0.00    +0.167 C 
ATOM     18  C   UNL     1      -2.708  -2.233  25.189  0.00  0.00    +0.149 C 
ATOM     19  C   UNL     1      -3.646  -1.062  25.530  0.00  0.00    +0.074 C 
ATOM     20  C   UNL     1      -2.184   0.394  24.089  0.00  0.00    +0.006 C 
ATOM     21  C   UNL     1      -3.307   0.205  24.798  0.00  0.00    +0.015 C 
ENDROOT
BRANCH  16   7
ATOM      3  O   UNL     1       1.023  -0.934  22.058  0.00  0.00    -0.253 OA
ATOM      6  N   UNL     1       2.307   0.508  23.346  0.00  0.00    -0.297 N 
ATOM      7  N   UNL     1       0.174  -0.031  24.022  0.00  0.00    -0.291 N 
ATOM     22  C   UNL     1       1.155  -0.219  23.051  0.00  0.00    +0.300 C 
ATOM     27  H   UNL     1       2.287   1.127  24.150  0.00  0.00    +0.151 HD
ATOM     28  H   UNL     1       0.407   0.538  24.831  0.00  0.00    +0.151 HD
BRANCH   6  10
ATOM     10  C   UNL     1       3.480   0.493  22.502  0.00  0.00    +0.074 C 
ATOM     11  C   UNL     1       4.561   1.434  23.044  0.00  0.00    +0.022 C 
ATOM     12  C   UNL     1       4.019  -0.932  22.333  0.00  0.00    +0.022 C 
ATOM     13  C   UNL     1       5.218   0.899  24.317  0.00  0.00    +0.002 C 
ATOM     14  C   UNL     1       4.677  -1.464  23.607  0.00  0.00    +0.002 C 
ATOM     15  C   UNL     1       5.755  -0.516  24.121  0.00  0.00    +0.000 C 
ENDBRANCH   6  10
ENDBRANCH  16   7
BRANCH  21  23
ATOM      4  O   UNL     1      -5.411   1.134  25.282  0.00  0.00    -0.271 OA
ATOM      8  N   UNL     1      -3.767   2.492  24.339  0.00  0.00    -0.301 N 
ATOM     23  C   UNL     1      -4.275   1.306  24.840  0.00  0.00    +0.240 C 
ATOM     31  H   UNL     1      -2.810   2.518  23.995  0.00  0.00    +0.150 HD
BRANCH   8  24
ATOM     24  C   UNL     1      -4.533   3.715  24.275  0.00  0.00    +0.156 C 
ATOM     25  C   UNL     1      -3.750   4.816  23.579  0.00  0.00    +0.038 C 
BRANCH  24  26
ATOM      5  O   UNL     1      -4.076   4.347  26.575  0.00  0.00    -0.274 OA
ATOM      9  N   UNL     1      -6.262   4.254  25.876  0.00  0.00    -0.328 N 
ATOM     26  C   UNL     1      -4.902   4.121  25.694  0.00  0.00    +0.231 C 
ATOM     32  H   UNL     1      -6.642   4.532  26.775  0.00  0.00    +0.145 HD
ATOM     33  H   UNL     1      -6.931   4.084  25.133  0.00  0.00    +0.145 HD
ENDBRANCH  24  26
ENDBRANCH   8  24
ENDBRANCH  21  23
BRANCH  17   1
ATOM      1  O   UNL     1      -0.778  -1.300  26.288  0.00  0.00    -0.387 OA
ATOM     29  H   UNL     1       0.177  -1.479  26.329  0.00  0.00    +0.210 HD
ENDBRANCH  17   1
BRANCH  18   2
ATOM      2  O   UNL     1      -3.152  -2.886  24.001  0.00  0.00    -0.389 OA
ATOM     30  H   UNL     1      -2.390  -3.352  23.619  0.00  0.00    +0.210 HD
ENDBRANCH  18   2
TORSDOF 7
ENDMDL
MODEL 3
REMARK VINA RESULT:      -0.1      2.263      6.723
REMARK  Name = 7049279
REMARK  8 active torsions:
REMARK  status: ('A' for Active; 'I' for Inactive)
REMARK    1  A    between atoms: O_1  and  C_17
REMARK    2  A    between atoms: O_2  and  C_18
REMARK    3  A    between atoms: N_6  and  C_10
REMARK    4  A    between atoms: N_7  and  C_16
REMARK    5  A    between atoms: N_8  and  C_24
REMARK    6  A    between atoms: C_21  and  C_23
REMARK    7  A    between atoms: C_24  and  C_25
REMARK    8  A    between atoms: C_24  and  C_26
REMARK                            x       y       z     vdW  Elec       q    Type
REMARK                         _______ _______ _______ _____ _____    ______ ____
ROOT
ATOM     16  C   UNL     1      -3.795  -1.149  25.585  0.00  0.00    +0.129 C 
ATOM     17  C   UNL     1      -4.353  -2.019  24.443  0.00  0.00    +0.167 C 
ATOM     18  C   UNL     1      -3.424  -3.197  24.126  0.00  0.00    +0.149 C 
ATOM     19  C   UNL     1      -1.995  -2.734  23.795  0.00  0.00    +0.074 C 
ATOM     20  C   UNL     1      -2.322  -0.874  25.457  0.00  0.00    +0.006 C 
ATOM     21  C   UNL     1      -1.528  -1.587  24.644  0.00  0.00    +0.015 C 
ENDROOT
BRANCH  16   7
ATOM      3  O   UNL     1      -3.156   1.321  24.236  0.00  0.00    -0.253 OA
ATOM      6  N   UNL     1      -4.967   2.322  25.286  0.00  0.00    -0.297 N 
ATOM      7  N   UNL     1      -4.497   0.106  25.691  0.00  0.00    -0.291 N 
ATOM     22  C   UNL     1      -4.117   1.255  25.001  0.00  0.00    +0.300 C 
ATOM     27  H   UNL     1      -5.777   2.144  25.871  0.00  0.00    +0.151 HD
ATOM     28  H   UNL     1      -5.276   0.175  26.340  0.00  0.00    +0.151 HD
BRANCH   6  10
ATOM     10  C   UNL     1      -4.800   3.634  24.702  0.00  0.00    +0.074 C 
ATOM     11  C   UNL     1      -4.555   4.691  25.784  0.00  0.00    +0.022 C 
ATOM     12  C   UNL     1      -3.674   3.635  23.661  0.00  0.00    +0.022 C 
ATOM     13  C   UNL     1      -3.168   4.570  26.417  0.00  0.00    +0.002 C 
ATOM     14  C   UNL     1      -2.290   3.516  24.297  0.00  0.00    +0.002 C 
ATOM     15  C   UNL     1      -2.066   4.584  25.362  0.00  0.00    +0.000 C 
ENDBRANCH   6  10
ENDBRANCH  16   7
BRANCH  21  23
ATOM      4  O   UNL     1       0.740  -1.935  25.153  0.00  0.00    -0.271 OA
ATOM      8  N   UNL     1       0.137  -0.062  23.902  0.00  0.00    -0.301 N 
ATOM     23  C   UNL     1      -0.106  -1.231  24.602  0.00  0.00    +0.240 C 
ATOM     31  H   UNL     1      -0.643   0.443  23.488  0.00  0.00    +0.150 HD
BRANCH   8  24
ATOM     24  C   UNL     1       1.460   0.492  23.727  0.00  0.00    +0.156 C 
ATOM     25  C   UNL     1       1.438   2.008  23.841  0.00  0.00    +0.038 C 
BRANCH  24  26
ATOM      5  O   UNL     1       1.310  -0.562  21.544  0.00  0.00    -0.274 OA
ATOM      9  N   UNL     1       3.278   0.465  22.134  0.00  0.00    -0.328 N 
ATOM     26  C   UNL     1       1.982   0.055  22.367  0.00  0.00    +0.231 C 
ATOM     32  H   UNL     1       3.743   0.249  21.259  0.00  0.00    +0.145 HD
ATOM     33  H   UNL     1       3.814   0.992  22.816  0.00  0.00    +0.145 HD
ENDBRANCH  24  26
ENDBRANCH   8  24
ENDBRANCH  21  23
BRANCH  17   1
ATOM      1  O   UNL     1      -4.503  -1.223  23.265  0.00  0.00    -0.387 OA
ATOM     29  H   UNL     1      -4.876  -0.367  23.536  0.00  0.00    +0.210 HD
ENDBRANCH  17   1
BRANCH  18   2
ATOM      2  O   UNL     1      -3.401  -4.112  25.221  0.00  0.00    -0.389 OA
ATOM     30  H   UNL     1      -3.245  -5.000  24.859  0.00  0.00    +0.210 HD
ENDBRANCH  18   2
TORSDOF 7
ENDMDL
MODEL 4
REMARK VINA RESULT:       0.5      2.234      7.252
REMARK  Name = 7049279
REMARK  8 active torsions:
REMARK  status: ('A' for Active; 'I' for Inactive)
REMARK    1  A    between atoms: O_1  and  C_17
REMARK    2  A    between atoms: O_2  and  C_18
REMARK    3  A    between atoms: N_6  and  C_10
REMARK    4  A    between atoms: N_7  and  C_16
REMARK    5  A    between atoms: N_8  and  C_24
REMARK    6  A    between atoms: C_21  and  C_23
REMARK    7  A    between atoms: C_24  and  C_25
REMARK    8  A    between atoms: C_24  and  C_26
REMARK                            x       y       z     vdW  Elec       q    Type
REMARK                         _______ _______ _______ _____ _____    ______ ____
ROOT
ATOM     16  C   UNL     1      -2.238  -0.989  25.646  0.00  0.00    +0.129 C 
ATOM     17  C   UNL     1      -2.530  -2.184  24.718  0.00  0.00    +0.167 C 
ATOM     18  C   UNL     1      -1.236  -2.863  24.251  0.00  0.00    +0.149 C 
ATOM     19  C   UNL     1      -0.279  -1.874  23.563  0.00  0.00    +0.074 C 
ATOM     20  C   UNL     1      -1.118  -0.115  25.154  0.00  0.00    +0.006 C 
ATOM     21  C   UNL     1      -0.251  -0.521  24.214  0.00  0.00    +0.015 C 
ENDROOT
BRANCH  16   7
ATOM      3  O   UNL     1      -3.055   1.305  24.095  0.00  0.00    -0.253 OA
ATOM      6  N   UNL     1      -4.913   1.526  25.467  0.00  0.00    -0.297 N 
ATOM      7  N   UNL     1      -3.411  -0.175  25.849  0.00  0.00    -0.291 N 
ATOM     22  C   UNL     1      -3.730   0.920  25.049  0.00  0.00    +0.300 C 
ATOM     27  H   UNL     1      -5.435   1.086  26.218  0.00  0.00    +0.151 HD
ATOM     28  H   UNL     1      -4.009  -0.374  26.646  0.00  0.00    +0.151 HD
BRANCH   6  10
ATOM     10  C   UNL     1      -5.474   2.686  24.810  0.00  0.00    +0.074 C 
ATOM     11  C   UNL     1      -5.572   3.872  25.776  0.00  0.00    +0.022 C 
ATOM     12  C   UNL     1      -4.668   3.054  23.560  0.00  0.00    +0.022 C 
ATOM     13  C   UNL     1      -4.205   4.467  26.111  0.00  0.00    +0.002 C 
ATOM     14  C   UNL     1      -3.302   3.651  23.898  0.00  0.00    +0.002 C 
ATOM     15  C   UNL     1      -3.427   4.835  24.851  0.00  0.00    +0.000 C 
ENDBRANCH   6  10
ENDBRANCH  16   7
BRANCH  21  23
ATOM      4  O   UNL     1       0.663   1.629  23.965  0.00  0.00    -0.271 OA
ATOM      8  N   UNL     1       1.909  -0.215  23.272  0.00  0.00    -0.301 N 
ATOM     23  C   UNL     1       0.803   0.416  23.814  0.00  0.00    +0.240 C 
ATOM     31  H   UNL     1       1.915  -1.229  23.191  0.00  0.00    +0.150 HD
BRANCH   8  24
ATOM     24  C   UNL     1       3.074   0.499  22.803  0.00  0.00    +0.156 C 
ATOM     25  C   UNL     1       3.261   0.318  21.305  0.00  0.00    +0.038 C 
BRANCH  24  26
ATOM      5  O   UNL     1       5.212   0.708  23.937  0.00  0.00    -0.274 OA
ATOM      9  N   UNL     1       4.213  -1.359  23.850  0.00  0.00    -0.328 N 
ATOM     26  C   UNL     1       4.285  -0.011  23.569  0.00  0.00    +0.231 C 
ATOM     32  H   UNL     1       4.951  -1.823  24.367  0.00  0.00    +0.145 HD
ATOM     33  H   UNL     1       3.430  -1.935  23.558  0.00  0.00    +0.145 HD
ENDBRANCH  24  26
ENDBRANCH   8  24
ENDBRANCH  21  23
BRANCH  17   1
ATOM      1  O   UNL     1      -3.251  -1.734  23.569  0.00  0.00    -0.387 OA
ATOM     29  H   UNL     1      -3.470  -0.797  23.710  0.00  0.00    +0.210 HD
ENDBRANCH  17   1
BRANCH  18   2
ATOM      2  O   UNL     1      -0.584  -3.488  25.356  0.00  0.00    -0.389 OA
ATOM     30  H   UNL     1      -0.195  -4.319  25.036  0.00  0.00    +0.210 HD
ENDBRANCH  18   2
TORSDOF 7
ENDMDL
