MODEL 1
REMARK VINA RESULT:      -4.7      0.000      0.000
REMARK  Name = 75536106
REMARK  9 active torsions:
REMARK  status: ('A' for Active; 'I' for Inactive)
REMARK    1  A    between atoms: O_1  and  C_8
REMARK    2  A    between atoms: O_2  and  C_10
REMARK    3  A    between atoms: O_3  and  C_21
REMARK    4  A    between atoms: O_3  and  C_27
REMARK    5  A    between atoms: N_4  and  C_6
REMARK    6  A    between atoms: N_4  and  C_12
REMARK    7  A    between atoms: N_5  and  C_24
REMARK    8  A    between atoms: C_7  and  C_11
REMARK    9  A    between atoms: C_12  and  C_15
REMARK                            x       y       z     vdW  Elec       q    Type
REMARK                         _______ _______ _______ _____ _____    ______ ____
ROOT
ATOM      6  C   UNL     1      -8.496  -9.777  15.064  0.00  0.00    +0.092 C 
ATOM      7  C   UNL     1      -7.937 -10.780  16.121  0.00  0.00    +0.041 C 
ATOM      8  C   UNL     1      -9.497  -8.900  15.834  0.00  0.00    +0.160 C 
ATOM      9  C   UNL     1      -8.654 -10.442  17.442  0.00  0.00    +0.043 C 
ATOM     10  C   UNL     1      -9.951  -9.785  16.990  0.00  0.00    +0.145 C 
ENDROOT
BRANCH   7  11
ATOM     11  C   UNL     1      -6.428 -10.772  16.241  0.00  0.00    -0.042 A 
ATOM     13  C   UNL     1      -5.830 -10.781  17.501  0.00  0.00    +0.007 A 
ATOM     14  C   UNL     1      -5.637 -10.754  15.092  0.00  0.00    +0.007 A 
ATOM     17  C   UNL     1      -4.440 -10.774  17.613  0.00  0.00    +0.046 A 
ATOM     18  C   UNL     1      -4.246 -10.746  15.204  0.00  0.00    +0.046 A 
ATOM     21  C   UNL     1      -3.647 -10.756  16.465  0.00  0.00    +0.120 A 
BRANCH  21   3
ATOM      3  O   UNL     1      -2.291 -10.748  16.574  0.00  0.00    -0.495 OA
ATOM     27  C   UNL     1      -1.548 -10.437  15.396  0.00  0.00    +0.277 C 
ENDBRANCH  21   3
ENDBRANCH   7  11
BRANCH   8   1
ATOM      1  O   UNL     1      -8.804  -7.750  16.319  0.00  0.00    -0.388 OA
ATOM     29  H   UNL     1      -9.444  -7.019  16.360  0.00  0.00    +0.210 HD
ENDBRANCH   8   1
BRANCH  10   2
ATOM      2  O   UNL     1     -10.549  -9.049  18.038  0.00  0.00    -0.389 OA
ATOM     30  H   UNL     1      -9.838  -8.761  18.634  0.00  0.00    +0.210 HD
ENDBRANCH  10   2
BRANCH   6   4
ATOM      4  N   UNL     1      -9.192 -10.515  14.008  0.00  0.00    -0.306 NA
ATOM     28  H   UNL     1      -9.941 -11.070  14.422  0.00  0.00    +0.123 HD
BRANCH   4  12
ATOM     12  C   UNL     1      -9.776  -9.602  13.035  0.00  0.00    +0.118 C 
BRANCH  12  15
ATOM      5  N   UNL     1      -8.821 -10.125   9.521  0.00  0.00    -0.349 N 
ATOM     15  C   UNL     1      -9.126  -9.731  11.684  0.00  0.00    -0.008 A 
ATOM     16  C   UNL     1      -7.767  -9.450  11.367  0.00  0.00    +0.004 A 
ATOM     19  C   UNL     1      -9.748 -10.143  10.528  0.00  0.00    +0.091 A 
ATOM     20  C   UNL     1      -7.602  -9.706  10.004  0.00  0.00    +0.049 A 
ATOM     22  C   UNL     1      -6.658  -9.003  12.112  0.00  0.00    +0.010 A 
ATOM     23  C   UNL     1      -6.379  -9.535   9.347  0.00  0.00    +0.026 A 
ATOM     24  C   UNL     1      -9.099 -10.496   8.150  0.00  0.00    +0.149 C 
ATOM     25  C   UNL     1      -5.428  -8.828  11.467  0.00  0.00    +0.001 A 
ATOM     26  C   UNL     1      -5.293  -9.091  10.105  0.00  0.00    +0.002 A 
ENDBRANCH  12  15
ENDBRANCH   4  12
ENDBRANCH   6   4
TORSDOF 7
ENDMDL
MODEL 2
REMARK VINA RESULT:      -2.5     14.592     16.968
REMARK  Name = 75536106
REMARK  9 active torsions:
REMARK  status: ('A' for Active; 'I' for Inactive)
REMARK    1  A    between atoms: O_1  and  C_8
REMARK    2  A    between atoms: O_2  and  C_10
REMARK    3  A    between atoms: O_3  and  C_21
REMARK    4  A    between atoms: O_3  and  C_27
REMARK    5  A    between atoms: N_4  and  C_6
REMARK    6  A    between atoms: N_4  and  C_12
REMARK    7  A    between atoms: N_5  and  C_24
REMARK    8  A    between atoms: C_7  and  C_11
REMARK    9  A    between atoms: C_12  and  C_15
REMARK                            x       y       z     vdW  Elec       q    Type
REMARK                         _______ _______ _______ _____ _____    ______ ____
ROOT
ATOM      6  C   UNL     1      -2.871   3.326  25.406  0.00  0.00    +0.092 C 
ATOM      7  C   UNL     1      -3.768   2.865  24.216  0.00  0.00    +0.041 C 
ATOM      8  C   UNL     1      -3.756   4.270  26.235  0.00  0.00    +0.160 C 
ATOM      9  C   UNL     1      -5.120   3.579  24.408  0.00  0.00    +0.043 C 
ATOM     10  C   UNL     1      -4.763   4.813  25.225  0.00  0.00    +0.145 C 
ENDROOT
BRANCH   7  11
ATOM     11  C   UNL     1      -3.900   1.363  24.087  0.00  0.00    -0.042 A 
ATOM     13  C   UNL     1      -4.694   0.653  24.989  0.00  0.00    +0.007 A 
ATOM     14  C   UNL     1      -3.226   0.688  23.069  0.00  0.00    +0.007 A 
ATOM     17  C   UNL     1      -4.815  -0.731  24.870  0.00  0.00    +0.046 A 
ATOM     18  C   UNL     1      -3.347  -0.697  22.951  0.00  0.00    +0.046 A 
ATOM     21  C   UNL     1      -4.142  -1.407  23.852  0.00  0.00    +0.120 A 
BRANCH  21   3
ATOM      3  O   UNL     1      -4.260  -2.757  23.737  0.00  0.00    -0.495 OA
ATOM     27  C   UNL     1      -3.410  -3.554  24.561  0.00  0.00    +0.277 C 
ENDBRANCH  21   3
ENDBRANCH   7  11
BRANCH   8   1
ATOM      1  O   UNL     1      -4.414   3.501  27.241  0.00  0.00    -0.388 OA
ATOM     29  H   UNL     1      -5.049   4.086  27.688  0.00  0.00    +0.210 HD
ENDBRANCH   8   1
BRANCH  10   2
ATOM      2  O   UNL     1      -5.905   5.372  25.841  0.00  0.00    -0.389 OA
ATOM     30  H   UNL     1      -6.220   4.736  26.504  0.00  0.00    +0.210 HD
ENDBRANCH  10   2
BRANCH   6   4
ATOM      4  N   UNL     1      -1.710   4.056  24.892  0.00  0.00    -0.306 NA
ATOM     28  H   UNL     1      -1.793   5.041  25.147  0.00  0.00    +0.123 HD
BRANCH   4  12
ATOM     12  C   UNL     1      -0.475   3.533  25.458  0.00  0.00    +0.118 C 
BRANCH  12  15
ATOM      5  N   UNL     1       0.885   0.754  23.466  0.00  0.00    -0.349 N 
ATOM     15  C   UNL     1      -0.073   2.231  24.819  0.00  0.00    -0.008 A 
ATOM     16  C   UNL     1      -0.492   0.928  25.213  0.00  0.00    +0.004 A 
ATOM     19  C   UNL     1       0.773   2.090  23.743  0.00  0.00    +0.091 A 
ATOM     20  C   UNL     1       0.123   0.020  24.348  0.00  0.00    +0.049 A 
ATOM     22  C   UNL     1      -1.338   0.434  26.225  0.00  0.00    +0.010 A 
ATOM     23  C   UNL     1      -0.067  -1.362  24.446  0.00  0.00    +0.026 A 
ATOM     24  C   UNL     1       1.692   0.207  22.397  0.00  0.00    +0.149 C 
ATOM     25  C   UNL     1      -1.537  -0.947  26.334  0.00  0.00    +0.001 A 
ATOM     26  C   UNL     1      -0.910  -1.830  25.457  0.00  0.00    +0.002 A 
ENDBRANCH  12  15
ENDBRANCH   4  12
ENDBRANCH   6   4
TORSDOF 7
ENDMDL
MODEL 3
REMARK VINA RESULT:      -1.8     14.452     16.515
REMARK  Name = 75536106
REMARK  9 active torsions:
REMARK  status: ('A' for Active; 'I' for Inactive)
REMARK    1  A    between atoms: O_1  and  C_8
REMARK    2  A    between atoms: O_2  and  C_10
REMARK    3  A    between atoms: O_3  and  C_21
REMARK    4  A    between atoms: O_3  and  C_27
REMARK    5  A    between atoms: N_4  and  C_6
REMARK    6  A    between atoms: N_4  and  C_12
REMARK    7  A    between atoms: N_5  and  C_24
REMARK    8  A    between atoms: C_7  and  C_11
REMARK    9  A    between atoms: C_12  and  C_15
REMARK                            x       y       z     vdW  Elec       q    Type
REMARK                         _______ _______ _______ _____ _____    ______ ____
ROOT
ATOM      6  C   UNL     1      -4.212   2.341  24.325  0.00  0.00    +0.092 C 
ATOM      7  C   UNL     1      -4.830   0.918  24.493  0.00  0.00    +0.041 C 
ATOM      8  C   UNL     1      -4.896   3.205  25.397  0.00  0.00    +0.160 C 
ATOM      9  C   UNL     1      -5.851   1.036  25.641  0.00  0.00    +0.043 C 
ATOM     10  C   UNL     1      -6.233   2.509  25.633  0.00  0.00    +0.145 C 
ENDROOT
BRANCH   7  11
ATOM     11  C   UNL     1      -3.809  -0.177  24.712  0.00  0.00    -0.042 A 
ATOM     13  C   UNL     1      -3.850  -1.334  23.934  0.00  0.00    +0.007 A 
ATOM     14  C   UNL     1      -2.826  -0.029  25.692  0.00  0.00    +0.007 A 
ATOM     17  C   UNL     1      -2.909  -2.343  24.136  0.00  0.00    +0.046 A 
ATOM     18  C   UNL     1      -1.886  -1.039  25.893  0.00  0.00    +0.046 A 
ATOM     21  C   UNL     1      -1.926  -2.196  25.115  0.00  0.00    +0.120 A 
BRANCH  21   3
ATOM      3  O   UNL     1      -1.009  -3.181  25.312  0.00  0.00    -0.495 OA
ATOM     27  C   UNL     1       0.338  -2.774  25.554  0.00  0.00    +0.277 C 
ENDBRANCH  21   3
ENDBRANCH   7  11
BRANCH   8   1
ATOM      1  O   UNL     1      -4.094   3.173  26.577  0.00  0.00    -0.388 OA
ATOM     29  H   UNL     1      -4.488   3.791  27.215  0.00  0.00    +0.210 HD
ENDBRANCH   8   1
BRANCH  10   2
ATOM      2  O   UNL     1      -6.838   2.892  26.852  0.00  0.00    -0.389 OA
ATOM     30  H   UNL     1      -6.227   2.653  27.568  0.00  0.00    +0.210 HD
ENDBRANCH  10   2
BRANCH   6   4
ATOM      4  N   UNL     1      -4.528   2.860  22.993  0.00  0.00    -0.306 NA
ATOM     28  H   UNL     1      -4.972   3.774  23.084  0.00  0.00    +0.123 HD
BRANCH   4  12
ATOM     12  C   UNL     1      -3.321   3.009  22.193  0.00  0.00    +0.118 C 
BRANCH  12  15
ATOM      5  N   UNL     1      -0.506   0.876  23.223  0.00  0.00    -0.349 N 
ATOM     15  C   UNL     1      -2.140   2.325  22.828  0.00  0.00    -0.008 A 
ATOM     16  C   UNL     1      -1.441   2.749  23.994  0.00  0.00    +0.004 A 
ATOM     19  C   UNL     1      -1.541   1.171  22.377  0.00  0.00    +0.091 A 
ATOM     20  C   UNL     1      -0.421   1.822  24.220  0.00  0.00    +0.049 A 
ATOM     22  C   UNL     1      -1.580   3.834  24.881  0.00  0.00    +0.010 A 
ATOM     23  C   UNL     1       0.470   1.928  25.293  0.00  0.00    +0.026 A 
ATOM     24  C   UNL     1       0.365  -0.271  23.077  0.00  0.00    +0.149 C 
ATOM     25  C   UNL     1      -0.695   3.952  25.959  0.00  0.00    +0.001 A 
ATOM     26  C   UNL     1       0.314   3.013  26.160  0.00  0.00    +0.002 A 
ENDBRANCH  12  15
ENDBRANCH   4  12
ENDBRANCH   6   4
TORSDOF 7
ENDMDL
MODEL 4
REMARK VINA RESULT:      -1.2     14.657     16.865
REMARK  Name = 75536106
REMARK  9 active torsions:
REMARK  status: ('A' for Active; 'I' for Inactive)
REMARK    1  A    between atoms: O_1  and  C_8
REMARK    2  A    between atoms: O_2  and  C_10
REMARK    3  A    between atoms: O_3  and  C_21
REMARK    4  A    between atoms: O_3  and  C_27
REMARK    5  A    between atoms: N_4  and  C_6
REMARK    6  A    between atoms: N_4  and  C_12
REMARK    7  A    between atoms: N_5  and  C_24
REMARK    8  A    between atoms: C_7  and  C_11
REMARK    9  A    between atoms: C_12  and  C_15
REMARK                            x       y       z     vdW  Elec       q    Type
REMARK                         _______ _______ _______ _____ _____    ______ ____
ROOT
ATOM      6  C   UNL     1      -2.410  -0.177  24.435  0.00  0.00    +0.092 C 
ATOM      7  C   UNL     1      -1.436  -0.987  23.524  0.00  0.00    +0.041 C 
ATOM      8  C   UNL     1      -2.855  -1.165  25.526  0.00  0.00    +0.160 C 
ATOM      9  C   UNL     1      -1.379  -2.405  24.125  0.00  0.00    +0.043 C 
ATOM     10  C   UNL     1      -2.701  -2.533  24.869  0.00  0.00    +0.145 C 
ENDROOT
BRANCH   7  11
ATOM     11  C   UNL     1      -0.071  -0.353  23.363  0.00  0.00    -0.042 A 
ATOM     13  C   UNL     1       0.837  -0.878  22.444  0.00  0.00    +0.007 A 
ATOM     14  C   UNL     1       0.278   0.757  24.133  0.00  0.00    +0.007 A 
ATOM     17  C   UNL     1       2.095  -0.293  22.294  0.00  0.00    +0.046 A 
ATOM     18  C   UNL     1       1.536   1.341  23.984  0.00  0.00    +0.046 A 
ATOM     21  C   UNL     1       2.445   0.816  23.064  0.00  0.00    +0.120 A 
BRANCH  21   3
ATOM      3  O   UNL     1       3.672   1.385  22.919  0.00  0.00    -0.495 OA
ATOM     27  C   UNL     1       4.806   0.547  23.139  0.00  0.00    +0.277 C 
ENDBRANCH  21   3
ENDBRANCH   7  11
BRANCH   8   1
ATOM      1  O   UNL     1      -1.968  -1.035  26.636  0.00  0.00    -0.388 OA
ATOM     29  H   UNL     1      -1.930  -1.898  27.082  0.00  0.00    +0.210 HD
ENDBRANCH   8   1
BRANCH  10   2
ATOM      2  O   UNL     1      -2.664  -3.588  25.809  0.00  0.00    -0.389 OA
ATOM     30  H   UNL     1      -1.924  -3.413  26.415  0.00  0.00    +0.210 HD
ENDBRANCH  10   2
BRANCH   6   4
ATOM      4  N   UNL     1      -3.570   0.253  23.651  0.00  0.00    -0.306 NA
ATOM     28  H   UNL     1      -3.873  -0.514  23.050  0.00  0.00    +0.123 HD
BRANCH   4  12
ATOM     12  C   UNL     1      -4.677   0.624  24.522  0.00  0.00    +0.118 C 
BRANCH  12  15
ATOM      5  N   UNL     1      -5.296   4.136  25.428  0.00  0.00    -0.349 N 
ATOM     15  C   UNL     1      -4.645   2.086  24.878  0.00  0.00    -0.008 A 
ATOM     16  C   UNL     1      -3.486   2.905  24.994  0.00  0.00    +0.004 A 
ATOM     19  C   UNL     1      -5.741   2.871  25.151  0.00  0.00    +0.091 A 
ATOM     20  C   UNL     1      -3.922   4.186  25.340  0.00  0.00    +0.049 A 
ATOM     22  C   UNL     1      -2.105   2.679  24.837  0.00  0.00    +0.010 A 
ATOM     23  C   UNL     1      -3.042   5.255  25.538  0.00  0.00    +0.026 A 
ATOM     24  C   UNL     1      -6.157   5.248  25.765  0.00  0.00    +0.149 C 
ATOM     25  C   UNL     1      -1.213   3.740  25.032  0.00  0.00    +0.001 A 
ATOM     26  C   UNL     1      -1.677   5.007  25.377  0.00  0.00    +0.002 A 
ENDBRANCH  12  15
ENDBRANCH   4  12
ENDBRANCH   6   4
TORSDOF 7
ENDMDL
