MODEL 1
REMARK VINA RESULT:       0.4      0.000      0.000
REMARK  Name = 45783636
REMARK  11 active torsions:
REMARK  status: ('A' for Active; 'I' for Inactive)
REMARK    1  A    between atoms: O_2  and  C_26
REMARK    2  A    between atoms: O_2  and  C_27
REMARK    3  A    between atoms: N_4  and  C_12
REMARK    4  A    between atoms: N_8  and  C_24
REMARK    5  A    between atoms: C_9  and  C_15
REMARK    6  A    between atoms: C_12  and  C_14
REMARK    7  A    between atoms: C_14  and  C_16
REMARK    8  A    between atoms: C_14  and  C_17
REMARK    9  A    between atoms: C_14  and  C_18
REMARK   10  A    between atoms: C_19  and  C_20
REMARK   11  A    between atoms: C_25  and  C_26
REMARK                            x       y       z     vdW  Elec       q    Type
REMARK                         _______ _______ _______ _____ _____    ______ ____
ROOT
ATOM      1  O   UNL     1      -2.080   2.798  24.698  0.00  0.00    -0.336 OA
ATOM      5  N   UNL     1      -1.553   1.113  23.319  0.00  0.00    -0.190 NA
ATOM      6  N   UNL     1      -0.681   2.739  24.671  0.00  0.00    -0.056 NA
ATOM     15  C   UNL     1      -2.514   1.806  23.876  0.00  0.00    +0.245 A 
ATOM     19  C   UNL     1      -0.446   1.722  23.838  0.00  0.00    +0.204 A 
ENDROOT
BRANCH  19  20
ATOM      7  N   UNL     1       3.223   1.818  23.249  0.00  0.00    -0.239 NA
ATOM     20  C   UNL     1       0.878   1.287  23.502  0.00  0.00    +0.041 A 
ATOM     21  C   UNL     1       1.127  -0.025  23.117  0.00  0.00    +0.016 A 
ATOM     22  C   UNL     1       1.951   2.163  23.552  0.00  0.00    +0.124 A 
ATOM     23  C   UNL     1       2.422  -0.417  22.797  0.00  0.00    +0.044 A 
ATOM     24  C   UNL     1       3.426   0.534  22.879  0.00  0.00    +0.125 A 
BRANCH  24   8
ATOM      3  O   UNL     1       5.657  -0.456  24.637  0.00  0.00    -0.273 OA
ATOM      8  N   UNL     1       4.726   0.130  22.554  0.00  0.00    -0.268 N 
ATOM     25  C   UNL     1       5.727  -0.324  23.418  0.00  0.00    +0.244 C 
ATOM     28  H   UNL     1       4.948   0.182  21.563  0.00  0.00    +0.156 HD
BRANCH  25  26
ATOM     26  C   UNL     1       7.007  -0.659  22.683  0.00  0.00    +0.255 C 
BRANCH  26   2
ATOM      2  O   UNL     1       8.050   0.145  23.193  0.00  0.00    -0.374 OA
ATOM     27  C   UNL     1       9.333  -0.356  22.828  0.00  0.00    +0.194 C 
ENDBRANCH  26   2
ENDBRANCH  25  26
ENDBRANCH  24   8
ENDBRANCH  19  20
BRANCH  15   9
ATOM      4  N   UNL     1      -4.595   0.350  24.087  0.00  0.00    -0.291 NA
ATOM      9  C   UNL     1      -4.022   1.658  23.729  0.00  0.00    +0.146 C 
ATOM     10  C   UNL     1      -4.843   2.604  24.615  0.00  0.00    +0.030 C 
ATOM     11  C   UNL     1      -4.830   0.349  25.525  0.00  0.00    +0.085 C 
ATOM     13  C   UNL     1      -5.295   1.768  25.813  0.00  0.00    +0.017 C 
BRANCH   4  12
ATOM     12  C   UNL     1      -3.890  -0.824  23.609  0.00  0.00    +0.091 C 
BRANCH  12  14
ATOM     14  C   UNL     1      -3.231  -1.667  24.731  0.00  0.00    -0.025 C 
ATOM     16  C   UNL     1      -1.708  -1.752  24.532  0.00  0.00    +0.012 C 
ATOM     17  C   UNL     1      -3.528  -1.075  26.121  0.00  0.00    +0.012 C 
ATOM     18  C   UNL     1      -3.816  -3.091  24.671  0.00  0.00    +0.012 C 
ENDBRANCH  12  14
ENDBRANCH   4  12
ENDBRANCH  15   9
TORSDOF 7
ENDMDL
MODEL 2
REMARK VINA RESULT:       1.1      2.136      3.718
REMARK  Name = 45783636
REMARK  11 active torsions:
REMARK  status: ('A' for Active; 'I' for Inactive)
REMARK    1  A    between atoms: O_2  and  C_26
REMARK    2  A    between atoms: O_2  and  C_27
REMARK    3  A    between atoms: N_4  and  C_12
REMARK    4  A    between atoms: N_8  and  C_24
REMARK    5  A    between atoms: C_9  and  C_15
REMARK    6  A    between atoms: C_12  and  C_14
REMARK    7  A    between atoms: C_14  and  C_16
REMARK    8  A    between atoms: C_14  and  C_17
REMARK    9  A    between atoms: C_14  and  C_18
REMARK   10  A    between atoms: C_19  and  C_20
REMARK   11  A    between atoms: C_25  and  C_26
REMARK                            x       y       z     vdW  Elec       q    Type
REMARK                         _______ _______ _______ _____ _____    ______ ____
ROOT
ATOM      1  O   UNL     1      -4.577  -0.368  24.804  0.00  0.00    -0.336 OA
ATOM      5  N   UNL     1      -2.928   1.095  25.198  0.00  0.00    -0.190 NA
ATOM      6  N   UNL     1      -3.419  -0.927  24.250  0.00  0.00    -0.056 NA
ATOM     15  C   UNL     1      -4.200   0.822  25.342  0.00  0.00    +0.245 A 
ATOM     19  C   UNL     1      -2.490  -0.007  24.522  0.00  0.00    +0.204 A 
ENDROOT
BRANCH  19  20
ATOM      7  N   UNL     1       0.826   0.766  23.028  0.00  0.00    -0.239 NA
ATOM     20  C   UNL     1      -1.118  -0.155  24.132  0.00  0.00    +0.041 A 
ATOM     21  C   UNL     1      -0.401  -1.302  24.452  0.00  0.00    +0.016 A 
ATOM     22  C   UNL     1      -0.465   0.842  23.425  0.00  0.00    +0.124 A 
ATOM     23  C   UNL     1       0.928  -1.417  24.061  0.00  0.00    +0.044 A 
ATOM     24  C   UNL     1       1.489  -0.365  23.357  0.00  0.00    +0.125 A 
BRANCH  24   8
ATOM      3  O   UNL     1       3.618   1.729  22.985  0.00  0.00    -0.273 OA
ATOM      8  N   UNL     1       2.828  -0.490  22.967  0.00  0.00    -0.268 N 
ATOM     25  C   UNL     1       3.777   0.524  22.810  0.00  0.00    +0.244 C 
ATOM     28  H   UNL     1       3.124  -1.445  22.779  0.00  0.00    +0.156 HD
BRANCH  25  26
ATOM     26  C   UNL     1       5.119  -0.015  22.364  0.00  0.00    +0.255 C 
BRANCH  26   2
ATOM      2  O   UNL     1       6.037   0.106  23.431  0.00  0.00    -0.374 OA
ATOM     27  C   UNL     1       5.665  -0.700  24.545  0.00  0.00    +0.194 C 
ENDBRANCH  26   2
ENDBRANCH  25  26
ENDBRANCH  24   8
ENDBRANCH  19  20
BRANCH  15   9
ATOM      4  N   UNL     1      -5.036   3.078  26.182  0.00  0.00    -0.291 NA
ATOM      9  C   UNL     1      -5.293   1.638  26.018  0.00  0.00    +0.146 C 
ATOM     10  C   UNL     1      -6.633   1.651  25.269  0.00  0.00    +0.030 C 
ATOM     11  C   UNL     1      -5.435   3.742  24.947  0.00  0.00    +0.085 C 
ATOM     13  C   UNL     1      -6.679   2.981  24.517  0.00  0.00    +0.017 C 
BRANCH   4  12
ATOM     12  C   UNL     1      -3.716   3.456  26.648  0.00  0.00    +0.091 C 
BRANCH  12  14
ATOM     14  C   UNL     1      -2.840   4.152  25.574  0.00  0.00    -0.025 C 
ATOM     16  C   UNL     1      -3.370   3.857  24.160  0.00  0.00    +0.012 C 
ATOM     17  C   UNL     1      -2.795   5.675  25.792  0.00  0.00    +0.012 C 
ATOM     18  C   UNL     1      -1.407   3.599  25.688  0.00  0.00    +0.012 C 
ENDBRANCH  12  14
ENDBRANCH   4  12
ENDBRANCH  15   9
TORSDOF 7
ENDMDL
MODEL 3
REMARK VINA RESULT:       1.4      1.741      3.211
REMARK  Name = 45783636
REMARK  11 active torsions:
REMARK  status: ('A' for Active; 'I' for Inactive)
REMARK    1  A    between atoms: O_2  and  C_26
REMARK    2  A    between atoms: O_2  and  C_27
REMARK    3  A    between atoms: N_4  and  C_12
REMARK    4  A    between atoms: N_8  and  C_24
REMARK    5  A    between atoms: C_9  and  C_15
REMARK    6  A    between atoms: C_12  and  C_14
REMARK    7  A    between atoms: C_14  and  C_16
REMARK    8  A    between atoms: C_14  and  C_17
REMARK    9  A    between atoms: C_14  and  C_18
REMARK   10  A    between atoms: C_19  and  C_20
REMARK   11  A    between atoms: C_25  and  C_26
REMARK                            x       y       z     vdW  Elec       q    Type
REMARK                         _______ _______ _______ _____ _____    ______ ____
ROOT
ATOM      1  O   UNL     1      -3.144   1.053  23.462  0.00  0.00    -0.336 OA
ATOM      5  N   UNL     1      -1.442   1.181  24.914  0.00  0.00    -0.190 NA
ATOM      6  N   UNL     1      -1.982   0.788  22.727  0.00  0.00    -0.056 NA
ATOM     15  C   UNL     1      -2.737   1.274  24.740  0.00  0.00    +0.245 A 
ATOM     19  C   UNL     1      -1.022   0.881  23.650  0.00  0.00    +0.204 A 
ENDROOT
BRANCH  19  20
ATOM      7  N   UNL     1       2.648   1.461  23.516  0.00  0.00    -0.239 NA
ATOM     20  C   UNL     1       0.365   0.683  23.346  0.00  0.00    +0.041 A 
ATOM     21  C   UNL     1       0.789  -0.422  22.617  0.00  0.00    +0.016 A 
ATOM     22  C   UNL     1       1.325   1.588  23.769  0.00  0.00    +0.124 A 
ATOM     23  C   UNL     1       2.141  -0.587  22.337  0.00  0.00    +0.044 A 
ATOM     24  C   UNL     1       3.022   0.374  22.805  0.00  0.00    +0.125 A 
BRANCH  24   8
ATOM      3  O   UNL     1       5.294  -0.499  24.574  0.00  0.00    -0.273 OA
ATOM      8  N   UNL     1       4.380   0.199  22.518  0.00  0.00    -0.268 N 
ATOM     25  C   UNL     1       5.398  -0.211  23.385  0.00  0.00    +0.244 C 
ATOM     28  H   UNL     1       4.637   0.402  21.555  0.00  0.00    +0.156 HD
BRANCH  25  26
ATOM     26  C   UNL     1       6.744  -0.270  22.697  0.00  0.00    +0.255 C 
BRANCH  26   2
ATOM      2  O   UNL     1       7.746   0.098  23.622  0.00  0.00    -0.374 OA
ATOM     27  C   UNL     1       9.054  -0.125  23.103  0.00  0.00    +0.194 C 
ENDBRANCH  26   2
ENDBRANCH  25  26
ENDBRANCH  24   8
ENDBRANCH  19  20
BRANCH  15   9
ATOM      4  N   UNL     1      -4.004   3.004  26.118  0.00  0.00    -0.291 NA
ATOM      9  C   UNL     1      -3.827   1.588  25.755  0.00  0.00    +0.146 C 
ATOM     10  C   UNL     1      -5.245   1.210  25.303  0.00  0.00    +0.030 C 
ATOM     11  C   UNL     1      -4.884   3.609  25.127  0.00  0.00    +0.085 C 
ATOM     13  C   UNL     1      -5.891   2.510  24.825  0.00  0.00    +0.017 C 
BRANCH   4  12
ATOM     12  C   UNL     1      -2.797   3.767  26.372  0.00  0.00    +0.091 C 
BRANCH  12  14
ATOM     14  C   UNL     1      -2.293   4.578  25.151  0.00  0.00    -0.025 C 
ATOM     16  C   UNL     1      -3.082   4.207  23.883  0.00  0.00    +0.012 C 
ATOM     17  C   UNL     1      -2.412   6.092  25.398  0.00  0.00    +0.012 C 
ATOM     18  C   UNL     1      -0.808   4.235  24.923  0.00  0.00    +0.012 C 
ENDBRANCH  12  14
ENDBRANCH   4  12
ENDBRANCH  15   9
TORSDOF 7
ENDMDL
MODEL 4
REMARK VINA RESULT:       1.6     13.749     15.740
REMARK  Name = 45783636
REMARK  11 active torsions:
REMARK  status: ('A' for Active; 'I' for Inactive)
REMARK    1  A    between atoms: O_2  and  C_26
REMARK    2  A    between atoms: O_2  and  C_27
REMARK    3  A    between atoms: N_4  and  C_12
REMARK    4  A    between atoms: N_8  and  C_24
REMARK    5  A    between atoms: C_9  and  C_15
REMARK    6  A    between atoms: C_12  and  C_14
REMARK    7  A    between atoms: C_14  and  C_16
REMARK    8  A    between atoms: C_14  and  C_17
REMARK    9  A    between atoms: C_14  and  C_18
REMARK   10  A    between atoms: C_19  and  C_20
REMARK   11  A    between atoms: C_25  and  C_26
REMARK                            x       y       z     vdW  Elec       q    Type
REMARK                         _______ _______ _______ _____ _____    ______ ____
ROOT
ATOM      1  O   UNL     1       9.090  -7.651  32.533  0.00  0.00    -0.336 OA
ATOM      5  N   UNL     1      11.095  -8.404  31.876  0.00  0.00    -0.190 NA
ATOM      6  N   UNL     1       9.965  -6.561  32.624  0.00  0.00    -0.056 NA
ATOM     15  C   UNL     1       9.836  -8.696  32.086  0.00  0.00    +0.245 A 
ATOM     19  C   UNL     1      11.127  -7.083  32.221  0.00  0.00    +0.204 A 
ENDROOT
BRANCH  19  20
ATOM      7  N   UNL     1      13.432  -4.168  32.326  0.00  0.00    -0.239 NA
ATOM     20  C   UNL     1      12.336  -6.316  32.151  0.00  0.00    +0.041 A 
ATOM     21  C   UNL     1      13.553  -6.920  31.855  0.00  0.00    +0.016 A 
ATOM     22  C   UNL     1      12.328  -4.949  32.376  0.00  0.00    +0.124 A 
ATOM     23  C   UNL     1      14.709  -6.151  31.795  0.00  0.00    +0.044 A 
ATOM     24  C   UNL     1      14.596  -4.791  32.036  0.00  0.00    +0.125 A 
BRANCH  24   8
ATOM      3  O   UNL     1      15.229  -2.328  30.428  0.00  0.00    -0.273 OA
ATOM      8  N   UNL     1      15.765  -4.025  31.972  0.00  0.00    -0.268 N 
ATOM     25  C   UNL     1      16.004  -2.882  31.202  0.00  0.00    +0.244 C 
ATOM     28  H   UNL     1      16.520  -4.358  32.566  0.00  0.00    +0.156 HD
BRANCH  25  26
ATOM     26  C   UNL     1      17.404  -2.342  31.403  0.00  0.00    +0.255 C 
BRANCH  26   2
ATOM      2  O   UNL     1      17.363  -1.321  32.378  0.00  0.00    -0.374 OA
ATOM     27  C   UNL     1      16.996  -0.065  31.815  0.00  0.00    +0.194 C 
ENDBRANCH  26   2
ENDBRANCH  25  26
ENDBRANCH  24   8
ENDBRANCH  19  20
BRANCH  15   9
ATOM      4  N   UNL     1       7.637  -9.963  31.858  0.00  0.00    -0.291 NA
ATOM      9  C   UNL     1       9.107 -10.019  31.898  0.00  0.00    +0.146 C 
ATOM     10  C   UNL     1       9.421 -10.735  30.577  0.00  0.00    +0.030 C 
ATOM     11  C   UNL     1       7.242  -9.659  30.488  0.00  0.00    +0.085 C 
ATOM     13  C   UNL     1       8.247 -10.431  29.647  0.00  0.00    +0.017 C 
BRANCH   4  12
ATOM     12  C   UNL     1       6.989  -9.128  32.851  0.00  0.00    +0.091 C 
BRANCH  12  14
ATOM     14  C   UNL     1       5.919  -8.168  32.270  0.00  0.00    -0.025 C 
ATOM     16  C   UNL     1       6.194  -6.716  32.702  0.00  0.00    +0.012 C 
ATOM     17  C   UNL     1       5.879  -8.241  30.733  0.00  0.00    +0.012 C 
ATOM     18  C   UNL     1       4.542  -8.591  32.816  0.00  0.00    +0.012 C 
ENDBRANCH  12  14
ENDBRANCH   4  12
ENDBRANCH  15   9
TORSDOF 7
ENDMDL
MODEL 5
REMARK VINA RESULT:       2.0      1.166      2.913
REMARK  Name = 45783636
REMARK  11 active torsions:
REMARK  status: ('A' for Active; 'I' for Inactive)
REMARK    1  A    between atoms: O_2  and  C_26
REMARK    2  A    between atoms: O_2  and  C_27
REMARK    3  A    between atoms: N_4  and  C_12
REMARK    4  A    between atoms: N_8  and  C_24
REMARK    5  A    between atoms: C_9  and  C_15
REMARK    6  A    between atoms: C_12  and  C_14
REMARK    7  A    between atoms: C_14  and  C_16
REMARK    8  A    between atoms: C_14  and  C_17
REMARK    9  A    between atoms: C_14  and  C_18
REMARK   10  A    between atoms: C_19  and  C_20
REMARK   11  A    between atoms: C_25  and  C_26
REMARK                            x       y       z     vdW  Elec       q    Type
REMARK                         _______ _______ _______ _____ _____    ______ ____
ROOT
ATOM      1  O   UNL     1      -2.025   1.566  23.889  0.00  0.00    -0.336 OA
ATOM      5  N   UNL     1      -0.701  -0.072  24.652  0.00  0.00    -0.190 NA
ATOM      6  N   UNL     1      -0.769   1.777  23.308  0.00  0.00    -0.056 NA
ATOM     15  C   UNL     1      -1.898   0.458  24.666  0.00  0.00    +0.245 A 
ATOM     19  C   UNL     1      -0.043   0.773  23.805  0.00  0.00    +0.204 A 
ENDROOT
BRANCH  19  20
ATOM      7  N   UNL     1       3.190  -0.933  23.126  0.00  0.00    -0.239 NA
ATOM     20  C   UNL     1       1.340   0.583  23.478  0.00  0.00    +0.041 A 
ATOM     21  C   UNL     1       2.167   1.667  23.203  0.00  0.00    +0.016 A 
ATOM     22  C   UNL     1       1.895  -0.686  23.427  0.00  0.00    +0.124 A 
ATOM     23  C   UNL     1       3.505   1.452  22.890  0.00  0.00    +0.044 A 
ATOM     24  C   UNL     1       3.963   0.145  22.865  0.00  0.00    +0.125 A 
BRANCH  24   8
ATOM      3  O   UNL     1       6.219  -0.925  24.543  0.00  0.00    -0.273 OA
ATOM      8  N   UNL     1       5.311  -0.061  22.549  0.00  0.00    -0.268 N 
ATOM     25  C   UNL     1       6.321  -0.565  23.374  0.00  0.00    +0.244 C 
ATOM     28  H   UNL     1       5.564   0.194  21.598  0.00  0.00    +0.156 HD
BRANCH  25  26
ATOM     26  C   UNL     1       7.657  -0.629  22.666  0.00  0.00    +0.255 C 
BRANCH  26   2
ATOM      2  O   UNL     1       8.487   0.399  23.163  0.00  0.00    -0.374 OA
ATOM     27  C   UNL     1       9.856   0.007  23.196  0.00  0.00    +0.194 C 
ENDBRANCH  26   2
ENDBRANCH  25  26
ENDBRANCH  24   8
ENDBRANCH  19  20
BRANCH  15   9
ATOM      4  N   UNL     1      -4.440   0.422  24.855  0.00  0.00    -0.291 NA
ATOM      9  C   UNL     1      -3.144   0.009  25.417  0.00  0.00    +0.146 C 
ATOM     10  C   UNL     1      -3.320  -1.514  25.503  0.00  0.00    +0.030 C 
ATOM     11  C   UNL     1      -4.814  -0.555  23.840  0.00  0.00    +0.085 C 
ATOM     13  C   UNL     1      -4.343  -1.877  24.426  0.00  0.00    +0.017 C 
BRANCH   4  12
ATOM     12  C   UNL     1      -4.547   1.798  24.409  0.00  0.00    +0.091 C 
BRANCH  12  14
ATOM     14  C   UNL     1      -4.992   2.789  25.516  0.00  0.00    -0.025 C 
ATOM     16  C   UNL     1      -5.975   2.116  26.491  0.00  0.00    +0.012 C 
ATOM     17  C   UNL     1      -3.784   3.325  26.304  0.00  0.00    +0.012 C 
ATOM     18  C   UNL     1      -5.703   3.978  24.842  0.00  0.00    +0.012 C 
ENDBRANCH  12  14
ENDBRANCH   4  12
ENDBRANCH  15   9
TORSDOF 7
ENDMDL
