MODEL 1
REMARK VINA RESULT:      -0.9      0.000      0.000
REMARK  Name = 25314482
REMARK  7 active torsions:
REMARK  status: ('A' for Active; 'I' for Inactive)
REMARK    1  A    between atoms: O_3  and  C_9
REMARK    2  A    between atoms: N_5  and  C_8
REMARK    3  A    between atoms: N_6  and  C_10
REMARK    4  A    between atoms: N_7  and  C_24
REMARK    5  A    between atoms: C_15  and  C_19
REMARK    6  A    between atoms: C_19  and  C_20
REMARK    7  A    between atoms: C_24  and  C_28
REMARK                            x       y       z     vdW  Elec       q    Type
REMARK                         _______ _______ _______ _____ _____    ______ ____
ROOT
ATOM      1  O   UNL     1      -3.966   3.448  23.408  0.00  0.00    -0.342 OA
ATOM      2  O   UNL     1      -3.957   4.928  25.195  0.00  0.00    -0.347 OA
ATOM      8  C   UNL     1      -2.365   3.108  25.179  0.00  0.00    +0.143 C 
ATOM      9  C   UNL     1      -3.361   2.199  25.933  0.00  0.00    +0.159 C 
ATOM     10  C   UNL     1      -4.664   1.932  25.148  0.00  0.00    +0.136 C 
ATOM     11  C   UNL     1      -3.116   4.148  24.328  0.00  0.00    +0.270 C 
ATOM     12  C   UNL     1      -5.078   3.109  24.241  0.00  0.00    +0.170 C 
ATOM     16  C   UNL     1      -5.282   4.419  24.978  0.00  0.00    +0.196 C 
ENDROOT
BRANCH  10   6
ATOM      4  O   UNL     1      -3.948  -0.698  26.095  0.00  0.00    -0.253 OA
ATOM      6  N   UNL     1      -4.532   0.727  24.357  0.00  0.00    -0.291 N 
ATOM      7  N   UNL     1      -4.126  -1.490  23.921  0.00  0.00    -0.300 N 
ATOM     21  C   UNL     1      -4.180  -0.503  24.902  0.00  0.00    +0.300 C 
ATOM     29  H   UNL     1      -4.626   0.799  23.348  0.00  0.00    +0.151 HD
ATOM     31  H   UNL     1      -4.324  -1.233  22.958  0.00  0.00    +0.150 HD
BRANCH   7  24
ATOM     24  C   UNL     1      -3.784  -2.863  24.210  0.00  0.00    +0.102 C 
ATOM     28  C   UNL     1      -2.291  -3.036  24.395  0.00  0.00    +0.024 C 
ENDBRANCH   7  24
ENDBRANCH  10   6
BRANCH   8   5
ATOM      5  N   UNL     1      -1.496   2.300  24.320  0.00  0.00    -0.293 NA
ATOM     13  C   UNL     1      -1.457   0.909  24.791  0.00  0.00    +0.085 C 
ATOM     14  C   UNL     1      -0.148   2.879  24.262  0.00  0.00    +0.085 C 
ATOM     15  C   UNL     1       0.823   0.603  23.739  0.00  0.00    -0.004 C 
ATOM     17  C   UNL     1      -0.595   0.040  23.872  0.00  0.00    +0.019 C 
ATOM     18  C   UNL     1       0.758   2.077  23.324  0.00  0.00    +0.019 C 
BRANCH  15  19
ATOM     19  C   UNL     1       1.646  -0.211  22.744  0.00  0.00    +0.038 C 
BRANCH  19  20
ATOM     20  C   UNL     1       3.101  -0.242  23.122  0.00  0.00    -0.047 A 
ATOM     22  C   UNL     1       3.653  -1.397  23.677  0.00  0.00    +0.003 A 
ATOM     23  C   UNL     1       3.900   0.883  22.919  0.00  0.00    +0.003 A 
ATOM     25  C   UNL     1       5.002  -1.427  24.028  0.00  0.00    +0.000 A 
ATOM     26  C   UNL     1       5.249   0.853  23.269  0.00  0.00    +0.000 A 
ATOM     27  C   UNL     1       5.801  -0.302  23.824  0.00  0.00    +0.000 A 
ENDBRANCH  19  20
ENDBRANCH  15  19
ENDBRANCH   8   5
BRANCH   9   3
ATOM      3  O   UNL     1      -3.693   2.845  27.169  0.00  0.00    -0.388 OA
ATOM     30  H   UNL     1      -4.594   2.571  27.410  0.00  0.00    +0.210 HD
ENDBRANCH   9   3
TORSDOF 6
ENDMDL
MODEL 2
REMARK VINA RESULT:       2.8      1.721      4.428
REMARK  Name = 25314482
REMARK  7 active torsions:
REMARK  status: ('A' for Active; 'I' for Inactive)
REMARK    1  A    between atoms: O_3  and  C_9
REMARK    2  A    between atoms: N_5  and  C_8
REMARK    3  A    between atoms: N_6  and  C_10
REMARK    4  A    between atoms: N_7  and  C_24
REMARK    5  A    between atoms: C_15  and  C_19
REMARK    6  A    between atoms: C_19  and  C_20
REMARK    7  A    between atoms: C_24  and  C_28
REMARK                            x       y       z     vdW  Elec       q    Type
REMARK                         _______ _______ _______ _____ _____    ______ ____
ROOT
ATOM      1  O   UNL     1      -1.773  -1.270  26.126  0.00  0.00    -0.342 OA
ATOM      2  O   UNL     1      -3.208  -2.701  24.997  0.00  0.00    -0.347 OA
ATOM      8  C   UNL     1      -1.700  -1.311  23.716  0.00  0.00    +0.143 C 
ATOM      9  C   UNL     1      -2.759  -0.188  23.645  0.00  0.00    +0.159 C 
ATOM     10  C   UNL     1      -3.150   0.376  25.028  0.00  0.00    +0.136 C 
ATOM     11  C   UNL     1      -1.882  -2.147  24.996  0.00  0.00    +0.270 C 
ATOM     12  C   UNL     1      -3.073  -0.673  26.156  0.00  0.00    +0.170 C 
ATOM     16  C   UNL     1      -3.943  -1.894  25.929  0.00  0.00    +0.196 C 
ENDROOT
BRANCH  10   6
ATOM      4  O   UNL     1      -3.721   3.158  24.517  0.00  0.00    -0.253 OA
ATOM      6  N   UNL     1      -2.315   1.512  25.357  0.00  0.00    -0.291 N 
ATOM      7  N   UNL     1      -1.692   3.717  25.494  0.00  0.00    -0.300 N 
ATOM     21  C   UNL     1      -2.674   2.825  25.071  0.00  0.00    +0.300 C 
ATOM     29  H   UNL     1      -1.394   1.336  25.746  0.00  0.00    +0.151 HD
ATOM     31  H   UNL     1      -0.854   3.348  25.934  0.00  0.00    +0.150 HD
BRANCH   7  24
ATOM     24  C   UNL     1      -1.805   5.147  25.321  0.00  0.00    +0.102 C 
ATOM     28  C   UNL     1      -0.614   5.711  24.576  0.00  0.00    +0.024 C 
ENDBRANCH   7  24
ENDBRANCH  10   6
BRANCH   8   5
ATOM      5  N   UNL     1      -0.353  -0.735  23.688  0.00  0.00    -0.293 NA
ATOM     13  C   UNL     1      -0.395   0.689  24.044  0.00  0.00    +0.085 C 
ATOM     14  C   UNL     1       0.263  -0.935  22.370  0.00  0.00    +0.085 C 
ATOM     15  C   UNL     1       1.729   1.094  22.732  0.00  0.00    -0.004 C 
ATOM     17  C   UNL     1       1.011   1.293  24.071  0.00  0.00    +0.019 C 
ATOM     18  C   UNL     1       1.693  -0.387  22.340  0.00  0.00    +0.019 C 
BRANCH  15  19
ATOM     19  C   UNL     1       3.165   1.608  22.798  0.00  0.00    +0.038 C 
BRANCH  19  20
ATOM     20  C   UNL     1       4.113   0.546  23.282  0.00  0.00    -0.047 A 
ATOM     22  C   UNL     1       3.667  -0.765  23.447  0.00  0.00    +0.003 A 
ATOM     23  C   UNL     1       5.440   0.871  23.565  0.00  0.00    +0.003 A 
ATOM     25  C   UNL     1       4.545  -1.751  23.896  0.00  0.00    +0.000 A 
ATOM     26  C   UNL     1       6.319  -0.115  24.014  0.00  0.00    +0.000 A 
ATOM     27  C   UNL     1       5.872  -1.426  24.179  0.00  0.00    +0.000 A 
ENDBRANCH  19  20
ENDBRANCH  15  19
ENDBRANCH   8   5
BRANCH   9   3
ATOM      3  O   UNL     1      -3.931  -0.732  23.021  0.00  0.00    -0.388 OA
ATOM     30  H   UNL     1      -4.176  -0.139  22.291  0.00  0.00    +0.210 HD
ENDBRANCH   9   3
TORSDOF 6
ENDMDL
MODEL 3
REMARK VINA RESULT:       3.0      2.014      3.646
REMARK  Name = 25314482
REMARK  7 active torsions:
REMARK  status: ('A' for Active; 'I' for Inactive)
REMARK    1  A    between atoms: O_3  and  C_9
REMARK    2  A    between atoms: N_5  and  C_8
REMARK    3  A    between atoms: N_6  and  C_10
REMARK    4  A    between atoms: N_7  and  C_24
REMARK    5  A    between atoms: C_15  and  C_19
REMARK    6  A    between atoms: C_19  and  C_20
REMARK    7  A    between atoms: C_24  and  C_28
REMARK                            x       y       z     vdW  Elec       q    Type
REMARK                         _______ _______ _______ _____ _____    ______ ____
ROOT
ATOM      1  O   UNL     1      -4.138   1.423  25.626  0.00  0.00    -0.342 OA
ATOM      2  O   UNL     1      -5.265   2.636  24.001  0.00  0.00    -0.347 OA
ATOM      8  C   UNL     1      -2.879   2.313  23.772  0.00  0.00    +0.143 C 
ATOM      9  C   UNL     1      -2.605   3.615  24.558  0.00  0.00    +0.159 C 
ATOM     10  C   UNL     1      -3.132   3.579  26.009  0.00  0.00    +0.136 C 
ATOM     11  C   UNL     1      -4.211   1.682  24.217  0.00  0.00    +0.270 C 
ATOM     12  C   UNL     1      -4.400   2.718  26.174  0.00  0.00    +0.170 C 
ATOM     16  C   UNL     1      -5.564   3.156  25.305  0.00  0.00    +0.196 C 
ENDROOT
BRANCH  10   6
ATOM      4  O   UNL     1      -0.279   3.825  25.653  0.00  0.00    -0.253 OA
ATOM      6  N   UNL     1      -2.097   3.104  26.904  0.00  0.00    -0.291 N 
ATOM      7  N   UNL     1       0.033   2.719  27.669  0.00  0.00    -0.300 N 
ATOM     21  C   UNL     1      -0.740   3.268  26.648  0.00  0.00    +0.300 C 
ATOM     29  H   UNL     1      -2.374   2.561  27.715  0.00  0.00    +0.151 HD
ATOM     31  H   UNL     1      -0.437   2.269  28.449  0.00  0.00    +0.150 HD
BRANCH   7  24
ATOM     24  C   UNL     1       1.477   2.748  27.660  0.00  0.00    +0.102 C 
ATOM     28  C   UNL     1       2.041   2.694  29.064  0.00  0.00    +0.024 C 
ENDBRANCH   7  24
ENDBRANCH  10   6
BRANCH   8   5
ATOM      5  N   UNL     1      -1.787   1.360  23.979  0.00  0.00    -0.293 NA
ATOM     13  C   UNL     1      -0.503   1.955  23.585  0.00  0.00    +0.085 C 
ATOM     14  C   UNL     1      -2.044   0.116  23.242  0.00  0.00    +0.085 C 
ATOM     15  C   UNL     1       0.440  -0.347  23.129  0.00  0.00    -0.004 C 
ATOM     17  C   UNL     1       0.656   0.990  23.845  0.00  0.00    +0.019 C 
ATOM     18  C   UNL     1      -0.937  -0.913  23.492  0.00  0.00    +0.019 C 
BRANCH  15  19
ATOM     19  C   UNL     1       1.548  -1.339  23.473  0.00  0.00    +0.038 C 
BRANCH  19  20
ATOM     20  C   UNL     1       2.909  -0.709  23.367  0.00  0.00    -0.047 A 
ATOM     22  C   UNL     1       4.015  -1.338  23.939  0.00  0.00    +0.003 A 
ATOM     23  C   UNL     1       3.067   0.504  22.696  0.00  0.00    +0.003 A 
ATOM     25  C   UNL     1       5.278  -0.755  23.841  0.00  0.00    +0.000 A 
ATOM     26  C   UNL     1       4.330   1.088  22.599  0.00  0.00    +0.000 A 
ATOM     27  C   UNL     1       5.436   0.459  23.171  0.00  0.00    +0.000 A 
ENDBRANCH  19  20
ENDBRANCH  15  19
ENDBRANCH   8   5
BRANCH   9   3
ATOM      3  O   UNL     1      -3.249   4.690  23.861  0.00  0.00    -0.388 OA
ATOM     30  H   UNL     1      -3.450   5.383  24.512  0.00  0.00    +0.210 HD
ENDBRANCH   9   3
TORSDOF 6
ENDMDL
