MODEL 1
REMARK VINA RESULT:      -4.9      0.000      0.000
REMARK  Name = 51137052
REMARK  5 active torsions:
REMARK  status: ('A' for Active; 'I' for Inactive)
REMARK    1  A    between atoms: N_5  and  C_11
REMARK    2  A    between atoms: C_7  and  C_12
REMARK    3  A    between atoms: C_11  and  C_13
REMARK    4  A    between atoms: C_22  and  C_25
REMARK    5  A    between atoms: C_23  and  C_26
REMARK                            x       y       z     vdW  Elec       q    Type
REMARK                         _______ _______ _______ _____ _____    ______ ____
ROOT
ATOM      5  N   UNL     1      17.164  -5.608  27.966  0.00  0.00    -0.297 NA
ATOM      7  C   UNL     1      16.042  -7.467  28.854  0.00  0.00    +0.090 C 
ATOM      8  C   UNL     1      15.873  -7.445  27.325  0.00  0.00    +0.029 C 
ATOM      9  C   UNL     1      16.534  -6.057  29.210  0.00  0.00    +0.097 C 
ATOM     10  C   UNL     1      16.248  -6.030  26.906  0.00  0.00    +0.085 C 
ENDROOT
BRANCH   7  12
ATOM      4  O   UNL     1      13.926  -6.870  29.903  0.00  0.00    -0.439 OA
ATOM      6  N   UNL     1      14.471  -9.064  30.064  0.00  0.00    -0.213 NA
ATOM     12  C   UNL     1      14.807  -7.871  29.625  0.00  0.00    +0.201 A 
ATOM     14  C   UNL     1      13.266  -8.843  30.687  0.00  0.00    +0.110 A 
ATOM     15  C   UNL     1      12.929  -7.503  30.590  0.00  0.00    +0.155 A 
ATOM     18  C   UNL     1      12.394  -9.716  31.355  0.00  0.00    +0.035 A 
ATOM     19  C   UNL     1      11.772  -6.937  31.112  0.00  0.00    +0.049 A 
ATOM     22  C   UNL     1      11.215  -9.181  31.896  0.00  0.00    -0.048 A 
ATOM     24  C   UNL     1      10.913  -7.820  31.776  0.00  0.00    +0.007 A 
ATOM     25  C   UNL     1      10.266 -10.084  32.614  0.00  0.00    +0.044 C 
ENDBRANCH   7  12
BRANCH   5  11
ATOM     11  C   UNL     1      17.405  -4.173  27.951  0.00  0.00    +0.119 C 
BRANCH  11  13
ATOM     13  C   UNL     1      17.254  -3.593  26.571  0.00  0.00    -0.033 A 
ATOM     16  C   UNL     1      17.300  -4.429  25.455  0.00  0.00    +0.005 A 
ATOM     17  C   UNL     1      17.068  -2.221  26.407  0.00  0.00    +0.005 A 
ATOM     20  C   UNL     1      17.160  -3.893  24.175  0.00  0.00    +0.012 A 
ATOM     21  C   UNL     1      16.928  -1.684  25.127  0.00  0.00    +0.012 A 
ATOM     23  C   UNL     1      16.973  -2.520  24.011  0.00  0.00    +0.055 A 
BRANCH  23  26
ATOM      1  F   UNL     1      15.520  -1.768  22.267  0.00  0.00    -0.166 F 
ATOM      2  F   UNL     1      17.375  -2.735  21.678  0.00  0.00    -0.166 F 
ATOM      3  F   UNL     1      17.405  -0.721  22.495  0.00  0.00    -0.166 F 
ATOM     26  C   UNL     1      16.820  -1.946  22.643  0.00  0.00    +0.417 C 
ENDBRANCH  23  26
ENDBRANCH  11  13
ENDBRANCH   5  11
TORSDOF 4
ENDMDL
MODEL 2
REMARK VINA RESULT:      -1.5     16.886     18.751
REMARK  Name = 51137052
REMARK  5 active torsions:
REMARK  status: ('A' for Active; 'I' for Inactive)
REMARK    1  A    between atoms: N_5  and  C_11
REMARK    2  A    between atoms: C_7  and  C_12
REMARK    3  A    between atoms: C_11  and  C_13
REMARK    4  A    between atoms: C_22  and  C_25
REMARK    5  A    between atoms: C_23  and  C_26
REMARK                            x       y       z     vdW  Elec       q    Type
REMARK                         _______ _______ _______ _____ _____    ______ ____
ROOT
ATOM      5  N   UNL     1      -3.482  -0.708  24.682  0.00  0.00    -0.297 NA
ATOM      7  C   UNL     1      -1.401  -1.467  23.908  0.00  0.00    +0.090 C 
ATOM      8  C   UNL     1      -1.729  -2.142  25.252  0.00  0.00    +0.029 C 
ATOM      9  C   UNL     1      -2.375  -0.284  23.820  0.00  0.00    +0.097 C 
ATOM     10  C   UNL     1      -2.840  -1.296  25.858  0.00  0.00    +0.085 C 
ENDROOT
BRANCH   7  12
ATOM      4  O   UNL     1       0.249   0.208  23.272  0.00  0.00    -0.439 OA
ATOM      6  N   UNL     1       1.127  -1.758  23.983  0.00  0.00    -0.213 NA
ATOM     12  C   UNL     1       0.042  -1.055  23.739  0.00  0.00    +0.201 A 
ATOM     14  C   UNL     1       2.143  -0.894  23.653  0.00  0.00    +0.110 A 
ATOM     15  C   UNL     1       1.611   0.310  23.218  0.00  0.00    +0.155 A 
ATOM     18  C   UNL     1       3.537  -1.044  23.691  0.00  0.00    +0.035 A 
ATOM     19  C   UNL     1       2.360   1.405  22.806  0.00  0.00    +0.049 A 
ATOM     22  C   UNL     1       4.328   0.040  23.283  0.00  0.00    -0.048 A 
ATOM     24  C   UNL     1       3.749   1.239  22.849  0.00  0.00    +0.007 A 
ATOM     25  C   UNL     1       5.816  -0.089  23.312  0.00  0.00    +0.044 C 
ENDBRANCH   7  12
BRANCH   5  11
ATOM     11  C   UNL     1      -4.371   0.392  25.026  0.00  0.00    +0.119 C 
BRANCH  11  13
ATOM     13  C   UNL     1      -3.662   1.719  24.985  0.00  0.00    -0.033 A 
ATOM     16  C   UNL     1      -2.380   1.841  25.519  0.00  0.00    +0.005 A 
ATOM     17  C   UNL     1      -4.288   2.826  24.412  0.00  0.00    +0.005 A 
ATOM     20  C   UNL     1      -1.722   3.071  25.481  0.00  0.00    +0.012 A 
ATOM     21  C   UNL     1      -3.631   4.056  24.374  0.00  0.00    +0.012 A 
ATOM     23  C   UNL     1      -2.347   4.178  24.907  0.00  0.00    +0.055 A 
BRANCH  23  26
ATOM      1  F   UNL     1      -0.284   5.387  24.927  0.00  0.00    -0.166 F 
ATOM      2  F   UNL     1      -1.996   6.311  25.898  0.00  0.00    -0.166 F 
ATOM      3  F   UNL     1      -1.893   6.209  23.728  0.00  0.00    -0.166 F 
ATOM     26  C   UNL     1      -1.644   5.493  24.863  0.00  0.00    +0.417 C 
ENDBRANCH  23  26
ENDBRANCH  11  13
ENDBRANCH   5  11
TORSDOF 4
ENDMDL
