MODEL 1
REMARK VINA RESULT:       2.1      0.000      0.000
REMARK  Name = 11912407
REMARK  10 active torsions:
REMARK  status: ('A' for Active; 'I' for Inactive)
REMARK    1  A    between atoms: O_3  and  C_30
REMARK    2  A    between atoms: O_3  and  C_31
REMARK    3  A    between atoms: N_6  and  C_18
REMARK    4  A    between atoms: N_7  and  C_19
REMARK    5  A    between atoms: C_8  and  C_14
REMARK    6  A    between atoms: C_9  and  C_13
REMARK    7  A    between atoms: C_13  and  C_15
REMARK    8  A    between atoms: C_14  and  C_17
REMARK    9  A    between atoms: C_24  and  C_30
REMARK   10  A    between atoms: C_31  and  C_32
REMARK                            x       y       z     vdW  Elec       q    Type
REMARK                         _______ _______ _______ _____ _____    ______ ____
ROOT
ATOM      1  O   UNL     1       0.061  -0.980  25.582  0.00  0.00    -0.252 OA
ATOM      5  N   UNL     1      -2.065  -1.111  24.686  0.00  0.00    -0.285 N 
ATOM      6  N   UNL     1      -0.188  -0.870  23.278  0.00  0.00    -0.269 N 
ATOM      8  C   UNL     1      -4.737  -0.065  25.057  0.00  0.00    +0.004 C 
ATOM      9  C   UNL     1      -4.047  -0.024  23.668  0.00  0.00    +0.010 C 
ATOM     10  C   UNL     1      -3.713  -0.101  26.205  0.00  0.00    +0.023 C 
ATOM     11  C   UNL     1      -3.021  -1.166  23.570  0.00  0.00    +0.113 C 
ATOM     12  C   UNL     1      -2.688  -1.217  26.006  0.00  0.00    +0.109 C 
ATOM     16  C   UNL     1      -0.662  -0.996  24.583  0.00  0.00    +0.306 C 
ATOM     33  H   UNL     1      -0.833  -0.921  22.505  0.00  0.00    +0.156 HD
ENDROOT
BRANCH   6  18
ATOM     18  C   UNL     1       1.148  -0.635  22.869  0.00  0.00    +0.036 A 
ATOM     20  C   UNL     1       2.204  -1.114  23.638  0.00  0.00    +0.038 A 
ATOM     21  C   UNL     1       1.396   0.074  21.696  0.00  0.00    +0.023 A 
ATOM     24  C   UNL     1       3.519  -0.883  23.234  0.00  0.00    +0.061 A 
ATOM     25  C   UNL     1       2.711   0.305  21.292  0.00  0.00    +0.003 A 
ATOM     28  C   UNL     1       3.772  -0.173  22.060  0.00  0.00    +0.015 A 
BRANCH  24  30
ATOM      4  O   UNL     1       4.956  -2.572  24.109  0.00  0.00    -0.245 OA
ATOM     30  C   UNL     1       4.625  -1.381  24.036  0.00  0.00    +0.339 C 
BRANCH  30   3
ATOM      3  O   UNL     1       5.260  -0.368  24.701  0.00  0.00    -0.461 OA
BRANCH   3  31
ATOM     31  C   UNL     1       6.044   0.533  23.911  0.00  0.00    +0.229 C 
ATOM     32  C   UNL     1       7.094  -0.258  23.159  0.00  0.00    +0.048 C 
ENDBRANCH   3  31
ENDBRANCH  30   3
ENDBRANCH  24  30
ENDBRANCH   6  18
BRANCH   9  13
ATOM     13  C   UNL     1      -3.385   1.320  23.338  0.00  0.00    +0.002 C 
ATOM     15  C   UNL     1      -2.558   1.227  22.073  0.00  0.00    +0.004 C 
ENDBRANCH   9  13
BRANCH   8  14
ATOM     14  C   UNL     1      -5.738   1.071  25.262  0.00  0.00    +0.100 C 
BRANCH  14  17
ATOM      2  O   UNL     1      -5.696   3.466  25.517  0.00  0.00    -0.275 OA
ATOM      7  N   UNL     1      -3.691   2.294  25.165  0.00  0.00    -0.285 N 
ATOM     17  C   UNL     1      -5.066   2.429  25.334  0.00  0.00    +0.217 C 
ATOM     34  H   UNL     1      -3.322   1.356  25.030  0.00  0.00    +0.155 HD
BRANCH   7  19
ATOM     19  C   UNL     1      -2.717   3.321  25.168  0.00  0.00    +0.033 A 
ATOM     22  C   UNL     1      -1.375   2.980  25.222  0.00  0.00    +0.023 A 
ATOM     23  C   UNL     1      -3.124   4.643  25.115  0.00  0.00    +0.023 A 
ATOM     26  C   UNL     1      -0.414   3.991  25.226  0.00  0.00    +0.002 A 
ATOM     27  C   UNL     1      -2.163   5.654  25.119  0.00  0.00    +0.002 A 
ATOM     29  C   UNL     1      -0.808   5.328  25.174  0.00  0.00    +0.000 A 
ENDBRANCH   7  19
ENDBRANCH  14  17
ENDBRANCH   8  14
TORSDOF 8
ENDMDL
MODEL 2
REMARK VINA RESULT:       3.4      1.832      4.196
REMARK  Name = 11912407
REMARK  10 active torsions:
REMARK  status: ('A' for Active; 'I' for Inactive)
REMARK    1  A    between atoms: O_3  and  C_30
REMARK    2  A    between atoms: O_3  and  C_31
REMARK    3  A    between atoms: N_6  and  C_18
REMARK    4  A    between atoms: N_7  and  C_19
REMARK    5  A    between atoms: C_8  and  C_14
REMARK    6  A    between atoms: C_9  and  C_13
REMARK    7  A    between atoms: C_13  and  C_15
REMARK    8  A    between atoms: C_14  and  C_17
REMARK    9  A    between atoms: C_24  and  C_30
REMARK   10  A    between atoms: C_31  and  C_32
REMARK                            x       y       z     vdW  Elec       q    Type
REMARK                         _______ _______ _______ _____ _____    ______ ____
ROOT
ATOM      1  O   UNL     1       0.022   0.456  21.829  0.00  0.00    -0.252 OA
ATOM      5  N   UNL     1      -0.769   2.310  22.960  0.00  0.00    -0.285 N 
ATOM      6  N   UNL     1       1.337   1.393  23.494  0.00  0.00    -0.269 N 
ATOM      8  C   UNL     1      -3.161   3.324  24.233  0.00  0.00    +0.004 C 
ATOM      9  C   UNL     1      -1.795   3.334  24.970  0.00  0.00    +0.010 C 
ATOM     10  C   UNL     1      -3.218   2.234  23.149  0.00  0.00    +0.023 C 
ATOM     11  C   UNL     1      -0.656   3.400  23.939  0.00  0.00    +0.113 C 
ATOM     12  C   UNL     1      -2.022   2.320  22.203  0.00  0.00    +0.109 C 
ATOM     16  C   UNL     1       0.201   1.321  22.690  0.00  0.00    +0.306 C 
ATOM     33  H   UNL     1       1.432   2.145  24.160  0.00  0.00    +0.156 HD
ENDROOT
BRANCH   6  18
ATOM     18  C   UNL     1       2.424   0.485  23.530  0.00  0.00    +0.036 A 
ATOM     20  C   UNL     1       3.730   0.964  23.497  0.00  0.00    +0.038 A 
ATOM     21  C   UNL     1       2.178  -0.884  23.599  0.00  0.00    +0.023 A 
ATOM     24  C   UNL     1       4.799   0.069  23.533  0.00  0.00    +0.061 A 
ATOM     25  C   UNL     1       3.247  -1.779  23.635  0.00  0.00    +0.003 A 
ATOM     28  C   UNL     1       4.558  -1.303  23.603  0.00  0.00    +0.015 A 
BRANCH  24  30
ATOM      4  O   UNL     1       6.597   1.482  24.211  0.00  0.00    -0.245 OA
ATOM     30  C   UNL     1       6.166   0.566  23.498  0.00  0.00    +0.339 C 
BRANCH  30   3
ATOM      3  O   UNL     1       6.922  -0.107  22.578  0.00  0.00    -0.461 OA
BRANCH   3  31
ATOM     31  C   UNL     1       8.089  -0.778  23.066  0.00  0.00    +0.229 C 
ATOM     32  C   UNL     1       9.276   0.154  22.953  0.00  0.00    +0.048 C 
ENDBRANCH   3  31
ENDBRANCH  30   3
ENDBRANCH  24  30
ENDBRANCH   6  18
BRANCH   9  13
ATOM     13  C   UNL     1      -1.589   2.148  25.921  0.00  0.00    +0.002 C 
ATOM     15  C   UNL     1      -0.203   2.169  26.531  0.00  0.00    +0.004 C 
ENDBRANCH   9  13
BRANCH   8  14
ATOM     14  C   UNL     1      -4.353   3.205  25.182  0.00  0.00    +0.100 C 
BRANCH  14  17
ATOM      2  O   UNL     1      -5.817   1.465  25.975  0.00  0.00    -0.275 OA
ATOM      7  N   UNL     1      -3.809   0.899  24.897  0.00  0.00    -0.285 N 
ATOM     17  C   UNL     1      -4.770   1.765  25.411  0.00  0.00    +0.217 C 
ATOM     34  H   UNL     1      -2.993   1.311  24.449  0.00  0.00    +0.155 HD
BRANCH   7  19
ATOM     19  C   UNL     1      -3.827  -0.516  24.911  0.00  0.00    +0.033 A 
ATOM     22  C   UNL     1      -3.257  -1.190  25.978  0.00  0.00    +0.023 A 
ATOM     23  C   UNL     1      -4.414  -1.197  23.858  0.00  0.00    +0.023 A 
ATOM     26  C   UNL     1      -3.273  -2.585  25.992  0.00  0.00    +0.002 A 
ATOM     27  C   UNL     1      -4.430  -2.591  23.871  0.00  0.00    +0.002 A 
ATOM     29  C   UNL     1      -3.861  -3.285  24.939  0.00  0.00    +0.000 A 
ENDBRANCH   7  19
ENDBRANCH  14  17
ENDBRANCH   8  14
TORSDOF 8
ENDMDL
MODEL 3
REMARK VINA RESULT:       3.8      1.921      4.155
REMARK  Name = 11912407
REMARK  10 active torsions:
REMARK  status: ('A' for Active; 'I' for Inactive)
REMARK    1  A    between atoms: O_3  and  C_30
REMARK    2  A    between atoms: O_3  and  C_31
REMARK    3  A    between atoms: N_6  and  C_18
REMARK    4  A    between atoms: N_7  and  C_19
REMARK    5  A    between atoms: C_8  and  C_14
REMARK    6  A    between atoms: C_9  and  C_13
REMARK    7  A    between atoms: C_13  and  C_15
REMARK    8  A    between atoms: C_14  and  C_17
REMARK    9  A    between atoms: C_24  and  C_30
REMARK   10  A    between atoms: C_31  and  C_32
REMARK                            x       y       z     vdW  Elec       q    Type
REMARK                         _______ _______ _______ _____ _____    ______ ____
ROOT
ATOM      1  O   UNL     1      -1.291   1.868  21.580  0.00  0.00    -0.252 OA
ATOM      5  N   UNL     1      -1.904   3.139  23.411  0.00  0.00    -0.285 N 
ATOM      6  N   UNL     1       0.204   2.082  23.342  0.00  0.00    -0.269 N 
ATOM      8  C   UNL     1      -4.131   3.582  25.204  0.00  0.00    +0.004 C 
ATOM      9  C   UNL     1      -2.706   3.302  25.751  0.00  0.00    +0.010 C 
ATOM     10  C   UNL     1      -4.328   2.999  23.794  0.00  0.00    +0.023 C 
ATOM     11  C   UNL     1      -1.661   3.762  24.720  0.00  0.00    +0.113 C 
ATOM     12  C   UNL     1      -3.218   3.444  22.843  0.00  0.00    +0.109 C 
ATOM     16  C   UNL     1      -1.002   2.330  22.687  0.00  0.00    +0.306 C 
ATOM     33  H   UNL     1       0.387   2.517  24.233  0.00  0.00    +0.156 HD
ENDROOT
BRANCH   6  18
ATOM     18  C   UNL     1       1.252   1.230  22.917  0.00  0.00    +0.036 A 
ATOM     20  C   UNL     1       2.555   1.465  23.348  0.00  0.00    +0.038 A 
ATOM     21  C   UNL     1       0.973   0.159  22.072  0.00  0.00    +0.023 A 
ATOM     24  C   UNL     1       3.587   0.625  22.930  0.00  0.00    +0.061 A 
ATOM     25  C   UNL     1       2.005  -0.682  21.655  0.00  0.00    +0.003 A 
ATOM     28  C   UNL     1       3.311  -0.450  22.084  0.00  0.00    +0.015 A 
BRANCH  24  30
ATOM      4  O   UNL     1       5.343   1.929  23.879  0.00  0.00    -0.245 OA
ATOM     30  C   UNL     1       4.949   0.868  23.376  0.00  0.00    +0.339 C 
BRANCH  30   3
ATOM      3  O   UNL     1       5.748  -0.225  23.173  0.00  0.00    -0.461 OA
BRANCH   3  31
ATOM     31  C   UNL     1       5.819  -1.180  24.237  0.00  0.00    +0.229 C 
ATOM     32  C   UNL     1       4.707  -2.193  24.065  0.00  0.00    +0.048 C 
ENDBRANCH   3  31
ENDBRANCH  30   3
ENDBRANCH  24  30
ENDBRANCH   6  18
BRANCH   9  13
ATOM     13  C   UNL     1      -2.463   1.840  26.144  0.00  0.00    +0.002 C 
ATOM     15  C   UNL     1      -0.983   1.519  26.172  0.00  0.00    +0.004 C 
ENDBRANCH   9  13
BRANCH   8  14
ATOM     14  C   UNL     1      -5.238   3.106  26.145  0.00  0.00    +0.100 C 
BRANCH  14  17
ATOM      2  O   UNL     1      -6.421   1.054  26.582  0.00  0.00    -0.275 OA
ATOM      7  N   UNL     1      -4.397   1.003  25.392  0.00  0.00    -0.285 N 
ATOM     17  C   UNL     1      -5.446   1.604  26.080  0.00  0.00    +0.217 C 
ATOM     34  H   UNL     1      -3.662   1.606  25.029  0.00  0.00    +0.155 HD
BRANCH   7  19
ATOM     19  C   UNL     1      -4.222  -0.375  25.118  0.00  0.00    +0.033 A 
ATOM     22  C   UNL     1      -3.540  -1.165  26.029  0.00  0.00    +0.023 A 
ATOM     23  C   UNL     1      -4.737  -0.904  23.946  0.00  0.00    +0.023 A 
ATOM     26  C   UNL     1      -3.367  -2.522  25.759  0.00  0.00    +0.002 A 
ATOM     27  C   UNL     1      -4.563  -2.261  23.676  0.00  0.00    +0.002 A 
ATOM     29  C   UNL     1      -3.879  -3.071  24.583  0.00  0.00    +0.000 A 
ENDBRANCH   7  19
ENDBRANCH  14  17
ENDBRANCH   8  14
TORSDOF 8
ENDMDL
MODEL 4
REMARK VINA RESULT:       5.3      1.222      1.776
REMARK  Name = 11912407
REMARK  10 active torsions:
REMARK  status: ('A' for Active; 'I' for Inactive)
REMARK    1  A    between atoms: O_3  and  C_30
REMARK    2  A    between atoms: O_3  and  C_31
REMARK    3  A    between atoms: N_6  and  C_18
REMARK    4  A    between atoms: N_7  and  C_19
REMARK    5  A    between atoms: C_8  and  C_14
REMARK    6  A    between atoms: C_9  and  C_13
REMARK    7  A    between atoms: C_13  and  C_15
REMARK    8  A    between atoms: C_14  and  C_17
REMARK    9  A    between atoms: C_24  and  C_30
REMARK   10  A    between atoms: C_31  and  C_32
REMARK                            x       y       z     vdW  Elec       q    Type
REMARK                         _______ _______ _______ _____ _____    ______ ____
ROOT
ATOM      1  O   UNL     1      -0.870  -0.934  26.532  0.00  0.00    -0.252 OA
ATOM      5  N   UNL     1      -2.791  -0.905  25.246  0.00  0.00    -0.285 N 
ATOM      6  N   UNL     1      -0.679  -1.185  24.233  0.00  0.00    -0.269 N 
ATOM      8  C   UNL     1      -5.259   0.567  24.912  0.00  0.00    +0.004 C 
ATOM      9  C   UNL     1      -4.334   0.269  23.702  0.00  0.00    +0.010 C 
ATOM     10  C   UNL     1      -4.479   0.579  26.239  0.00  0.00    +0.023 C 
ATOM     11  C   UNL     1      -3.526  -1.011  23.977  0.00  0.00    +0.113 C 
ATOM     12  C   UNL     1      -3.648  -0.691  26.413  0.00  0.00    +0.109 C 
ATOM     16  C   UNL     1      -1.394  -1.015  25.418  0.00  0.00    +0.306 C 
ATOM     33  H   UNL     1      -1.174  -1.274  23.359  0.00  0.00    +0.156 HD
ENDROOT
BRANCH   6  18
ATOM     18  C   UNL     1       0.729  -1.221  24.077  0.00  0.00    +0.036 A 
ATOM     20  C   UNL     1       1.388  -0.148  23.485  0.00  0.00    +0.038 A 
ATOM     21  C   UNL     1       1.445  -2.330  24.520  0.00  0.00    +0.023 A 
ATOM     24  C   UNL     1       2.774  -0.183  23.332  0.00  0.00    +0.061 A 
ATOM     25  C   UNL     1       2.831  -2.365  24.367  0.00  0.00    +0.003 A 
ATOM     28  C   UNL     1       3.496  -1.292  23.774  0.00  0.00    +0.015 A 
BRANCH  24  30
ATOM      4  O   UNL     1       3.040   2.098  22.689  0.00  0.00    -0.245 OA
ATOM     30  C   UNL     1       3.467   0.936  22.712  0.00  0.00    +0.339 C 
BRANCH  30   3
ATOM      3  O   UNL     1       4.654   0.546  22.156  0.00  0.00    -0.461 OA
BRANCH   3  31
ATOM     31  C   UNL     1       5.569  -0.153  23.008  0.00  0.00    +0.229 C 
ATOM     32  C   UNL     1       5.991   0.765  24.135  0.00  0.00    +0.048 C 
ENDBRANCH   3  31
ENDBRANCH  30   3
ENDBRANCH  24  30
ENDBRANCH   6  18
BRANCH   9  13
ATOM     13  C   UNL     1      -3.399   1.424  23.330  0.00  0.00    +0.002 C 
ATOM     15  C   UNL     1      -2.389   0.998  22.285  0.00  0.00    +0.004 C 
ENDBRANCH   9  13
BRANCH   8  14
ATOM     14  C   UNL     1      -6.064   1.855  24.747  0.00  0.00    +0.100 C 
BRANCH  14  17
ATOM      2  O   UNL     1      -5.747   4.061  25.660  0.00  0.00    -0.275 OA
ATOM      7  N   UNL     1      -3.938   2.937  24.670  0.00  0.00    -0.285 N 
ATOM     17  C   UNL     1      -5.255   3.092  25.091  0.00  0.00    +0.217 C 
ATOM     34  H   UNL     1      -3.687   2.061  24.216  0.00  0.00    +0.155 HD
BRANCH   7  19
ATOM     19  C   UNL     1      -2.875   3.861  24.806  0.00  0.00    +0.033 A 
ATOM     22  C   UNL     1      -1.575   3.389  24.897  0.00  0.00    +0.023 A 
ATOM     23  C   UNL     1      -3.154   5.216  24.844  0.00  0.00    +0.023 A 
ATOM     26  C   UNL     1      -0.527   4.299  25.032  0.00  0.00    +0.002 A 
ATOM     27  C   UNL     1      -2.106   6.126  24.979  0.00  0.00    +0.002 A 
ATOM     29  C   UNL     1      -0.792   5.667  25.072  0.00  0.00    +0.000 A 
ENDBRANCH   7  19
ENDBRANCH  14  17
ENDBRANCH   8  14
TORSDOF 8
ENDMDL
