MODEL 1
REMARK VINA RESULT:       9.3      0.000      0.000
REMARK  Name = 71693460
REMARK  8 active torsions:
REMARK  status: ('A' for Active; 'I' for Inactive)
REMARK    1  A    between atoms: O_5  and  C_13
REMARK    2  A    between atoms: N_8  and  C_15
REMARK    3  A    between atoms: N_9  and  C_23
REMARK    4  A    between atoms: C_11  and  C_13
REMARK    5  A    between atoms: C_12  and  C_14
REMARK    6  A    between atoms: C_15  and  C_18
REMARK    7  A    between atoms: C_28  and  C_29
REMARK    8  A    between atoms: C_32  and  C_35
REMARK                            x       y       z     vdW  Elec       q    Type
REMARK                         _______ _______ _______ _____ _____    ______ ____
ROOT
ATOM     14  C   UNL     1      -3.288   0.185  24.669  0.00  0.00    -0.017 A 
ATOM     19  C   UNL     1      -2.609   1.209  24.008  0.00  0.00    +0.008 A 
ATOM     20  C   UNL     1      -2.585  -0.921  25.146  0.00  0.00    +0.008 A 
ATOM     21  C   UNL     1      -1.228   1.126  23.825  0.00  0.00    +0.023 A 
ATOM     22  C   UNL     1      -1.206  -1.004  24.964  0.00  0.00    +0.023 A 
ATOM     23  C   UNL     1      -0.526   0.019  24.304  0.00  0.00    +0.034 A 
ENDROOT
BRANCH  14  12
ATOM      4  O   UNL     1      -5.056  -0.093  26.225  0.00  0.00    -0.361 OA
ATOM      6  O   UNL     1      -6.580   2.542  27.790  0.00  0.00    -0.273 OA
ATOM      8  N   UNL     1      -5.609   2.498  25.668  0.00  0.00    -0.287 N 
ATOM     11  C   UNL     1      -5.322   1.680  24.483  0.00  0.00    +0.135 C 
ATOM     12  C   UNL     1      -4.789   0.275  24.868  0.00  0.00    +0.171 C 
ATOM     16  C   UNL     1      -6.174   1.928  26.805  0.00  0.00    +0.242 C 
ATOM     17  C   UNL     1      -6.273   0.423  26.726  0.00  0.00    +0.256 C 
BRANCH  11  13
ATOM     13  C   UNL     1      -6.562   1.576  23.585  0.00  0.00    +0.181 C 
BRANCH  13   5
ATOM      5  O   UNL     1      -7.695   1.923  24.354  0.00  0.00    -0.393 OA
ATOM     36  H   UNL     1      -7.404   2.565  25.024  0.00  0.00    +0.209 HD
ENDBRANCH  13   5
ENDBRANCH  11  13
BRANCH   8  15
ATOM     15  C   UNL     1      -5.411   3.937  25.570  0.00  0.00    +0.143 C 
BRANCH  15  18
ATOM     10  N   UNL     1      -1.270   4.958  25.056  0.00  0.00    -0.263 NA
ATOM     18  C   UNL     1      -3.964   4.294  25.391  0.00  0.00    -0.027 A 
ATOM     24  C   UNL     1      -3.555   5.007  24.269  0.00  0.00    +0.025 A 
ATOM     25  C   UNL     1      -3.028   3.912  26.345  0.00  0.00    +0.025 A 
ATOM     26  C   UNL     1      -2.208   5.312  24.151  0.00  0.00    +0.111 A 
ATOM     27  C   UNL     1      -1.705   4.266  26.133  0.00  0.00    +0.111 A 
ENDBRANCH  15  18
ENDBRANCH   8  15
ENDBRANCH  14  12
BRANCH  23   9
ATOM      7  O   UNL     1       1.079  -0.344  21.798  0.00  0.00    -0.270 OA
ATOM      9  N   UNL     1       0.855  -0.062  24.121  0.00  0.00    -0.282 N 
ATOM     28  C   UNL     1       1.558  -0.234  22.921  0.00  0.00    +0.248 C 
ATOM     37  H   UNL     1       1.387   0.062  24.977  0.00  0.00    +0.155 HD
BRANCH  28  29
ATOM     29  C   UNL     1       3.038  -0.254  23.048  0.00  0.00    +0.037 A 
ATOM     30  C   UNL     1       3.673  -1.351  23.630  0.00  0.00    +0.013 A 
ATOM     31  C   UNL     1       3.792   0.824  22.586  0.00  0.00    +0.013 A 
ATOM     32  C   UNL     1       5.817  -0.291  23.288  0.00  0.00    +0.055 A 
ATOM     33  C   UNL     1       5.063  -1.369  23.750  0.00  0.00    +0.013 A 
ATOM     34  C   UNL     1       5.182   0.807  22.707  0.00  0.00    +0.013 A 
BRANCH  32  35
ATOM      1  F   UNL     1       7.870   0.932  23.415  0.00  0.00    -0.166 F 
ATOM      2  F   UNL     1       7.930  -0.990  22.412  0.00  0.00    -0.166 F 
ATOM      3  F   UNL     1       7.722  -0.901  24.575  0.00  0.00    -0.166 F 
ATOM     35  C   UNL     1       7.303  -0.311  23.418  0.00  0.00    +0.417 C 
ENDBRANCH  32  35
ENDBRANCH  28  29
ENDBRANCH  23   9
TORSDOF 8
ENDMDL
MODEL 2
REMARK VINA RESULT:       9.9      1.793      3.712
REMARK  Name = 71693460
REMARK  8 active torsions:
REMARK  status: ('A' for Active; 'I' for Inactive)
REMARK    1  A    between atoms: O_5  and  C_13
REMARK    2  A    between atoms: N_8  and  C_15
REMARK    3  A    between atoms: N_9  and  C_23
REMARK    4  A    between atoms: C_11  and  C_13
REMARK    5  A    between atoms: C_12  and  C_14
REMARK    6  A    between atoms: C_15  and  C_18
REMARK    7  A    between atoms: C_28  and  C_29
REMARK    8  A    between atoms: C_32  and  C_35
REMARK                            x       y       z     vdW  Elec       q    Type
REMARK                         _______ _______ _______ _____ _____    ______ ____
ROOT
ATOM     14  C   UNL     1      -1.685   2.878  24.377  0.00  0.00    -0.017 A 
ATOM     19  C   UNL     1      -0.621   3.761  24.556  0.00  0.00    +0.008 A 
ATOM     20  C   UNL     1      -1.438   1.551  24.025  0.00  0.00    +0.008 A 
ATOM     21  C   UNL     1       0.691   3.317  24.383  0.00  0.00    +0.023 A 
ATOM     22  C   UNL     1      -0.128   1.107  23.853  0.00  0.00    +0.023 A 
ATOM     23  C   UNL     1       0.937   1.989  24.031  0.00  0.00    +0.034 A 
ENDROOT
BRANCH  14  12
ATOM      4  O   UNL     1      -3.762   3.257  23.296  0.00  0.00    -0.361 OA
ATOM      6  O   UNL     1      -6.429   1.135  23.607  0.00  0.00    -0.273 OA
ATOM      8  N   UNL     1      -4.751   1.573  25.170  0.00  0.00    -0.287 N 
ATOM     11  C   UNL     1      -3.822   2.577  25.701  0.00  0.00    +0.135 C 
ATOM     12  C   UNL     1      -3.111   3.360  24.566  0.00  0.00    +0.171 C 
ATOM     16  C   UNL     1      -5.526   1.846  24.046  0.00  0.00    +0.242 C 
ATOM     17  C   UNL     1      -5.169   3.156  23.384  0.00  0.00    +0.256 C 
BRANCH  11  13
ATOM     13  C   UNL     1      -4.545   3.528  26.663  0.00  0.00    +0.181 C 
BRANCH  13   5
ATOM      5  O   UNL     1      -5.932   3.272  26.579  0.00  0.00    -0.393 OA
ATOM     36  H   UNL     1      -6.310   3.928  25.968  0.00  0.00    +0.209 HD
ENDBRANCH  13   5
ENDBRANCH  11  13
BRANCH   8  15
ATOM     15  C   UNL     1      -4.936   0.344  25.927  0.00  0.00    +0.143 C 
BRANCH  15  18
ATOM     10  N   UNL     1      -2.303  -2.778  24.594  0.00  0.00    -0.263 NA
ATOM     18  C   UNL     1      -4.016  -0.747  25.461  0.00  0.00    -0.027 A 
ATOM     24  C   UNL     1      -4.401  -1.588  24.422  0.00  0.00    +0.025 A 
ATOM     25  C   UNL     1      -2.777  -0.921  26.066  0.00  0.00    +0.025 A 
ATOM     26  C   UNL     1      -3.515  -2.580  24.030  0.00  0.00    +0.111 A 
ATOM     27  C   UNL     1      -1.964  -1.941  25.600  0.00  0.00    +0.111 A 
ENDBRANCH  15  18
ENDBRANCH   8  15
ENDBRANCH  14  12
BRANCH  23   9
ATOM      7  O   UNL     1       2.036  -0.173  22.269  0.00  0.00    -0.270 OA
ATOM      9  N   UNL     1       2.249   1.546  23.859  0.00  0.00    -0.282 N 
ATOM     28  C   UNL     1       2.711   0.525  23.018  0.00  0.00    +0.248 C 
ATOM     37  H   UNL     1       2.932   2.075  24.393  0.00  0.00    +0.155 HD
BRANCH  28  29
ATOM     29  C   UNL     1       4.181   0.304  23.034  0.00  0.00    +0.037 A 
ATOM     30  C   UNL     1       4.819  -0.226  21.913  0.00  0.00    +0.013 A 
ATOM     31  C   UNL     1       4.921   0.625  24.171  0.00  0.00    +0.013 A 
ATOM     32  C   UNL     1       6.939  -0.113  23.065  0.00  0.00    +0.055 A 
ATOM     33  C   UNL     1       6.198  -0.434  21.928  0.00  0.00    +0.013 A 
ATOM     34  C   UNL     1       6.301   0.416  24.188  0.00  0.00    +0.013 A 
BRANCH  32  35
ATOM      1  F   UNL     1       8.911  -0.618  24.322  0.00  0.00    -0.166 F 
ATOM      2  F   UNL     1       9.134   0.738  22.644  0.00  0.00    -0.166 F 
ATOM      3  F   UNL     1       8.795  -1.381  22.290  0.00  0.00    -0.166 F 
ATOM     35  C   UNL     1       8.414  -0.337  23.082  0.00  0.00    +0.417 C 
ENDBRANCH  32  35
ENDBRANCH  28  29
ENDBRANCH  23   9
TORSDOF 8
ENDMDL
