MODEL 1
REMARK VINA RESULT:      -2.8      0.000      0.000
REMARK  Name = 56774407
REMARK  3 active torsions:
REMARK  status: ('A' for Active; 'I' for Inactive)
REMARK    1  A    between atoms: N_1  and  C_5
REMARK    2  A    between atoms: N_2  and  C_15
REMARK    3  A    between atoms: C_6  and  C_14
REMARK                            x       y       z     vdW  Elec       q    Type
REMARK                         _______ _______ _______ _____ _____    ______ ____
ROOT
ATOM      1  N   UNL     1      -2.513   0.297  24.291  0.00  0.00    -0.299 NA
ATOM      6  C   UNL     1      -0.544  -0.487  23.288  0.00  0.00    +0.070 C 
ATOM      7  C   UNL     1      -1.299   0.800  23.645  0.00  0.00    +0.096 C 
ATOM      8  C   UNL     1      -2.056  -0.781  25.167  0.00  0.00    +0.085 C 
ATOM      9  C   UNL     1      -1.065  -1.534  24.288  0.00  0.00    +0.028 C 
ENDROOT
BRANCH   6  14
ATOM      3  N   UNL     1       1.792  -1.290  23.734  0.00  0.00    -0.342 N 
ATOM      4  N   UNL     1       1.620   0.747  22.861  0.00  0.00    -0.232 NA
ATOM     14  C   UNL     1       0.957  -0.308  23.280  0.00  0.00    +0.113 A 
ATOM     16  C   UNL     1       3.080  -0.839  23.601  0.00  0.00    +0.066 A 
ATOM     17  C   UNL     1       2.946   0.434  23.054  0.00  0.00    +0.089 A 
ATOM     18  C   UNL     1       4.314  -1.417  23.902  0.00  0.00    +0.028 A 
ATOM     19  C   UNL     1       4.100   1.189  22.785  0.00  0.00    +0.030 A 
ATOM     20  C   UNL     1       5.451  -0.652  23.628  0.00  0.00    +0.002 A 
ATOM     21  C   UNL     1       5.349   0.628  23.080  0.00  0.00    +0.002 A 
ATOM     22  H   UNL     1       1.513  -2.189  24.104  0.00  0.00    +0.167 HD
ENDBRANCH   6  14
BRANCH   1   5
ATOM      2  N   UNL     1      -5.143   3.554  25.026  0.00  0.00    -0.305 NA
ATOM      5  C   UNL     1      -3.229   1.341  25.021  0.00  0.00    +0.059 C 
ATOM     10  C   UNL     1      -4.740   1.114  24.926  0.00  0.00    +0.034 C 
ATOM     11  C   UNL     1      -2.873   2.730  24.481  0.00  0.00    +0.034 C 
ATOM     12  C   UNL     1      -5.509   2.252  25.601  0.00  0.00    +0.085 C 
ATOM     13  C   UNL     1      -3.705   3.816  25.171  0.00  0.00    +0.085 C 
ATOM     15  C   UNL     1      -5.923   4.625  25.646  0.00  0.00    +0.104 C 
ENDBRANCH   1   5
TORSDOF 2
ENDMDL
MODEL 2
REMARK VINA RESULT:       1.1      1.272      8.001
REMARK  Name = 56774407
REMARK  3 active torsions:
REMARK  status: ('A' for Active; 'I' for Inactive)
REMARK    1  A    between atoms: N_1  and  C_5
REMARK    2  A    between atoms: N_2  and  C_15
REMARK    3  A    between atoms: C_6  and  C_14
REMARK                            x       y       z     vdW  Elec       q    Type
REMARK                         _______ _______ _______ _____ _____    ______ ____
ROOT
ATOM      1  N   UNL     1       1.370  -0.669  23.325  0.00  0.00    -0.299 NA
ATOM      6  C   UNL     1      -0.939  -0.359  23.597  0.00  0.00    +0.070 C 
ATOM      7  C   UNL     1       0.398  -0.263  24.343  0.00  0.00    +0.096 C 
ATOM      8  C   UNL     1       0.941   0.008  22.102  0.00  0.00    +0.085 C 
ATOM      9  C   UNL     1      -0.568  -0.198  22.112  0.00  0.00    +0.028 C 
ENDROOT
BRANCH   6  14
ATOM      3  N   UNL     1      -3.268   0.247  24.310  0.00  0.00    -0.342 N 
ATOM      4  N   UNL     1      -1.771   1.888  24.400  0.00  0.00    -0.232 NA
ATOM     14  C   UNL     1      -1.970   0.622  24.105  0.00  0.00    +0.113 A 
ATOM     16  C   UNL     1      -3.954   1.342  24.768  0.00  0.00    +0.066 A 
ATOM     17  C   UNL     1      -2.998   2.354  24.815  0.00  0.00    +0.089 A 
ATOM     18  C   UNL     1      -5.287   1.530  25.132  0.00  0.00    +0.028 A 
ATOM     19  C   UNL     1      -3.378   3.635  25.250  0.00  0.00    +0.030 A 
ATOM     20  C   UNL     1      -5.647   2.811  25.563  0.00  0.00    +0.002 A 
ATOM     21  C   UNL     1      -4.712   3.846  25.622  0.00  0.00    +0.002 A 
ATOM     22  H   UNL     1      -3.657  -0.674  24.153  0.00  0.00    +0.167 HD
ENDBRANCH   6  14
BRANCH   1   5
ATOM      2  N   UNL     1       5.593  -0.290  23.043  0.00  0.00    -0.305 NA
ATOM      5  C   UNL     1       2.742  -0.331  23.697  0.00  0.00    +0.059 C 
ATOM     10  C   UNL     1       3.335   0.659  22.691  0.00  0.00    +0.034 C 
ATOM     11  C   UNL     1       3.615  -1.587  23.772  0.00  0.00    +0.034 C 
ATOM     12  C   UNL     1       4.804   0.949  23.008  0.00  0.00    +0.085 C 
ATOM     13  C   UNL     1       5.076  -1.223  24.053  0.00  0.00    +0.085 C 
ATOM     15  C   UNL     1       7.003   0.008  23.297  0.00  0.00    +0.104 C 
ENDBRANCH   1   5
TORSDOF 2
ENDMDL
