MODEL 1
REMARK VINA RESULT:      -1.7      0.000      0.000
REMARK  Name = 11942956
REMARK  9 active torsions:
REMARK  status: ('A' for Active; 'I' for Inactive)
REMARK    1  A    between atoms: O_2  and  C_18
REMARK    2  A    between atoms: O_3  and  C_27
REMARK    3  A    between atoms: O_3  and  C_32
REMARK    4  A    between atoms: N_5  and  C_16
REMARK    5  A    between atoms: N_6  and  C_25
REMARK    6  A    between atoms: C_10  and  C_16
REMARK    7  A    between atoms: C_11  and  C_17
REMARK    8  A    between atoms: C_18  and  C_21
REMARK    9  A    between atoms: C_25  and  C_26
REMARK                            x       y       z     vdW  Elec       q    Type
REMARK                         _______ _______ _______ _____ _____    ______ ____
ROOT
ATOM      4  N   UNL     1      -0.691   3.280  25.213  0.00  0.00    -0.297 NA
ATOM      9  C   UNL     1      -2.873   4.306  24.236  0.00  0.00    +0.005 C 
ATOM     10  C   UNL     1      -0.976   2.689  23.878  0.00  0.00    +0.078 C 
ATOM     11  C   UNL     1      -3.102   3.764  25.660  0.00  0.00    +0.092 C 
ATOM     12  C   UNL     1      -2.344   3.166  23.343  0.00  0.00    +0.025 C 
ATOM     13  C   UNL     1      -1.761   5.364  24.336  0.00  0.00    +0.020 C 
ATOM     14  C   UNL     1      -1.829   3.041  26.135  0.00  0.00    +0.097 C 
ATOM     15  C   UNL     1      -0.538   4.747  25.038  0.00  0.00    +0.085 C 
ENDROOT
BRANCH  11  17
ATOM      1  O   UNL     1      -5.396   3.275  26.100  0.00  0.00    -0.275 OA
ATOM      6  N   UNL     1      -4.014   1.578  25.308  0.00  0.00    -0.311 N 
ATOM     17  C   UNL     1      -4.303   2.869  25.714  0.00  0.00    +0.218 C 
ATOM     33  H   UNL     1      -3.087   1.354  24.961  0.00  0.00    +0.149 HD
BRANCH   6  25
ATOM     25  C   UNL     1      -4.995   0.517  25.289  0.00  0.00    +0.143 C 
BRANCH  25  26
ATOM     26  C   UNL     1      -4.401  -0.790  24.852  0.00  0.00    +0.011 A 
ATOM     27  C   UNL     1      -3.231  -1.274  25.440  0.00  0.00    +0.125 A 
ATOM     28  C   UNL     1      -5.031  -1.523  23.846  0.00  0.00    +0.009 A 
ATOM     29  C   UNL     1      -2.693  -2.491  25.022  0.00  0.00    +0.046 A 
ATOM     30  C   UNL     1      -4.491  -2.740  23.428  0.00  0.00    +0.001 A 
ATOM     31  C   UNL     1      -3.322  -3.224  24.016  0.00  0.00    +0.004 A 
BRANCH  27   3
ATOM      3  O   UNL     1      -2.603  -0.570  26.423  0.00  0.00    -0.495 OA
ATOM     32  C   UNL     1      -1.178  -0.606  26.435  0.00  0.00    +0.277 C 
ENDBRANCH  27   3
ENDBRANCH  25  26
ENDBRANCH   6  25
ENDBRANCH  11  17
BRANCH  10  16
ATOM     16  C   UNL     1      -0.867   1.164  23.882  0.00  0.00    +0.164 C 
BRANCH  16   5
ATOM      5  N   UNL     1       0.394   0.710  23.317  0.00  0.00    -0.250 N 
ATOM      7  N   UNL     1       0.462   0.011  22.190  0.00  0.00    -0.065 NA
ATOM      8  N   UNL     1       1.759  -0.242  21.954  0.00  0.00    -0.132 NA
ATOM     21  C   UNL     1       2.556   0.287  22.921  0.00  0.00    +0.114 A 
ATOM     22  C   UNL     1       1.669   0.888  23.778  0.00  0.00    +0.136 A 
BRANCH  21  18
ATOM     18  C   UNL     1       4.067   0.170  22.935  0.00  0.00    +0.111 C 
ATOM     19  C   UNL     1       4.575  -1.144  23.556  0.00  0.00    +0.041 C 
ATOM     20  C   UNL     1       4.815   1.200  23.796  0.00  0.00    +0.041 C 
ATOM     23  C   UNL     1       6.039  -0.893  23.921  0.00  0.00    +0.003 C 
ATOM     24  C   UNL     1       6.215   0.620  23.963  0.00  0.00    +0.003 C 
BRANCH  18   2
ATOM      2  O   UNL     1       4.576   0.245  21.597  0.00  0.00    -0.382 OA
ATOM     34  H   UNL     1       5.458   0.656  21.639  0.00  0.00    +0.211 HD
ENDBRANCH  18   2
ENDBRANCH  21  18
ENDBRANCH  16   5
ENDBRANCH  10  16
TORSDOF 8
ENDMDL
MODEL 2
REMARK VINA RESULT:      -1.2      1.364      2.151
REMARK  Name = 11942956
REMARK  9 active torsions:
REMARK  status: ('A' for Active; 'I' for Inactive)
REMARK    1  A    between atoms: O_2  and  C_18
REMARK    2  A    between atoms: O_3  and  C_27
REMARK    3  A    between atoms: O_3  and  C_32
REMARK    4  A    between atoms: N_5  and  C_16
REMARK    5  A    between atoms: N_6  and  C_25
REMARK    6  A    between atoms: C_10  and  C_16
REMARK    7  A    between atoms: C_11  and  C_17
REMARK    8  A    between atoms: C_18  and  C_21
REMARK    9  A    between atoms: C_25  and  C_26
REMARK                            x       y       z     vdW  Elec       q    Type
REMARK                         _______ _______ _______ _____ _____    ______ ____
ROOT
ATOM      4  N   UNL     1      -2.369   4.497  25.621  0.00  0.00    -0.297 NA
ATOM      9  C   UNL     1      -3.963   3.798  23.687  0.00  0.00    +0.005 C 
ATOM     10  C   UNL     1      -1.665   3.574  24.691  0.00  0.00    +0.078 C 
ATOM     11  C   UNL     1      -4.617   3.559  25.062  0.00  0.00    +0.092 C 
ATOM     12  C   UNL     1      -2.632   3.023  23.621  0.00  0.00    +0.025 C 
ATOM     13  C   UNL     1      -3.625   5.298  23.611  0.00  0.00    +0.020 C 
ATOM     14  C   UNL     1      -3.586   3.848  26.168  0.00  0.00    +0.097 C 
ATOM     15  C   UNL     1      -2.791   5.691  24.844  0.00  0.00    +0.085 C 
ENDROOT
BRANCH  11  17
ATOM      1  O   UNL     1      -6.373   1.943  25.083  0.00  0.00    -0.275 OA
ATOM      6  N   UNL     1      -4.179   1.226  25.380  0.00  0.00    -0.311 N 
ATOM     17  C   UNL     1      -5.169   2.169  25.165  0.00  0.00    +0.218 C 
ATOM     33  H   UNL     1      -3.204   1.510  25.386  0.00  0.00    +0.149 HD
BRANCH   6  25
ATOM     25  C   UNL     1      -4.451  -0.185  25.537  0.00  0.00    +0.143 C 
BRANCH  25  26
ATOM     26  C   UNL     1      -3.225  -1.022  25.316  0.00  0.00    +0.011 A 
ATOM     27  C   UNL     1      -3.198  -1.998  24.320  0.00  0.00    +0.125 A 
ATOM     28  C   UNL     1      -2.105  -0.814  26.121  0.00  0.00    +0.009 A 
ATOM     29  C   UNL     1      -2.050  -2.766  24.128  0.00  0.00    +0.046 A 
ATOM     30  C   UNL     1      -0.957  -1.584  25.929  0.00  0.00    +0.001 A 
ATOM     31  C   UNL     1      -0.929  -2.560  24.933  0.00  0.00    +0.004 A 
BRANCH  27   3
ATOM      3  O   UNL     1      -4.284  -2.213  23.525  0.00  0.00    -0.495 OA
ATOM     32  C   UNL     1      -4.690  -3.567  23.338  0.00  0.00    +0.277 C 
ENDBRANCH  27   3
ENDBRANCH  25  26
ENDBRANCH   6  25
ENDBRANCH  11  17
BRANCH  10  16
ATOM     16  C   UNL     1      -0.935   2.450  25.429  0.00  0.00    +0.164 C 
BRANCH  16   5
ATOM      5  N   UNL     1      -0.114   1.656  24.530  0.00  0.00    -0.250 N 
ATOM      7  N   UNL     1      -0.635   0.861  23.602  0.00  0.00    -0.065 NA
ATOM      8  N   UNL     1       0.387   0.282  22.952  0.00  0.00    -0.132 NA
ATOM     21  C   UNL     1       1.589   0.690  23.444  0.00  0.00    +0.114 A 
ATOM     22  C   UNL     1       1.247   1.563  24.446  0.00  0.00    +0.136 A 
BRANCH  21  18
ATOM     18  C   UNL     1       2.927   0.214  22.918  0.00  0.00    +0.111 C 
ATOM     19  C   UNL     1       3.416  -1.091  23.574  0.00  0.00    +0.041 C 
ATOM     20  C   UNL     1       4.125   1.137  23.192  0.00  0.00    +0.041 C 
ATOM     23  C   UNL     1       4.920  -1.155  23.303  0.00  0.00    +0.003 C 
ATOM     24  C   UNL     1       5.350   0.263  22.946  0.00  0.00    +0.003 C 
BRANCH  18   2
ATOM      2  O   UNL     1       2.847  -0.013  21.505  0.00  0.00    -0.382 OA
ATOM     34  H   UNL     1       3.380   0.672  21.065  0.00  0.00    +0.211 HD
ENDBRANCH  18   2
ENDBRANCH  21  18
ENDBRANCH  16   5
ENDBRANCH  10  16
TORSDOF 8
ENDMDL
MODEL 3
REMARK VINA RESULT:      -0.9      1.257      4.404
REMARK  Name = 11942956
REMARK  9 active torsions:
REMARK  status: ('A' for Active; 'I' for Inactive)
REMARK    1  A    between atoms: O_2  and  C_18
REMARK    2  A    between atoms: O_3  and  C_27
REMARK    3  A    between atoms: O_3  and  C_32
REMARK    4  A    between atoms: N_5  and  C_16
REMARK    5  A    between atoms: N_6  and  C_25
REMARK    6  A    between atoms: C_10  and  C_16
REMARK    7  A    between atoms: C_11  and  C_17
REMARK    8  A    between atoms: C_18  and  C_21
REMARK    9  A    between atoms: C_25  and  C_26
REMARK                            x       y       z     vdW  Elec       q    Type
REMARK                         _______ _______ _______ _____ _____    ______ ____
ROOT
ATOM      4  N   UNL     1      -2.813  -1.168  23.508  0.00  0.00    -0.297 NA
ATOM      9  C   UNL     1      -3.620  -0.926  25.969  0.00  0.00    +0.005 C 
ATOM     10  C   UNL     1      -1.725  -0.596  24.344  0.00  0.00    +0.078 C 
ATOM     11  C   UNL     1      -4.609  -0.263  24.991  0.00  0.00    +0.092 C 
ATOM     12  C   UNL     1      -2.225  -0.299  25.775  0.00  0.00    +0.025 C 
ATOM     13  C   UNL     1      -3.518  -2.407  25.563  0.00  0.00    +0.020 C 
ATOM     14  C   UNL     1      -4.019  -0.305  23.570  0.00  0.00    +0.097 C 
ATOM     15  C   UNL     1      -3.166  -2.498  24.067  0.00  0.00    +0.085 C 
ENDROOT
BRANCH  11  17
ATOM      1  O   UNL     1      -6.098   1.523  25.528  0.00  0.00    -0.275 OA
ATOM      6  N   UNL     1      -3.804   1.898  25.633  0.00  0.00    -0.311 N 
ATOM     17  C   UNL     1      -4.938   1.135  25.416  0.00  0.00    +0.218 C 
ATOM     33  H   UNL     1      -2.886   1.470  25.558  0.00  0.00    +0.149 HD
BRANCH   6  25
ATOM     25  C   UNL     1      -3.849   3.287  26.029  0.00  0.00    +0.143 C 
BRANCH  25  26
ATOM     26  C   UNL     1      -2.686   4.065  25.484  0.00  0.00    +0.011 A 
ATOM     27  C   UNL     1      -1.379   3.606  25.651  0.00  0.00    +0.125 A 
ATOM     28  C   UNL     1      -2.924   5.259  24.804  0.00  0.00    +0.009 A 
ATOM     29  C   UNL     1      -0.311   4.341  25.138  0.00  0.00    +0.046 A 
ATOM     30  C   UNL     1      -1.856   5.995  24.292  0.00  0.00    +0.001 A 
ATOM     31  C   UNL     1      -0.549   5.536  24.459  0.00  0.00    +0.004 A 
BRANCH  27   3
ATOM      3  O   UNL     1      -1.129   2.441  26.314  0.00  0.00    -0.495 OA
ATOM     32  C   UNL     1       0.194   2.249  26.808  0.00  0.00    +0.277 C 
ENDBRANCH  27   3
ENDBRANCH  25  26
ENDBRANCH   6  25
ENDBRANCH  11  17
BRANCH  10  16
ATOM     16  C   UNL     1      -1.081   0.634  23.701  0.00  0.00    +0.164 C 
BRANCH  16   5
ATOM      5  N   UNL     1       0.231   0.332  23.152  0.00  0.00    -0.250 N 
ATOM      7  N   UNL     1       0.395  -0.220  21.955  0.00  0.00    -0.065 NA
ATOM      8  N   UNL     1       1.715  -0.361  21.758  0.00  0.00    -0.132 NA
ATOM     21  C   UNL     1       2.433   0.097  22.820  0.00  0.00    +0.114 A 
ATOM     22  C   UNL     1       1.470   0.533  23.695  0.00  0.00    +0.136 A 
BRANCH  21  18
ATOM     18  C   UNL     1       3.945   0.074  22.896  0.00  0.00    +0.111 C 
ATOM     19  C   UNL     1       4.508  -1.207  23.538  0.00  0.00    +0.041 C 
ATOM     20  C   UNL     1       4.591   1.147  23.788  0.00  0.00    +0.041 C 
ATOM     23  C   UNL     1       5.938  -0.866  23.964  0.00  0.00    +0.003 C 
ATOM     24  C   UNL     1       6.017   0.655  24.013  0.00  0.00    +0.003 C 
BRANCH  18   2
ATOM      2  O   UNL     1       4.505   0.184  21.581  0.00  0.00    -0.382 OA
ATOM     34  H   UNL     1       5.462   0.332  21.678  0.00  0.00    +0.211 HD
ENDBRANCH  18   2
ENDBRANCH  21  18
ENDBRANCH  16   5
ENDBRANCH  10  16
TORSDOF 8
ENDMDL
MODEL 4
REMARK VINA RESULT:      -0.7      1.380      4.662
REMARK  Name = 11942956
REMARK  9 active torsions:
REMARK  status: ('A' for Active; 'I' for Inactive)
REMARK    1  A    between atoms: O_2  and  C_18
REMARK    2  A    between atoms: O_3  and  C_27
REMARK    3  A    between atoms: O_3  and  C_32
REMARK    4  A    between atoms: N_5  and  C_16
REMARK    5  A    between atoms: N_6  and  C_25
REMARK    6  A    between atoms: C_10  and  C_16
REMARK    7  A    between atoms: C_11  and  C_17
REMARK    8  A    between atoms: C_18  and  C_21
REMARK    9  A    between atoms: C_25  and  C_26
REMARK                            x       y       z     vdW  Elec       q    Type
REMARK                         _______ _______ _______ _____ _____    ______ ____
ROOT
ATOM      4  N   UNL     1      -2.802  -2.276  23.846  0.00  0.00    -0.297 NA
ATOM      9  C   UNL     1      -3.233  -1.093  26.123  0.00  0.00    +0.005 C 
ATOM     10  C   UNL     1      -1.648  -1.404  24.191  0.00  0.00    +0.078 C 
ATOM     11  C   UNL     1      -4.414  -0.885  25.155  0.00  0.00    +0.092 C 
ATOM     12  C   UNL     1      -1.942  -0.573  25.460  0.00  0.00    +0.025 C 
ATOM     13  C   UNL     1      -3.073  -2.612  26.311  0.00  0.00    +0.020 C 
ATOM     14  C   UNL     1      -4.051  -1.476  23.782  0.00  0.00    +0.097 C 
ATOM     15  C   UNL     1      -2.953  -3.281  24.929  0.00  0.00    +0.085 C 
ENDROOT
BRANCH  11  17
ATOM      1  O   UNL     1      -5.566   1.086  25.852  0.00  0.00    -0.275 OA
ATOM      6  N   UNL     1      -4.179   1.190  23.985  0.00  0.00    -0.311 N 
ATOM     17  C   UNL     1      -4.787   0.563  25.058  0.00  0.00    +0.218 C 
ATOM     33  H   UNL     1      -3.513   0.680  23.414  0.00  0.00    +0.149 HD
BRANCH   6  25
ATOM     25  C   UNL     1      -4.391   2.582  23.659  0.00  0.00    +0.143 C 
BRANCH  25  26
ATOM     26  C   UNL     1      -3.366   3.472  24.299  0.00  0.00    +0.011 A 
ATOM     27  C   UNL     1      -3.646   4.141  25.491  0.00  0.00    +0.125 A 
ATOM     28  C   UNL     1      -2.121   3.626  23.689  0.00  0.00    +0.009 A 
ATOM     29  C   UNL     1      -2.682   4.964  26.073  0.00  0.00    +0.046 A 
ATOM     30  C   UNL     1      -1.157   4.450  24.271  0.00  0.00    +0.001 A 
ATOM     31  C   UNL     1      -1.437   5.119  25.463  0.00  0.00    +0.004 A 
BRANCH  27   3
ATOM      3  O   UNL     1      -4.858   4.002  26.100  0.00  0.00    -0.495 OA
ATOM     32  C   UNL     1      -5.930   4.795  25.597  0.00  0.00    +0.277 C 
ENDBRANCH  27   3
ENDBRANCH  25  26
ENDBRANCH   6  25
ENDBRANCH  11  17
BRANCH  10  16
ATOM     16  C   UNL     1      -1.217  -0.519  23.020  0.00  0.00    +0.164 C 
BRANCH  16   5
ATOM      5  N   UNL     1       0.136  -0.016  23.193  0.00  0.00    -0.250 N 
ATOM      7  N   UNL     1       0.398   1.137  23.800  0.00  0.00    -0.065 NA
ATOM      8  N   UNL     1       1.730   1.299  23.791  0.00  0.00    -0.132 NA
ATOM     21  C   UNL     1       2.358   0.259  23.179  0.00  0.00    +0.114 A 
ATOM     22  C   UNL     1       1.326  -0.566  22.806  0.00  0.00    +0.136 A 
BRANCH  21  18
ATOM     18  C   UNL     1       3.860   0.154  23.010  0.00  0.00    +0.111 C 
ATOM     19  C   UNL     1       4.444  -1.173  23.529  0.00  0.00    +0.041 C 
ATOM     20  C   UNL     1       4.699   1.165  23.807  0.00  0.00    +0.041 C 
ATOM     23  C   UNL     1       5.940  -0.921  23.726  0.00  0.00    +0.003 C 
ATOM     24  C   UNL     1       6.112   0.593  23.791  0.00  0.00    +0.003 C 
BRANCH  18   2
ATOM      2  O   UNL     1       4.208   0.271  21.625  0.00  0.00    -0.382 OA
ATOM     34  H   UNL     1       3.397   0.135  21.104  0.00  0.00    +0.211 HD
ENDBRANCH  18   2
ENDBRANCH  21  18
ENDBRANCH  16   5
ENDBRANCH  10  16
TORSDOF 8
ENDMDL
MODEL 5
REMARK VINA RESULT:       0.7     16.571     19.262
REMARK  Name = 11942956
REMARK  9 active torsions:
REMARK  status: ('A' for Active; 'I' for Inactive)
REMARK    1  A    between atoms: O_2  and  C_18
REMARK    2  A    between atoms: O_3  and  C_27
REMARK    3  A    between atoms: O_3  and  C_32
REMARK    4  A    between atoms: N_5  and  C_16
REMARK    5  A    between atoms: N_6  and  C_25
REMARK    6  A    between atoms: C_10  and  C_16
REMARK    7  A    between atoms: C_11  and  C_17
REMARK    8  A    between atoms: C_18  and  C_21
REMARK    9  A    between atoms: C_25  and  C_26
REMARK                            x       y       z     vdW  Elec       q    Type
REMARK                         _______ _______ _______ _____ _____    ______ ____
ROOT
ATOM      4  N   UNL     1      11.652  -5.794  31.289  0.00  0.00    -0.297 NA
ATOM      9  C   UNL     1      12.981  -7.722  32.422  0.00  0.00    +0.005 C 
ATOM     10  C   UNL     1      12.143  -6.746  30.257  0.00  0.00    +0.078 C 
ATOM     11  C   UNL     1      13.506  -6.344  32.871  0.00  0.00    +0.092 C 
ATOM     12  C   UNL     1      13.063  -7.815  30.886  0.00  0.00    +0.025 C 
ATOM     13  C   UNL     1      11.492  -7.776  32.806  0.00  0.00    +0.020 C 
ATOM     14  C   UNL     1      12.790  -5.245  32.067  0.00  0.00    +0.097 C 
ATOM     15  C   UNL     1      10.774  -6.546  32.221  0.00  0.00    +0.085 C 
ENDROOT
BRANCH  11  17
ATOM      1  O   UNL     1      15.698  -7.263  32.657  0.00  0.00    -0.275 OA
ATOM      6  N   UNL     1      15.446  -4.950  32.711  0.00  0.00    -0.311 N 
ATOM     17  C   UNL     1      14.995  -6.258  32.728  0.00  0.00    +0.218 C 
ATOM     33  H   UNL     1      14.778  -4.186  32.728  0.00  0.00    +0.149 HD
BRANCH   6  25
ATOM     25  C   UNL     1      16.843  -4.597  32.604  0.00  0.00    +0.143 C 
BRANCH  25  26
ATOM     26  C   UNL     1      17.036  -3.254  31.962  0.00  0.00    +0.011 A 
ATOM     27  C   UNL     1      17.029  -3.118  30.573  0.00  0.00    +0.125 A 
ATOM     28  C   UNL     1      17.223  -2.132  32.771  0.00  0.00    +0.009 A 
ATOM     29  C   UNL     1      17.208  -1.862  29.995  0.00  0.00    +0.046 A 
ATOM     30  C   UNL     1      17.403  -0.877  32.192  0.00  0.00    +0.001 A 
ATOM     31  C   UNL     1      17.397  -0.741  30.803  0.00  0.00    +0.004 A 
BRANCH  27   3
ATOM      3  O   UNL     1      16.847  -4.203  29.769  0.00  0.00    -0.495 OA
ATOM     32  C   UNL     1      17.401  -4.135  28.457  0.00  0.00    +0.277 C 
ENDBRANCH  27   3
ENDBRANCH  25  26
ENDBRANCH   6  25
ENDBRANCH  11  17
BRANCH  10  16
ATOM     16  C   UNL     1      12.818  -6.035  29.083  0.00  0.00    +0.164 C 
BRANCH  16   5
ATOM      5  N   UNL     1      13.999  -6.749  28.625  0.00  0.00    -0.250 N 
ATOM      7  N   UNL     1      15.095  -6.866  29.366  0.00  0.00    -0.065 NA
ATOM      8  N   UNL     1      15.984  -7.576  28.654  0.00  0.00    -0.132 NA
ATOM     21  C   UNL     1      15.483  -7.934  27.440  0.00  0.00    +0.114 A 
ATOM     22  C   UNL     1      14.220  -7.398  27.442  0.00  0.00    +0.136 A 
BRANCH  21  18
ATOM     18  C   UNL     1      16.248  -8.740  26.411  0.00  0.00    +0.111 C 
ATOM     19  C   UNL     1      15.338  -9.497  25.426  0.00  0.00    +0.041 C 
ATOM     20  C   UNL     1      17.100  -9.897  26.959  0.00  0.00    +0.041 C 
ATOM     23  C   UNL     1      16.214 -10.589  24.806  0.00  0.00    +0.003 C 
ATOM     24  C   UNL     1      17.405 -10.762  25.741  0.00  0.00    +0.003 C 
BRANCH  18   2
ATOM      2  O   UNL     1      17.098  -7.877  25.644  0.00  0.00    -0.382 OA
ATOM     34  H   UNL     1      16.607  -7.611  24.847  0.00  0.00    +0.211 HD
ENDBRANCH  18   2
ENDBRANCH  21  18
ENDBRANCH  16   5
ENDBRANCH  10  16
TORSDOF 8
ENDMDL
MODEL 6
REMARK VINA RESULT:       1.8      1.793      4.805
REMARK  Name = 11942956
REMARK  9 active torsions:
REMARK  status: ('A' for Active; 'I' for Inactive)
REMARK    1  A    between atoms: O_2  and  C_18
REMARK    2  A    between atoms: O_3  and  C_27
REMARK    3  A    between atoms: O_3  and  C_32
REMARK    4  A    between atoms: N_5  and  C_16
REMARK    5  A    between atoms: N_6  and  C_25
REMARK    6  A    between atoms: C_10  and  C_16
REMARK    7  A    between atoms: C_11  and  C_17
REMARK    8  A    between atoms: C_18  and  C_21
REMARK    9  A    between atoms: C_25  and  C_26
REMARK                            x       y       z     vdW  Elec       q    Type
REMARK                         _______ _______ _______ _____ _____    ______ ____
ROOT
ATOM      4  N   UNL     1      -1.848  -2.120  24.334  0.00  0.00    -0.297 NA
ATOM      9  C   UNL     1      -4.419  -1.799  24.571  0.00  0.00    +0.005 C 
ATOM     10  C   UNL     1      -2.195  -1.832  25.751  0.00  0.00    +0.078 C 
ATOM     11  C   UNL     1      -3.846  -0.900  23.458  0.00  0.00    +0.092 C 
ATOM     12  C   UNL     1      -3.694  -1.486  25.895  0.00  0.00    +0.025 C 
ATOM     13  C   UNL     1      -4.075  -3.251  24.191  0.00  0.00    +0.020 C 
ATOM     14  C   UNL     1      -2.311  -1.017  23.456  0.00  0.00    +0.097 C 
ATOM     15  C   UNL     1      -2.561  -3.360  23.934  0.00  0.00    +0.085 C 
ENDROOT
BRANCH  11  17
ATOM      1  O   UNL     1      -5.337   0.805  24.209  0.00  0.00    -0.275 OA
ATOM      6  N   UNL     1      -3.427   1.418  23.028  0.00  0.00    -0.311 N 
ATOM     17  C   UNL     1      -4.296   0.519  23.623  0.00  0.00    +0.218 C 
ATOM     33  H   UNL     1      -2.566   1.083  22.607  0.00  0.00    +0.149 HD
BRANCH   6  25
ATOM     25  C   UNL     1      -3.646   2.846  23.026  0.00  0.00    +0.143 C 
BRANCH  25  26
ATOM     26  C   UNL     1      -3.638   3.417  24.414  0.00  0.00    +0.011 A 
ATOM     27  C   UNL     1      -2.475   3.968  24.953  0.00  0.00    +0.125 A 
ATOM     28  C   UNL     1      -4.812   3.393  25.168  0.00  0.00    +0.009 A 
ATOM     29  C   UNL     1      -2.486   4.494  26.244  0.00  0.00    +0.046 A 
ATOM     30  C   UNL     1      -4.822   3.919  26.459  0.00  0.00    +0.001 A 
ATOM     31  C   UNL     1      -3.659   4.470  26.998  0.00  0.00    +0.004 A 
BRANCH  27   3
ATOM      3  O   UNL     1      -1.319   3.999  24.231  0.00  0.00    -0.495 OA
ATOM     32  C   UNL     1      -0.324   4.933  24.642  0.00  0.00    +0.277 C 
ENDBRANCH  27   3
ENDBRANCH  25  26
ENDBRANCH   6  25
ENDBRANCH  11  17
BRANCH  10  16
ATOM     16  C   UNL     1      -1.302  -0.750  26.361  0.00  0.00    +0.164 C 
BRANCH  16   5
ATOM      5  N   UNL     1      -0.438  -0.138  25.365  0.00  0.00    -0.250 N 
ATOM      7  N   UNL     1      -0.633   1.096  24.910  0.00  0.00    -0.065 NA
ATOM      8  N   UNL     1       0.332   1.347  24.012  0.00  0.00    -0.132 NA
ATOM     21  C   UNL     1       1.172   0.286  23.867  0.00  0.00    +0.114 A 
ATOM     22  C   UNL     1       0.664  -0.647  24.736  0.00  0.00    +0.136 A 
BRANCH  21  18
ATOM     18  C   UNL     1       2.359   0.265  22.927  0.00  0.00    +0.111 C 
ATOM     19  C   UNL     1       3.423  -0.781  23.306  0.00  0.00    +0.041 C 
ATOM     20  C   UNL     1       3.214   1.542  22.894  0.00  0.00    +0.041 C 
ATOM     23  C   UNL     1       4.704  -0.351  22.588  0.00  0.00    +0.003 C 
ATOM     24  C   UNL     1       4.517   1.117  22.225  0.00  0.00    +0.003 C 
BRANCH  18   2
ATOM      2  O   UNL     1       1.923  -0.020  21.592  0.00  0.00    -0.382 OA
ATOM     34  H   UNL     1       2.702  -0.303  21.081  0.00  0.00    +0.211 HD
ENDBRANCH  18   2
ENDBRANCH  21  18
ENDBRANCH  16   5
ENDBRANCH  10  16
TORSDOF 8
ENDMDL
