MODEL 1
REMARK VINA RESULT:      -2.9      0.000      0.000
REMARK  Name = 7155460
REMARK  5 active torsions:
REMARK  status: ('A' for Active; 'I' for Inactive)
REMARK    1  A    between atoms: O_3  and  C_28
REMARK    2  A    between atoms: N_4  and  C_13
REMARK    3  A    between atoms: C_13  and  C_18
REMARK    4  A    between atoms: C_14  and  C_19
REMARK    5  A    between atoms: C_23  and  C_28
REMARK                            x       y       z     vdW  Elec       q    Type
REMARK                         _______ _______ _______ _____ _____    ______ ____
ROOT
ATOM      1  O   UNL     1      -4.041   4.727  25.425  0.00  0.00    -0.268 OA
ATOM      4  N   UNL     1      -0.110   2.041  23.971  0.00  0.00    -0.294 NA
ATOM      5  N   UNL     1      -2.769   2.764  25.556  0.00  0.00    -0.311 N 
ATOM      6  C   UNL     1      -0.326   2.798  26.344  0.00  0.00    +0.024 C 
ATOM      7  C   UNL     1      -1.360   0.687  25.664  0.00  0.00    +0.051 C 
ATOM      8  C   UNL     1      -0.613   1.378  26.802  0.00  0.00    +0.017 C 
ATOM      9  C   UNL     1       0.529   2.786  25.061  0.00  0.00    +0.090 C 
ATOM     10  C   UNL     1      -0.473   0.683  24.396  0.00  0.00    +0.094 C 
ATOM     11  C   UNL     1      -1.659   3.525  26.150  0.00  0.00    +0.130 C 
ATOM     12  C   UNL     1      -2.707   1.366  25.385  0.00  0.00    +0.034 A 
ATOM     14  C   UNL     1      -3.810   0.686  24.971  0.00  0.00    +0.002 A 
ATOM     15  C   UNL     1      -3.929   3.510  25.280  0.00  0.00    +0.252 A 
ATOM     16  C   UNL     1      -5.023   1.425  24.672  0.00  0.00    +0.015 A 
ATOM     17  C   UNL     1      -5.102   2.749  24.795  0.00  0.00    +0.071 A 
ENDROOT
BRANCH  14  19
ATOM     19  C   UNL     1      -3.777  -0.742  24.813  0.00  0.00    -0.016 A 
ATOM     21  C   UNL     1      -4.289  -1.321  23.656  0.00  0.00    +0.008 A 
ATOM     22  C   UNL     1      -3.231  -1.537  25.817  0.00  0.00    +0.008 A 
ATOM     25  C   UNL     1      -4.256  -2.708  23.503  0.00  0.00    +0.001 A 
ATOM     26  C   UNL     1      -3.198  -2.922  25.664  0.00  0.00    +0.001 A 
ATOM     27  C   UNL     1      -3.711  -3.508  24.506  0.00  0.00    +0.000 A 
ENDBRANCH  14  19
BRANCH   4  13
ATOM     13  C   UNL     1       0.745   2.009  22.787  0.00  0.00    +0.158 C 
BRANCH  13  18
ATOM      2  O   UNL     1       3.026   1.367  23.180  0.00  0.00    -0.461 OA
ATOM     18  C   UNL     1       1.792   0.931  22.881  0.00  0.00    +0.119 A 
ATOM     20  C   UNL     1       1.728  -0.409  22.719  0.00  0.00    +0.046 A 
ATOM     23  C   UNL     1       3.801   0.251  23.213  0.00  0.00    +0.131 A 
ATOM     24  C   UNL     1       3.049  -0.867  22.937  0.00  0.00    +0.047 A 
BRANCH  23  28
ATOM     28  C   UNL     1       5.223   0.455  23.526  0.00  0.00    +0.230 C 
BRANCH  28   3
ATOM      3  O   UNL     1       5.541  -0.326  24.679  0.00  0.00    -0.387 OA
ATOM     29  H   UNL     1       6.395  -0.760  24.511  0.00  0.00    +0.210 HD
ENDBRANCH  28   3
ENDBRANCH  23  28
ENDBRANCH  13  18
ENDBRANCH   4  13
TORSDOF 5
ENDMDL
MODEL 2
REMARK VINA RESULT:      -1.3      2.126      5.288
REMARK  Name = 7155460
REMARK  5 active torsions:
REMARK  status: ('A' for Active; 'I' for Inactive)
REMARK    1  A    between atoms: O_3  and  C_28
REMARK    2  A    between atoms: N_4  and  C_13
REMARK    3  A    between atoms: C_13  and  C_18
REMARK    4  A    between atoms: C_14  and  C_19
REMARK    5  A    between atoms: C_23  and  C_28
REMARK                            x       y       z     vdW  Elec       q    Type
REMARK                         _______ _______ _______ _____ _____    ______ ____
ROOT
ATOM      1  O   UNL     1      -2.468   4.305  27.361  0.00  0.00    -0.268 OA
ATOM      4  N   UNL     1      -4.104   0.832  24.194  0.00  0.00    -0.294 NA
ATOM      5  N   UNL     1      -2.312   3.216  25.293  0.00  0.00    -0.311 N 
ATOM      6  C   UNL     1      -4.247   3.258  23.606  0.00  0.00    +0.024 C 
ATOM      7  C   UNL     1      -2.201   2.020  23.087  0.00  0.00    +0.051 C 
ATOM      8  C   UNL     1      -3.146   3.102  22.571  0.00  0.00    +0.017 C 
ATOM      9  C   UNL     1      -4.998   1.925  23.795  0.00  0.00    +0.090 C 
ATOM     10  C   UNL     1      -2.981   0.695  23.257  0.00  0.00    +0.094 C 
ATOM     11  C   UNL     1      -3.621   3.765  24.907  0.00  0.00    +0.130 C 
ATOM     12  C   UNL     1      -1.541   2.438  24.407  0.00  0.00    +0.034 A 
ATOM     14  C   UNL     1      -0.275   2.076  24.750  0.00  0.00    +0.002 A 
ATOM     15  C   UNL     1      -1.841   3.615  26.556  0.00  0.00    +0.252 A 
ATOM     16  C   UNL     1       0.241   2.467  26.050  0.00  0.00    +0.015 A 
ATOM     17  C   UNL     1      -0.476   3.177  26.920  0.00  0.00    +0.071 A 
ENDROOT
BRANCH  14  19
ATOM     19  C   UNL     1       0.539   1.303  23.853  0.00  0.00    -0.016 A 
ATOM     21  C   UNL     1       1.865   1.664  23.638  0.00  0.00    +0.008 A 
ATOM     22  C   UNL     1      -0.005   0.197  23.206  0.00  0.00    +0.008 A 
ATOM     25  C   UNL     1       2.655   0.912  22.767  0.00  0.00    +0.001 A 
ATOM     26  C   UNL     1       0.784  -0.554  22.336  0.00  0.00    +0.001 A 
ATOM     27  C   UNL     1       2.115  -0.196  22.117  0.00  0.00    +0.000 A 
ENDBRANCH  14  19
BRANCH   4  13
ATOM     13  C   UNL     1      -4.838  -0.425  24.319  0.00  0.00    +0.158 C 
BRANCH  13  18
ATOM      2  O   UNL     1      -2.687  -1.356  24.849  0.00  0.00    -0.461 OA
ATOM     18  C   UNL     1      -3.913  -1.612  24.364  0.00  0.00    +0.119 A 
ATOM     20  C   UNL     1      -4.081  -2.904  24.005  0.00  0.00    +0.046 A 
ATOM     23  C   UNL     1      -2.028  -2.544  24.800  0.00  0.00    +0.131 A 
ATOM     24  C   UNL     1      -2.843  -3.527  24.290  0.00  0.00    +0.047 A 
BRANCH  23  28
ATOM     28  C   UNL     1      -0.640  -2.537  25.284  0.00  0.00    +0.230 C 
BRANCH  28   3
ATOM      3  O   UNL     1      -0.400  -1.285  25.929  0.00  0.00    -0.387 OA
ATOM     29  H   UNL     1      -1.247  -0.977  26.295  0.00  0.00    +0.210 HD
ENDBRANCH  28   3
ENDBRANCH  23  28
ENDBRANCH  13  18
ENDBRANCH   4  13
TORSDOF 5
ENDMDL
