MODEL 1
REMARK VINA RESULT:      -0.5      0.000      0.000
REMARK  Name = 75537019
REMARK  3 active torsions:
REMARK  status: ('A' for Active; 'I' for Inactive)
REMARK    1  A    between atoms: S_1  and  N_8
REMARK    2  A    between atoms: S_1  and  C_21
REMARK    3  A    between atoms: N_6  and  C_10
REMARK                            x       y       z     vdW  Elec       q    Type
REMARK                         _______ _______ _______ _____ _____    ______ ____
ROOT
ATOM      3  O   UNL     1       2.266   2.206  23.654  0.00  0.00    -0.252 OA
ATOM      6  N   UNL     1       2.092  -0.075  23.085  0.00  0.00    -0.281 N 
ATOM      7  N   UNL     1       0.209   1.086  23.474  0.00  0.00    -0.278 N 
ATOM      8  N   UNL     1      -2.381   0.293  24.167  0.00  0.00    -0.173 NA
ATOM      9  C   UNL     1      -0.252  -0.221  23.045  0.00  0.00    +0.111 C 
ATOM     11  C   UNL     1       1.025  -1.055  22.988  0.00  0.00    +0.133 C 
ATOM     12  C   UNL     1      -1.315  -0.750  24.001  0.00  0.00    +0.133 C 
ATOM     15  C   UNL     1       1.605   1.201  23.429  0.00  0.00    +0.305 C 
ATOM     16  C   UNL     1      -0.758   2.121  23.783  0.00  0.00    +0.127 C 
ATOM     17  C   UNL     1      -1.828   1.574  24.721  0.00  0.00    +0.128 C 
ENDROOT
BRANCH   6  10
ATOM     10  C   UNL     1       3.482  -0.444  22.966  0.00  0.00    +0.078 C 
ATOM     13  C   UNL     1       3.824  -1.570  23.944  0.00  0.00    +0.022 C 
ATOM     14  C   UNL     1       4.386   0.773  23.179  0.00  0.00    +0.022 C 
ATOM     18  C   UNL     1       5.303  -1.945  23.877  0.00  0.00    +0.002 C 
ATOM     19  C   UNL     1       5.863   0.394  23.109  0.00  0.00    +0.002 C 
ATOM     20  C   UNL     1       6.202  -0.729  24.085  0.00  0.00    +0.000 C 
ENDBRANCH   6  10
BRANCH   8   1
ATOM      1  S   UNL     1      -3.829  -0.255  24.901  0.00  0.00    +0.061 S 
ATOM      4  O   UNL     1      -3.519  -0.808  26.201  0.00  0.00    -0.153 OA
ATOM      5  O   UNL     1      -4.590  -1.012  23.929  0.00  0.00    -0.153 OA
BRANCH   1  21
ATOM      2  F   UNL     1      -6.570   4.897  25.731  0.00  0.00    -0.205 F 
ATOM     21  C   UNL     1      -4.650   1.287  25.151  0.00  0.00    +0.106 A 
ATOM     22  C   UNL     1      -5.757   1.360  25.996  0.00  0.00    +0.031 A 
ATOM     23  C   UNL     1      -4.192   2.433  24.501  0.00  0.00    +0.031 A 
ATOM     24  C   UNL     1      -6.406   2.579  26.193  0.00  0.00    +0.040 A 
ATOM     25  C   UNL     1      -4.841   3.653  24.698  0.00  0.00    +0.040 A 
ATOM     26  C   UNL     1      -5.947   3.725  25.543  0.00  0.00    +0.124 A 
ENDBRANCH   1  21
ENDBRANCH   8   1
TORSDOF 3
ENDMDL
MODEL 2
REMARK VINA RESULT:       0.8      2.258      2.717
REMARK  Name = 75537019
REMARK  3 active torsions:
REMARK  status: ('A' for Active; 'I' for Inactive)
REMARK    1  A    between atoms: S_1  and  N_8
REMARK    2  A    between atoms: S_1  and  C_21
REMARK    3  A    between atoms: N_6  and  C_10
REMARK                            x       y       z     vdW  Elec       q    Type
REMARK                         _______ _______ _______ _____ _____    ______ ____
ROOT
ATOM      3  O   UNL     1       0.902  -0.671  21.088  0.00  0.00    -0.252 OA
ATOM      6  N   UNL     1       1.803   0.201  23.084  0.00  0.00    -0.281 N 
ATOM      7  N   UNL     1      -0.383   0.502  22.666  0.00  0.00    -0.278 N 
ATOM      8  N   UNL     1      -2.247   2.344  23.638  0.00  0.00    -0.173 NA
ATOM      9  C   UNL     1      -0.189   1.045  23.997  0.00  0.00    +0.111 C 
ATOM     11  C   UNL     1       1.327   1.024  24.180  0.00  0.00    +0.133 C 
ATOM     12  C   UNL     1      -0.824   2.427  24.105  0.00  0.00    +0.133 C 
ATOM     15  C   UNL     1       0.787  -0.069  22.147  0.00  0.00    +0.305 C 
ATOM     16  C   UNL     1      -1.709   0.500  22.079  0.00  0.00    +0.127 C 
ATOM     17  C   UNL     1      -2.342   1.881  22.214  0.00  0.00    +0.128 C 
ENDROOT
BRANCH   6  10
ATOM     10  C   UNL     1       3.194  -0.160  22.948  0.00  0.00    +0.078 C 
ATOM     13  C   UNL     1       3.526  -1.360  23.837  0.00  0.00    +0.022 C 
ATOM     14  C   UNL     1       4.097   1.035  23.264  0.00  0.00    +0.022 C 
ATOM     18  C   UNL     1       5.004  -1.731  23.753  0.00  0.00    +0.002 C 
ATOM     19  C   UNL     1       5.575   0.660  23.178  0.00  0.00    +0.002 C 
ATOM     20  C   UNL     1       5.904  -0.537  24.064  0.00  0.00    +0.000 C 
ENDBRANCH   6  10
BRANCH   8   1
ATOM      1  S   UNL     1      -3.223   3.698  24.031  0.00  0.00    +0.061 S 
ATOM      4  O   UNL     1      -3.862   4.184  22.828  0.00  0.00    -0.153 OA
ATOM      5  O   UNL     1      -2.468   4.587  24.888  0.00  0.00    -0.153 OA
BRANCH   1  21
ATOM      2  F   UNL     1      -7.339   1.067  27.330  0.00  0.00    -0.205 F 
ATOM     21  C   UNL     1      -4.456   2.911  25.018  0.00  0.00    +0.106 A 
ATOM     22  C   UNL     1      -5.343   3.680  25.771  0.00  0.00    +0.031 A 
ATOM     23  C   UNL     1      -4.542   1.519  25.047  0.00  0.00    +0.031 A 
ATOM     24  C   UNL     1      -6.318   3.057  26.551  0.00  0.00    +0.040 A 
ATOM     25  C   UNL     1      -5.517   0.897  25.827  0.00  0.00    +0.040 A 
ATOM     26  C   UNL     1      -6.404   1.665  26.579  0.00  0.00    +0.124 A 
ENDBRANCH   1  21
ENDBRANCH   8   1
TORSDOF 3
ENDMDL
MODEL 3
REMARK VINA RESULT:       1.9      2.258      3.073
REMARK  Name = 75537019
REMARK  3 active torsions:
REMARK  status: ('A' for Active; 'I' for Inactive)
REMARK    1  A    between atoms: S_1  and  N_8
REMARK    2  A    between atoms: S_1  and  C_21
REMARK    3  A    between atoms: N_6  and  C_10
REMARK                            x       y       z     vdW  Elec       q    Type
REMARK                         _______ _______ _______ _____ _____    ______ ____
ROOT
ATOM      3  O   UNL     1      -0.616  -2.711  23.139  0.00  0.00    -0.252 OA
ATOM      6  N   UNL     1       0.375  -0.695  23.853  0.00  0.00    -0.281 N 
ATOM      7  N   UNL     1      -1.761  -1.103  24.412  0.00  0.00    -0.278 N 
ATOM      8  N   UNL     1      -3.856   0.577  25.188  0.00  0.00    -0.173 NA
ATOM      9  C   UNL     1      -1.438   0.136  25.093  0.00  0.00    +0.111 C 
ATOM     11  C   UNL     1      -0.063   0.506  24.541  0.00  0.00    +0.133 C 
ATOM     12  C   UNL     1      -2.524   1.178  24.848  0.00  0.00    +0.133 C 
ATOM     15  C   UNL     1      -0.661  -1.640  23.730  0.00  0.00    +0.305 C 
ATOM     16  C   UNL     1      -3.077  -1.690  24.578  0.00  0.00    +0.127 C 
ATOM     17  C   UNL     1      -4.153  -0.634  24.353  0.00  0.00    +0.128 C 
ENDROOT
BRANCH   6  10
ATOM     10  C   UNL     1       1.690  -0.803  23.268  0.00  0.00    +0.078 C 
ATOM     13  C   UNL     1       2.661  -1.463  24.248  0.00  0.00    +0.022 C 
ATOM     14  C   UNL     1       2.198   0.570  22.819  0.00  0.00    +0.022 C 
ATOM     18  C   UNL     1       4.074  -1.542  23.674  0.00  0.00    +0.002 C 
ATOM     19  C   UNL     1       3.610   0.487  22.245  0.00  0.00    +0.002 C 
ATOM     20  C   UNL     1       4.577  -0.173  23.224  0.00  0.00    +0.000 C 
ENDBRANCH   6  10
BRANCH   8   1
ATOM      1  S   UNL     1      -5.145   1.699  25.331  0.00  0.00    +0.061 S 
ATOM      4  O   UNL     1      -5.722   1.588  26.653  0.00  0.00    -0.153 OA
ATOM      5  O   UNL     1      -5.972   1.616  24.146  0.00  0.00    -0.153 OA
BRANCH   1  21
ATOM      2  F   UNL     1      -2.128   6.757  25.093  0.00  0.00    -0.205 F 
ATOM     21  C   UNL     1      -4.243   3.214  25.259  0.00  0.00    +0.106 A 
ATOM     22  C   UNL     1      -4.147   3.913  24.056  0.00  0.00    +0.031 A 
ATOM     23  C   UNL     1      -3.624   3.711  26.405  0.00  0.00    +0.031 A 
ATOM     24  C   UNL     1      -3.434   5.110  24.000  0.00  0.00    +0.040 A 
ATOM     25  C   UNL     1      -2.910   4.909  26.349  0.00  0.00    +0.040 A 
ATOM     26  C   UNL     1      -2.815   5.608  25.147  0.00  0.00    +0.124 A 
ENDBRANCH   1  21
ENDBRANCH   8   1
TORSDOF 3
ENDMDL
MODEL 4
REMARK VINA RESULT:       2.1      2.724      3.280
REMARK  Name = 75537019
REMARK  3 active torsions:
REMARK  status: ('A' for Active; 'I' for Inactive)
REMARK    1  A    between atoms: S_1  and  N_8
REMARK    2  A    between atoms: S_1  and  C_21
REMARK    3  A    between atoms: N_6  and  C_10
REMARK                            x       y       z     vdW  Elec       q    Type
REMARK                         _______ _______ _______ _____ _____    ______ ____
ROOT
ATOM      3  O   UNL     1       2.883   2.649  23.410  0.00  0.00    -0.252 OA
ATOM      6  N   UNL     1       2.213   0.432  22.975  0.00  0.00    -0.281 N 
ATOM      7  N   UNL     1       0.630   1.997  23.273  0.00  0.00    -0.278 N 
ATOM      8  N   UNL     1      -2.069   1.833  23.981  0.00  0.00    -0.173 NA
ATOM      9  C   UNL     1      -0.106   0.799  22.916  0.00  0.00    +0.111 C 
ATOM     11  C   UNL     1       0.957  -0.296  22.923  0.00  0.00    +0.133 C 
ATOM     12  C   UNL     1      -1.258   0.574  23.890  0.00  0.00    +0.133 C 
ATOM     15  C   UNL     1       2.018   1.801  23.238  0.00  0.00    +0.305 C 
ATOM     16  C   UNL     1      -0.086   3.236  23.509  0.00  0.00    +0.127 C 
ATOM     17  C   UNL     1      -1.248   2.992  24.466  0.00  0.00    +0.128 C 
ENDROOT
BRANCH   6  10
ATOM     10  C   UNL     1       3.488  -0.239  22.893  0.00  0.00    +0.078 C 
ATOM     13  C   UNL     1       3.529  -1.432  23.851  0.00  0.00    +0.022 C 
ATOM     14  C   UNL     1       4.633   0.739  23.171  0.00  0.00    +0.022 C 
ATOM     18  C   UNL     1       4.887  -2.129  23.823  0.00  0.00    +0.002 C 
ATOM     19  C   UNL     1       5.989   0.038  23.142  0.00  0.00    +0.002 C 
ATOM     20  C   UNL     1       6.028  -1.152  24.097  0.00  0.00    +0.000 C 
ENDBRANCH   6  10
BRANCH   8   1
ATOM      1  S   UNL     1      -3.601   1.660  24.730  0.00  0.00    +0.061 S 
ATOM      4  O   UNL     1      -4.624   2.143  23.828  0.00  0.00    -0.153 OA
ATOM      5  O   UNL     1      -3.515   2.145  26.091  0.00  0.00    -0.153 OA
BRANCH   1  21
ATOM      2  F   UNL     1      -3.988  -4.219  24.917  0.00  0.00    -0.205 F 
ATOM     21  C   UNL     1      -3.718  -0.100  24.787  0.00  0.00    +0.106 A 
ATOM     22  C   UNL     1      -3.230  -0.797  25.893  0.00  0.00    +0.031 A 
ATOM     23  C   UNL     1      -4.295  -0.796  23.725  0.00  0.00    +0.031 A 
ATOM     24  C   UNL     1      -3.322  -2.188  25.938  0.00  0.00    +0.040 A 
ATOM     25  C   UNL     1      -4.387  -2.187  23.770  0.00  0.00    +0.040 A 
ATOM     26  C   UNL     1      -3.900  -2.882  24.875  0.00  0.00    +0.124 A 
ENDBRANCH   1  21
ENDBRANCH   8   1
TORSDOF 3
ENDMDL
