MODEL 1
REMARK VINA RESULT:       3.1      0.000      0.000
REMARK  Name = 51137129
REMARK  8 active torsions:
REMARK  status: ('A' for Active; 'I' for Inactive)
REMARK    1  A    between atoms: S_1  and  C_20
REMARK    2  A    between atoms: S_1  and  C_25
REMARK    3  A    between atoms: O_5  and  C_26
REMARK    4  A    between atoms: O_5  and  C_28
REMARK    5  A    between atoms: N_6  and  C_13
REMARK    6  A    between atoms: C_8  and  C_12
REMARK    7  A    between atoms: C_13  and  C_14
REMARK    8  A    between atoms: C_25  and  C_27
REMARK                            x       y       z     vdW  Elec       q    Type
REMARK                         _______ _______ _______ _____ _____    ______ ____
ROOT
ATOM      6  N   UNL     1      -4.814   0.177  24.777  0.00  0.00    -0.297 NA
ATOM      8  C   UNL     1      -2.860  -0.936  24.113  0.00  0.00    +0.090 C 
ATOM      9  C   UNL     1      -3.284  -1.428  25.508  0.00  0.00    +0.029 C 
ATOM     10  C   UNL     1      -3.656   0.358  23.899  0.00  0.00    +0.097 C 
ATOM     11  C   UNL     1      -4.266  -0.379  26.014  0.00  0.00    +0.085 C 
ENDROOT
BRANCH   8  12
ATOM      2  O   UNL     1      -0.960   0.522  23.660  0.00  0.00    -0.439 OA
ATOM      7  N   UNL     1      -0.420  -1.653  23.999  0.00  0.00    -0.213 NA
ATOM     12  C   UNL     1      -1.372  -0.749  23.931  0.00  0.00    +0.201 A 
ATOM     15  C   UNL     1       0.722  -0.929  23.753  0.00  0.00    +0.111 A 
ATOM     16  C   UNL     1       0.395   0.402  23.545  0.00  0.00    +0.155 A 
ATOM     17  C   UNL     1       2.070  -1.314  23.688  0.00  0.00    +0.058 A 
ATOM     20  C   UNL     1       3.025  -0.325  23.414  0.00  0.00    +0.090 A 
ATOM     21  C   UNL     1       1.312   1.410  23.271  0.00  0.00    +0.050 A 
ATOM     22  C   UNL     1       2.651   1.009  23.210  0.00  0.00    +0.030 A 
BRANCH  20   1
ATOM      1  S   UNL     1       4.715  -0.768  23.326  0.00  0.00    -0.003 S 
ATOM      3  O   UNL     1       4.840  -2.194  23.585  0.00  0.00    -0.169 OA
ATOM      4  O   UNL     1       5.258  -0.203  22.100  0.00  0.00    -0.169 OA
BRANCH   1  25
ATOM     25  C   UNL     1       5.463   0.078  24.700  0.00  0.00    +0.168 C 
ATOM     27  C   UNL     1       6.218   1.308  24.249  0.00  0.00    +0.028 C 
ENDBRANCH   1  25
ENDBRANCH  20   1
ENDBRANCH   8  12
BRANCH   6  13
ATOM     13  C   UNL     1      -5.539   1.419  25.002  0.00  0.00    +0.119 C 
BRANCH  13  14
ATOM     14  C   UNL     1      -4.616   2.609  25.033  0.00  0.00    -0.033 A 
ATOM     18  C   UNL     1      -4.182   3.123  26.256  0.00  0.00    +0.008 A 
ATOM     19  C   UNL     1      -4.194   3.196  23.841  0.00  0.00    +0.008 A 
ATOM     23  C   UNL     1      -3.326   4.224  26.284  0.00  0.00    +0.046 A 
ATOM     24  C   UNL     1      -3.339   4.297  23.869  0.00  0.00    +0.046 A 
ATOM     26  C   UNL     1      -2.904   4.812  25.091  0.00  0.00    +0.120 A 
BRANCH  26   5
ATOM      5  O   UNL     1      -2.069   5.885  25.119  0.00  0.00    -0.495 OA
ATOM     28  C   UNL     1      -0.711   5.660  24.746  0.00  0.00    +0.277 C 
ENDBRANCH  26   5
ENDBRANCH  13  14
ENDBRANCH   6  13
TORSDOF 6
ENDMDL
MODEL 2
REMARK VINA RESULT:       4.1      2.063      4.306
REMARK  Name = 51137129
REMARK  8 active torsions:
REMARK  status: ('A' for Active; 'I' for Inactive)
REMARK    1  A    between atoms: S_1  and  C_20
REMARK    2  A    between atoms: S_1  and  C_25
REMARK    3  A    between atoms: O_5  and  C_26
REMARK    4  A    between atoms: O_5  and  C_28
REMARK    5  A    between atoms: N_6  and  C_13
REMARK    6  A    between atoms: C_8  and  C_12
REMARK    7  A    between atoms: C_13  and  C_14
REMARK    8  A    between atoms: C_25  and  C_27
REMARK                            x       y       z     vdW  Elec       q    Type
REMARK                         _______ _______ _______ _____ _____    ______ ____
ROOT
ATOM      6  N   UNL     1      -4.138   2.497  25.001  0.00  0.00    -0.297 NA
ATOM      8  C   UNL     1      -1.876   2.989  24.626  0.00  0.00    +0.090 C 
ATOM      9  C   UNL     1      -2.718   3.510  23.448  0.00  0.00    +0.029 C 
ATOM     10  C   UNL     1      -2.803   2.017  25.367  0.00  0.00    +0.097 C 
ATOM     11  C   UNL     1      -4.054   2.788  23.570  0.00  0.00    +0.085 C 
ENDROOT
BRANCH   8  12
ATOM      2  O   UNL     1      -0.630   1.312  23.371  0.00  0.00    -0.439 OA
ATOM      7  N   UNL     1       0.654   2.699  24.623  0.00  0.00    -0.213 NA
ATOM     12  C   UNL     1      -0.557   2.363  24.236  0.00  0.00    +0.201 A 
ATOM     15  C   UNL     1       1.457   1.800  23.963  0.00  0.00    +0.111 A 
ATOM     16  C   UNL     1       0.675   0.950  23.196  0.00  0.00    +0.155 A 
ATOM     17  C   UNL     1       2.850   1.632  23.955  0.00  0.00    +0.058 A 
ATOM     20  C   UNL     1       3.384   0.605  23.164  0.00  0.00    +0.090 A 
ATOM     21  C   UNL     1       1.168  -0.079  22.402  0.00  0.00    +0.050 A 
ATOM     22  C   UNL     1       2.558  -0.233  22.404  0.00  0.00    +0.030 A 
BRANCH  20   1
ATOM      1  S   UNL     1       5.117   0.366  23.128  0.00  0.00    -0.003 S 
ATOM      3  O   UNL     1       5.496  -0.109  21.806  0.00  0.00    -0.169 OA
ATOM      4  O   UNL     1       5.741   1.561  23.675  0.00  0.00    -0.169 OA
BRANCH   1  25
ATOM     25  C   UNL     1       5.401  -0.972  24.263  0.00  0.00    +0.168 C 
ATOM     27  C   UNL     1       4.605  -2.199  23.885  0.00  0.00    +0.028 C 
ENDBRANCH   1  25
ENDBRANCH  20   1
ENDBRANCH   8  12
BRANCH   6  13
ATOM     13  C   UNL     1      -5.179   1.528  25.309  0.00  0.00    +0.119 C 
BRANCH  13  14
ATOM     14  C   UNL     1      -4.713   0.113  25.085  0.00  0.00    -0.033 A 
ATOM     18  C   UNL     1      -3.966  -0.538  26.067  0.00  0.00    +0.008 A 
ATOM     19  C   UNL     1      -5.030  -0.546  23.898  0.00  0.00    +0.008 A 
ATOM     23  C   UNL     1      -3.536  -1.848  25.861  0.00  0.00    +0.046 A 
ATOM     24  C   UNL     1      -4.599  -1.856  23.692  0.00  0.00    +0.046 A 
ATOM     26  C   UNL     1      -3.852  -2.508  24.673  0.00  0.00    +0.120 A 
BRANCH  26   5
ATOM      5  O   UNL     1      -3.432  -3.786  24.472  0.00  0.00    -0.495 OA
ATOM     28  C   UNL     1      -2.327  -3.976  23.590  0.00  0.00    +0.277 C 
ENDBRANCH  26   5
ENDBRANCH  13  14
ENDBRANCH   6  13
TORSDOF 6
ENDMDL
