MODEL 1
REMARK VINA RESULT:       0.6      0.000      0.000
REMARK  Name = 40474972
REMARK  8 active torsions:
REMARK  status: ('A' for Active; 'I' for Inactive)
REMARK    1  A    between atoms: S_1  and  N_7
REMARK    2  A    between atoms: S_1  and  C_21
REMARK    3  A    between atoms: O_6  and  C_20
REMARK    4  A    between atoms: O_6  and  C_25
REMARK    5  A    between atoms: N_7  and  C_16
REMARK    6  A    between atoms: N_8  and  C_17
REMARK    7  A    between atoms: N_12  and  C_33
REMARK    8  A    between atoms: C_21  and  C_22
REMARK                            x       y       z     vdW  Elec       q    Type
REMARK                         _______ _______ _______ _____ _____    ______ ____
ROOT
ATOM      2  O   UNL     1      -2.544  -1.586  25.878  0.00  0.00    -0.370 OA
ATOM      3  O   UNL     1      -3.512  -0.857  22.996  0.00  0.00    -0.370 OA
ATOM     14  C   UNL     1      -2.400  -0.433  23.803  0.00  0.00    +0.170 C 
ATOM     15  C   UNL     1      -2.887  -0.345  25.236  0.00  0.00    +0.175 C 
ATOM     16  C   UNL     1      -1.341  -1.508  23.835  0.00  0.00    +0.133 C 
ATOM     17  C   UNL     1      -4.396  -0.219  25.121  0.00  0.00    +0.171 C 
ATOM     18  C   UNL     1      -1.814  -2.410  24.957  0.00  0.00    +0.183 C 
ATOM     19  C   UNL     1      -4.679  -0.970  23.823  0.00  0.00    +0.190 C 
ENDROOT
BRANCH  17   8
ATOM      8  N   UNL     1      -4.832   1.235  25.144  0.00  0.00    -0.187 N 
ATOM      9  N   UNL     1      -6.066   1.583  25.538  0.00  0.00    -0.041 NA
ATOM     10  N   UNL     1      -4.897   3.395  24.976  0.00  0.00    -0.071 NA
ATOM     11  N   UNL     1      -6.099   2.905  25.434  0.00  0.00    -0.020 NA
ATOM     20  C   UNL     1      -4.128   2.345  24.802  0.00  0.00    +0.342 A 
BRANCH  20   6
ATOM      6  O   UNL     1      -2.880   2.343  24.371  0.00  0.00    -0.423 OA
BRANCH   6  25
ATOM     25  C   UNL     1      -1.834   2.433  25.304  0.00  0.00    +0.132 A 
ATOM     28  C   UNL     1      -1.554   1.354  26.142  0.00  0.00    +0.048 A 
ATOM     29  C   UNL     1      -1.076   3.600  25.392  0.00  0.00    +0.048 A 
ATOM     31  C   UNL     1      -0.515   1.442  27.068  0.00  0.00    +0.030 A 
ATOM     32  C   UNL     1      -0.037   3.687  26.318  0.00  0.00    +0.030 A 
ATOM     33  C   UNL     1       0.243   2.608  27.157  0.00  0.00    +0.048 A 
BRANCH  33  12
ATOM     12  N   UNL     1       1.275   2.695  28.073  0.00  0.00    -0.306 N 
ATOM     13  N   UNL     1       3.277   3.162  28.917  0.00  0.00    -0.244 NA
ATOM     34  C   UNL     1       1.243   2.271  29.372  0.00  0.00    +0.112 A 
ATOM     35  C   UNL     1       2.516   3.222  27.846  0.00  0.00    +0.204 A 
ATOM     36  C   UNL     1       2.488   2.570  29.872  0.00  0.00    +0.130 A 
ENDBRANCH  33  12
ENDBRANCH   6  25
ENDBRANCH  20   6
ENDBRANCH  17   8
BRANCH  16   7
ATOM      7  N   UNL     1      -0.034  -0.908  24.198  0.00  0.00    -0.186 NA
ATOM     37  H   UNL     1       0.245  -1.000  25.183  0.00  0.00    +0.148 HD
BRANCH   7   1
ATOM      1  S   UNL     1       0.528   0.439  23.319  0.00  0.00    +0.034 S 
ATOM      4  O   UNL     1       1.300   1.308  24.184  0.00  0.00    -0.158 OA
ATOM      5  O   UNL     1      -0.576   0.961  22.535  0.00  0.00    -0.158 OA
BRANCH   1  21
ATOM     21  C   UNL     1       1.653  -0.350  22.191  0.00  0.00    +0.220 C 
BRANCH  21  22
ATOM     22  C   UNL     1       3.024  -0.278  22.789  0.00  0.00    -0.025 A 
ATOM     23  C   UNL     1       3.783   0.884  22.654  0.00  0.00    +0.005 A 
ATOM     24  C   UNL     1       3.541  -1.372  23.483  0.00  0.00    +0.005 A 
ATOM     26  C   UNL     1       5.061   0.951  23.210  0.00  0.00    +0.000 A 
ATOM     27  C   UNL     1       4.818  -1.305  24.039  0.00  0.00    +0.000 A 
ATOM     30  C   UNL     1       5.578  -0.143  23.903  0.00  0.00    +0.000 A 
ENDBRANCH  21  22
ENDBRANCH   1  21
ENDBRANCH   7   1
ENDBRANCH  16   7
TORSDOF 8
ENDMDL
MODEL 2
REMARK VINA RESULT:       2.7      2.684      6.847
REMARK  Name = 40474972
REMARK  8 active torsions:
REMARK  status: ('A' for Active; 'I' for Inactive)
REMARK    1  A    between atoms: S_1  and  N_7
REMARK    2  A    between atoms: S_1  and  C_21
REMARK    3  A    between atoms: O_6  and  C_20
REMARK    4  A    between atoms: O_6  and  C_25
REMARK    5  A    between atoms: N_7  and  C_16
REMARK    6  A    between atoms: N_8  and  C_17
REMARK    7  A    between atoms: N_12  and  C_33
REMARK    8  A    between atoms: C_21  and  C_22
REMARK                            x       y       z     vdW  Elec       q    Type
REMARK                         _______ _______ _______ _____ _____    ______ ____
ROOT
ATOM      2  O   UNL     1      -1.581   3.404  26.425  0.00  0.00    -0.370 OA
ATOM      3  O   UNL     1      -1.288   2.820  23.368  0.00  0.00    -0.370 OA
ATOM     14  C   UNL     1      -2.327   2.566  24.328  0.00  0.00    +0.170 C 
ATOM     15  C   UNL     1      -1.655   2.202  25.638  0.00  0.00    +0.175 C 
ATOM     16  C   UNL     1      -3.075   3.840  24.635  0.00  0.00    +0.133 C 
ATOM     17  C   UNL     1      -0.260   1.754  25.241  0.00  0.00    +0.171 C 
ATOM     18  C   UNL     1      -2.226   4.474  25.719  0.00  0.00    +0.183 C 
ATOM     19  C   UNL     1      -0.012   2.569  23.976  0.00  0.00    +0.190 C 
ENDROOT
BRANCH  17   8
ATOM      8  N   UNL     1      -0.191   0.247  25.072  0.00  0.00    -0.187 N 
ATOM      9  N   UNL     1      -0.773  -0.578  25.954  0.00  0.00    -0.041 NA
ATOM     10  N   UNL     1       0.223  -1.753  24.343  0.00  0.00    -0.071 NA
ATOM     11  N   UNL     1      -0.518  -1.799  25.503  0.00  0.00    -0.020 NA
ATOM     20  C   UNL     1       0.414  -0.478  24.095  0.00  0.00    +0.342 A 
BRANCH  20   6
ATOM      6  O   UNL     1       1.078   0.037  23.076  0.00  0.00    -0.423 OA
BRANCH   6  25
ATOM     25  C   UNL     1       2.482   0.000  23.085  0.00  0.00    +0.132 A 
ATOM     28  C   UNL     1       3.146  -1.157  23.489  0.00  0.00    +0.048 A 
ATOM     29  C   UNL     1       3.211   1.122  22.689  0.00  0.00    +0.048 A 
ATOM     31  C   UNL     1       4.540  -1.194  23.498  0.00  0.00    +0.030 A 
ATOM     32  C   UNL     1       4.605   1.084  22.698  0.00  0.00    +0.030 A 
ATOM     33  C   UNL     1       5.269  -0.074  23.103  0.00  0.00    +0.048 A 
BRANCH  33  12
ATOM     12  N   UNL     1       6.652  -0.111  23.110  0.00  0.00    -0.306 N 
ATOM     13  N   UNL     1       8.719  -0.783  22.649  0.00  0.00    -0.244 NA
ATOM     34  C   UNL     1       7.482   0.743  23.780  0.00  0.00    +0.112 A 
ATOM     35  C   UNL     1       7.439  -1.010  22.445  0.00  0.00    +0.204 A 
ATOM     36  C   UNL     1       8.752   0.309  23.480  0.00  0.00    +0.130 A 
ENDBRANCH  33  12
ENDBRANCH   6  25
ENDBRANCH  20   6
ENDBRANCH  17   8
BRANCH  16   7
ATOM      7  N   UNL     1      -4.415   3.512  25.182  0.00  0.00    -0.186 NA
ATOM     37  H   UNL     1      -4.611   3.862  26.128  0.00  0.00    +0.148 HD
BRANCH   7   1
ATOM      1  S   UNL     1      -5.187   2.083  24.670  0.00  0.00    +0.034 S 
ATOM      4  O   UNL     1      -4.564   1.590  23.457  0.00  0.00    -0.158 OA
ATOM      5  O   UNL     1      -6.620   2.292  24.736  0.00  0.00    -0.158 OA
BRANCH   1  21
ATOM     21  C   UNL     1      -4.750   0.980  25.995  0.00  0.00    +0.220 C 
BRANCH  21  22
ATOM     22  C   UNL     1      -4.375  -0.336  25.388  0.00  0.00    -0.025 A 
ATOM     23  C   UNL     1      -4.677  -0.600  24.052  0.00  0.00    +0.005 A 
ATOM     24  C   UNL     1      -3.720  -1.298  26.158  0.00  0.00    +0.005 A 
ATOM     26  C   UNL     1      -4.327  -1.827  23.488  0.00  0.00    +0.000 A 
ATOM     27  C   UNL     1      -3.371  -2.524  25.594  0.00  0.00    +0.000 A 
ATOM     30  C   UNL     1      -3.674  -2.789  24.258  0.00  0.00    +0.000 A 
ENDBRANCH  21  22
ENDBRANCH   1  21
ENDBRANCH   7   1
ENDBRANCH  16   7
TORSDOF 8
ENDMDL
MODEL 3
REMARK VINA RESULT:       3.1      2.233      5.102
REMARK  Name = 40474972
REMARK  8 active torsions:
REMARK  status: ('A' for Active; 'I' for Inactive)
REMARK    1  A    between atoms: S_1  and  N_7
REMARK    2  A    between atoms: S_1  and  C_21
REMARK    3  A    between atoms: O_6  and  C_20
REMARK    4  A    between atoms: O_6  and  C_25
REMARK    5  A    between atoms: N_7  and  C_16
REMARK    6  A    between atoms: N_8  and  C_17
REMARK    7  A    between atoms: N_12  and  C_33
REMARK    8  A    between atoms: C_21  and  C_22
REMARK                            x       y       z     vdW  Elec       q    Type
REMARK                         _______ _______ _______ _____ _____    ______ ____
ROOT
ATOM      2  O   UNL     1       0.341   4.041  25.927  0.00  0.00    -0.370 OA
ATOM      3  O   UNL     1      -2.288   2.360  26.115  0.00  0.00    -0.370 OA
ATOM     14  C   UNL     1      -1.253   2.470  25.124  0.00  0.00    +0.170 C 
ATOM     15  C   UNL     1      -0.817   3.921  25.082  0.00  0.00    +0.175 C 
ATOM     16  C   UNL     1      -0.020   1.724  25.573  0.00  0.00    +0.133 C 
ATOM     17  C   UNL     1      -1.981   4.688  25.683  0.00  0.00    +0.171 C 
ATOM     18  C   UNL     1       0.694   2.747  26.434  0.00  0.00    +0.183 C 
ATOM     19  C   UNL     1      -2.575   3.663  26.644  0.00  0.00    +0.190 C 
ENDROOT
BRANCH  17   8
ATOM      8  N   UNL     1      -2.923   5.197  24.607  0.00  0.00    -0.187 N 
ATOM      9  N   UNL     1      -2.528   6.122  23.720  0.00  0.00    -0.041 NA
ATOM     10  N   UNL     1      -4.644   5.538  23.333  0.00  0.00    -0.071 NA
ATOM     11  N   UNL     1      -3.584   6.326  22.943  0.00  0.00    -0.020 NA
ATOM     20  C   UNL     1      -4.213   4.849  24.364  0.00  0.00    +0.342 A 
BRANCH  20   6
ATOM      6  O   UNL     1      -4.898   3.962  25.061  0.00  0.00    -0.423 OA
BRANCH   6  25
ATOM     25  C   UNL     1      -4.652   2.594  24.860  0.00  0.00    +0.132 A 
ATOM     28  C   UNL     1      -3.937   2.173  23.739  0.00  0.00    +0.048 A 
ATOM     29  C   UNL     1      -5.122   1.657  25.780  0.00  0.00    +0.048 A 
ATOM     31  C   UNL     1      -3.692   0.815  23.538  0.00  0.00    +0.030 A 
ATOM     32  C   UNL     1      -4.876   0.299  25.579  0.00  0.00    +0.030 A 
ATOM     33  C   UNL     1      -4.161  -0.122  24.457  0.00  0.00    +0.048 A 
BRANCH  33  12
ATOM     12  N   UNL     1      -3.916  -1.469  24.260  0.00  0.00    -0.306 N 
ATOM     13  N   UNL     1      -4.189  -3.549  23.529  0.00  0.00    -0.244 NA
ATOM     34  C   UNL     1      -2.862  -2.182  24.757  0.00  0.00    +0.112 A 
ATOM     35  C   UNL     1      -4.686  -2.332  23.529  0.00  0.00    +0.204 A 
ATOM     36  C   UNL     1      -3.051  -3.462  24.292  0.00  0.00    +0.130 A 
ENDBRANCH  33  12
ENDBRANCH   6  25
ENDBRANCH  20   6
ENDBRANCH  17   8
BRANCH  16   7
ATOM      7  N   UNL     1       0.819   1.394  24.395  0.00  0.00    -0.186 NA
ATOM     37  H   UNL     1       1.280   2.190  23.935  0.00  0.00    +0.148 HD
BRANCH   7   1
ATOM      1  S   UNL     1       0.419   0.032  23.454  0.00  0.00    +0.034 S 
ATOM      4  O   UNL     1      -0.875   0.223  22.831  0.00  0.00    -0.158 OA
ATOM      5  O   UNL     1       0.699  -1.158  24.234  0.00  0.00    -0.158 OA
BRANCH   1  21
ATOM     21  C   UNL     1       1.658   0.136  22.182  0.00  0.00    +0.220 C 
BRANCH  21  22
ATOM     22  C   UNL     1       2.994  -0.057  22.831  0.00  0.00    -0.025 A 
ATOM     23  C   UNL     1       3.327  -1.291  23.390  0.00  0.00    +0.005 A 
ATOM     24  C   UNL     1       3.908   0.996  22.874  0.00  0.00    +0.005 A 
ATOM     26  C   UNL     1       4.571  -1.470  23.994  0.00  0.00    +0.000 A 
ATOM     27  C   UNL     1       5.151   0.817  23.478  0.00  0.00    +0.000 A 
ATOM     30  C   UNL     1       5.483  -0.416  24.038  0.00  0.00    +0.000 A 
ENDBRANCH  21  22
ENDBRANCH   1  21
ENDBRANCH   7   1
ENDBRANCH  16   7
TORSDOF 8
ENDMDL
MODEL 4
REMARK VINA RESULT:       3.4      2.655      6.209
REMARK  Name = 40474972
REMARK  8 active torsions:
REMARK  status: ('A' for Active; 'I' for Inactive)
REMARK    1  A    between atoms: S_1  and  N_7
REMARK    2  A    between atoms: S_1  and  C_21
REMARK    3  A    between atoms: O_6  and  C_20
REMARK    4  A    between atoms: O_6  and  C_25
REMARK    5  A    between atoms: N_7  and  C_16
REMARK    6  A    between atoms: N_8  and  C_17
REMARK    7  A    between atoms: N_12  and  C_33
REMARK    8  A    between atoms: C_21  and  C_22
REMARK                            x       y       z     vdW  Elec       q    Type
REMARK                         _______ _______ _______ _____ _____    ______ ____
ROOT
ATOM      2  O   UNL     1      -3.720   1.762  23.418  0.00  0.00    -0.370 OA
ATOM      3  O   UNL     1      -4.940  -0.871  24.579  0.00  0.00    -0.370 OA
ATOM     14  C   UNL     1      -4.418   0.326  25.180  0.00  0.00    +0.170 C 
ATOM     15  C   UNL     1      -3.235   0.774  24.344  0.00  0.00    +0.175 C 
ATOM     16  C   UNL     1      -5.414   1.452  25.048  0.00  0.00    +0.133 C 
ATOM     17  C   UNL     1      -2.801  -0.473  23.594  0.00  0.00    +0.171 C 
ATOM     18  C   UNL     1      -5.110   2.008  23.671  0.00  0.00    +0.183 C 
ATOM     19  C   UNL     1      -4.115  -1.238  23.463  0.00  0.00    +0.190 C 
ENDROOT
BRANCH  17   8
ATOM      8  N   UNL     1      -1.691  -1.202  24.329  0.00  0.00    -0.187 N 
ATOM      9  N   UNL     1      -1.965  -2.138  25.248  0.00  0.00    -0.041 NA
ATOM     10  N   UNL     1       0.240  -1.890  25.037  0.00  0.00    -0.071 NA
ATOM     11  N   UNL     1      -0.782  -2.556  25.677  0.00  0.00    -0.020 NA
ATOM     20  C   UNL     1      -0.346  -1.057  24.208  0.00  0.00    +0.342 A 
BRANCH  20   6
ATOM      6  O   UNL     1       0.250  -0.212  23.386  0.00  0.00    -0.423 OA
BRANCH   6  25
ATOM     25  C   UNL     1       1.654  -0.169  23.349  0.00  0.00    +0.132 A 
ATOM     28  C   UNL     1       2.306   1.029  23.058  0.00  0.00    +0.048 A 
ATOM     29  C   UNL     1       2.394  -1.323  23.603  0.00  0.00    +0.048 A 
ATOM     31  C   UNL     1       3.699   1.073  23.021  0.00  0.00    +0.030 A 
ATOM     32  C   UNL     1       3.788  -1.278  23.566  0.00  0.00    +0.030 A 
ATOM     33  C   UNL     1       4.440  -0.080  23.274  0.00  0.00    +0.048 A 
BRANCH  33  12
ATOM     12  N   UNL     1       5.822  -0.036  23.240  0.00  0.00    -0.306 N 
ATOM     13  N   UNL     1       7.909  -0.572  22.699  0.00  0.00    -0.244 NA
ATOM     34  C   UNL     1       6.622   0.845  23.912  0.00  0.00    +0.112 A 
ATOM     35  C   UNL     1       6.640  -0.868  22.525  0.00  0.00    +0.204 A 
ATOM     36  C   UNL     1       7.905   0.495  23.562  0.00  0.00    +0.130 A 
ENDBRANCH  33  12
ENDBRANCH   6  25
ENDBRANCH  20   6
ENDBRANCH  17   8
BRANCH  16   7
ATOM      7  N   UNL     1      -5.136   2.486  26.074  0.00  0.00    -0.186 NA
ATOM     37  H   UNL     1      -5.550   2.322  27.000  0.00  0.00    +0.148 HD
BRANCH   7   1
ATOM      1  S   UNL     1      -4.877   4.094  25.574  0.00  0.00    +0.034 S 
ATOM      4  O   UNL     1      -6.028   4.909  25.910  0.00  0.00    -0.158 OA
ATOM      5  O   UNL     1      -4.354   4.070  24.222  0.00  0.00    -0.158 OA
BRANCH   1  21
ATOM     21  C   UNL     1      -3.542   4.562  26.651  0.00  0.00    +0.220 C 
BRANCH  21  22
ATOM     22  C   UNL     1      -2.258   4.230  25.957  0.00  0.00    -0.025 A 
ATOM     23  C   UNL     1      -1.647   5.172  25.130  0.00  0.00    +0.005 A 
ATOM     24  C   UNL     1      -1.671   2.977  26.138  0.00  0.00    +0.005 A 
ATOM     26  C   UNL     1      -0.451   4.861  24.482  0.00  0.00    +0.000 A 
ATOM     27  C   UNL     1      -0.476   2.666  25.491  0.00  0.00    +0.000 A 
ATOM     30  C   UNL     1       0.135   3.609  24.663  0.00  0.00    +0.000 A 
ENDBRANCH  21  22
ENDBRANCH   1  21
ENDBRANCH   7   1
ENDBRANCH  16   7
TORSDOF 8
ENDMDL
MODEL 5
REMARK VINA RESULT:       3.8      2.532      5.363
REMARK  Name = 40474972
REMARK  8 active torsions:
REMARK  status: ('A' for Active; 'I' for Inactive)
REMARK    1  A    between atoms: S_1  and  N_7
REMARK    2  A    between atoms: S_1  and  C_21
REMARK    3  A    between atoms: O_6  and  C_20
REMARK    4  A    between atoms: O_6  and  C_25
REMARK    5  A    between atoms: N_7  and  C_16
REMARK    6  A    between atoms: N_8  and  C_17
REMARK    7  A    between atoms: N_12  and  C_33
REMARK    8  A    between atoms: C_21  and  C_22
REMARK                            x       y       z     vdW  Elec       q    Type
REMARK                         _______ _______ _______ _____ _____    ______ ____
ROOT
ATOM      2  O   UNL     1      -4.124   2.103  22.744  0.00  0.00    -0.370 OA
ATOM      3  O   UNL     1      -4.743   1.411  25.729  0.00  0.00    -0.370 OA
ATOM     14  C   UNL     1      -3.528   1.656  25.002  0.00  0.00    +0.170 C 
ATOM     15  C   UNL     1      -3.694   1.048  23.623  0.00  0.00    +0.175 C 
ATOM     16  C   UNL     1      -3.365   3.133  24.740  0.00  0.00    +0.133 C 
ATOM     17  C   UNL     1      -4.802   0.023  23.786  0.00  0.00    +0.171 C 
ATOM     18  C   UNL     1      -4.167   3.338  23.471  0.00  0.00    +0.183 C 
ATOM     19  C   UNL     1      -5.630   0.629  24.915  0.00  0.00    +0.190 C 
ENDROOT
BRANCH  17   8
ATOM      8  N   UNL     1      -4.239  -1.360  24.057  0.00  0.00    -0.187 N 
ATOM      9  N   UNL     1      -4.851  -2.461  23.597  0.00  0.00    -0.041 NA
ATOM     10  N   UNL     1      -3.017  -3.019  24.733  0.00  0.00    -0.071 NA
ATOM     11  N   UNL     1      -4.099  -3.471  24.012  0.00  0.00    -0.020 NA
ATOM     20  C   UNL     1      -3.123  -1.710  24.749  0.00  0.00    +0.342 A 
BRANCH  20   6
ATOM      6  O   UNL     1      -2.300  -0.859  25.331  0.00  0.00    -0.423 OA
BRANCH   6  25
ATOM     25  C   UNL     1      -1.001  -0.705  24.820  0.00  0.00    +0.132 A 
ATOM     28  C   UNL     1      -0.697   0.388  24.007  0.00  0.00    +0.048 A 
ATOM     29  C   UNL     1      -0.016  -1.644  25.124  0.00  0.00    +0.048 A 
ATOM     31  C   UNL     1       0.593   0.541  23.500  0.00  0.00    +0.030 A 
ATOM     32  C   UNL     1       1.274  -1.490  24.615  0.00  0.00    +0.030 A 
ATOM     33  C   UNL     1       1.578  -0.398  23.803  0.00  0.00    +0.048 A 
BRANCH  33  12
ATOM     12  N   UNL     1       2.858  -0.244  23.301  0.00  0.00    -0.306 N 
ATOM     13  N   UNL     1       4.536   0.564  22.091  0.00  0.00    -0.244 NA
ATOM     34  C   UNL     1       3.959  -0.974  23.652  0.00  0.00    +0.112 A 
ATOM     35  C   UNL     1       3.253   0.667  22.361  0.00  0.00    +0.204 A 
ATOM     36  C   UNL     1       4.982  -0.456  22.893  0.00  0.00    +0.130 A 
ENDBRANCH  33  12
ENDBRANCH   6  25
ENDBRANCH  20   6
ENDBRANCH  17   8
BRANCH  16   7
ATOM      7  N   UNL     1      -1.937   3.439  24.481  0.00  0.00    -0.186 NA
ATOM     37  H   UNL     1      -1.492   2.900  23.726  0.00  0.00    +0.148 HD
BRANCH   7   1
ATOM      1  S   UNL     1      -0.965   3.989  25.766  0.00  0.00    +0.034 S 
ATOM      4  O   UNL     1      -1.731   4.003  26.996  0.00  0.00    -0.158 OA
ATOM      5  O   UNL     1      -0.250   5.171  25.323  0.00  0.00    -0.158 OA
BRANCH   1  21
ATOM     21  C   UNL     1       0.217   2.665  25.875  0.00  0.00    +0.220 C 
BRANCH  21  22
ATOM     22  C   UNL     1       0.795   2.680  27.256  0.00  0.00    -0.025 A 
ATOM     23  C   UNL     1      -0.000   2.335  28.349  0.00  0.00    +0.005 A 
ATOM     24  C   UNL     1       2.129   3.039  27.451  0.00  0.00    +0.005 A 
ATOM     26  C   UNL     1       0.538   2.350  29.636  0.00  0.00    +0.000 A 
ATOM     27  C   UNL     1       2.666   3.055  28.737  0.00  0.00    +0.000 A 
ATOM     30  C   UNL     1       1.871   2.710  29.830  0.00  0.00    +0.000 A 
ENDBRANCH  21  22
ENDBRANCH   1  21
ENDBRANCH   7   1
ENDBRANCH  16   7
TORSDOF 8
ENDMDL
MODEL 6
REMARK VINA RESULT:       4.5      2.759      5.207
REMARK  Name = 40474972
REMARK  8 active torsions:
REMARK  status: ('A' for Active; 'I' for Inactive)
REMARK    1  A    between atoms: S_1  and  N_7
REMARK    2  A    between atoms: S_1  and  C_21
REMARK    3  A    between atoms: O_6  and  C_20
REMARK    4  A    between atoms: O_6  and  C_25
REMARK    5  A    between atoms: N_7  and  C_16
REMARK    6  A    between atoms: N_8  and  C_17
REMARK    7  A    between atoms: N_12  and  C_33
REMARK    8  A    between atoms: C_21  and  C_22
REMARK                            x       y       z     vdW  Elec       q    Type
REMARK                         _______ _______ _______ _____ _____    ______ ____
ROOT
ATOM      2  O   UNL     1      -5.267   2.262  26.492  0.00  0.00    -0.370 OA
ATOM      3  O   UNL     1      -5.014   2.915  23.445  0.00  0.00    -0.370 OA
ATOM     14  C   UNL     1      -4.410   1.929  24.299  0.00  0.00    +0.170 C 
ATOM     15  C   UNL     1      -4.153   2.587  25.641  0.00  0.00    +0.175 C 
ATOM     16  C   UNL     1      -5.397   0.830  24.606  0.00  0.00    +0.133 C 
ATOM     17  C   UNL     1      -4.144   4.076  25.342  0.00  0.00    +0.171 C 
ATOM     18  C   UNL     1      -6.162   1.389  25.790  0.00  0.00    +0.183 C 
ATOM     19  C   UNL     1      -5.087   4.165  24.146  0.00  0.00    +0.190 C 
ENDROOT
BRANCH  17   8
ATOM      8  N   UNL     1      -2.733   4.582  25.103  0.00  0.00    -0.187 N 
ATOM      9  N   UNL     1      -2.383   5.836  25.423  0.00  0.00    -0.041 NA
ATOM     10  N   UNL     1      -0.643   4.749  24.551  0.00  0.00    -0.071 NA
ATOM     11  N   UNL     1      -1.104   5.932  25.084  0.00  0.00    -0.020 NA
ATOM     20  C   UNL     1      -1.668   3.928  24.572  0.00  0.00    +0.342 A 
BRANCH  20   6
ATOM      6  O   UNL     1      -1.684   2.676  24.154  0.00  0.00    -0.423 OA
BRANCH   6  25
ATOM     25  C   UNL     1      -0.466   2.008  23.947  0.00  0.00    +0.132 A 
ATOM     28  C   UNL     1       0.706   2.503  24.519  0.00  0.00    +0.048 A 
ATOM     29  C   UNL     1      -0.429   0.851  23.169  0.00  0.00    +0.048 A 
ATOM     31  C   UNL     1       1.915   1.840  24.314  0.00  0.00    +0.030 A 
ATOM     32  C   UNL     1       0.782   0.188  22.965  0.00  0.00    +0.030 A 
ATOM     33  C   UNL     1       1.954   0.683  23.537  0.00  0.00    +0.048 A 
BRANCH  33  12
ATOM     12  N   UNL     1       3.153   0.024  23.335  0.00  0.00    -0.306 N 
ATOM     13  N   UNL     1       5.277  -0.308  22.777  0.00  0.00    -0.244 NA
ATOM     34  C   UNL     1       3.403  -1.297  23.580  0.00  0.00    +0.112 A 
ATOM     35  C   UNL     1       4.308   0.577  22.854  0.00  0.00    +0.204 A 
ATOM     36  C   UNL     1       4.719  -1.478  23.228  0.00  0.00    +0.130 A 
ENDBRANCH  33  12
ENDBRANCH   6  25
ENDBRANCH  20   6
ENDBRANCH  17   8
BRANCH  16   7
ATOM      7  N   UNL     1      -4.668  -0.394  25.019  0.00  0.00    -0.186 NA
ATOM     37  H   UNL     1      -3.986  -0.275  25.779  0.00  0.00    +0.148 HD
BRANCH   7   1
ATOM      1  S   UNL     1      -4.394  -1.618  23.867  0.00  0.00    +0.034 S 
ATOM      4  O   UNL     1      -3.465  -1.150  22.857  0.00  0.00    -0.158 OA
ATOM      5  O   UNL     1      -5.676  -2.183  23.491  0.00  0.00    -0.158 OA
BRANCH   1  21
ATOM     21  C   UNL     1      -3.553  -2.827  24.864  0.00  0.00    +0.220 C 
BRANCH  21  22
ATOM     22  C   UNL     1      -2.241  -2.240  25.283  0.00  0.00    -0.025 A 
ATOM     23  C   UNL     1      -2.210  -1.078  26.054  0.00  0.00    +0.005 A 
ATOM     24  C   UNL     1      -1.048  -2.856  24.902  0.00  0.00    +0.005 A 
ATOM     26  C   UNL     1      -0.987  -0.532  26.443  0.00  0.00    +0.000 A 
ATOM     27  C   UNL     1       0.174  -2.309  25.290  0.00  0.00    +0.000 A 
ATOM     30  C   UNL     1       0.205  -1.147  26.062  0.00  0.00    +0.000 A 
ENDBRANCH  21  22
ENDBRANCH   1  21
ENDBRANCH   7   1
ENDBRANCH  16   7
TORSDOF 8
ENDMDL
