MODEL 1
REMARK VINA RESULT:      -2.0      0.000      0.000
REMARK  Name = 51137475
REMARK  7 active torsions:
REMARK  status: ('A' for Active; 'I' for Inactive)
REMARK    1  A    between atoms: O_5  and  C_23
REMARK    2  A    between atoms: O_5  and  C_29
REMARK    3  A    between atoms: N_6  and  C_13
REMARK    4  A    between atoms: C_9  and  C_14
REMARK    5  A    between atoms: C_13  and  C_15
REMARK    6  A    between atoms: C_18  and  C_22
REMARK    7  A    between atoms: C_21  and  C_24
REMARK                            x       y       z     vdW  Elec       q    Type
REMARK                         _______ _______ _______ _____ _____    ______ ____
ROOT
ATOM      6  N   UNL     1      -0.698   4.915  24.999  0.00  0.00    -0.297 NA
ATOM      9  C   UNL     1       0.529   2.954  24.617  0.00  0.00    +0.092 C 
ATOM     10  C   UNL     1       0.678   3.898  23.410  0.00  0.00    +0.029 C 
ATOM     11  C   UNL     1      -0.673   3.505  25.395  0.00  0.00    +0.097 C 
ATOM     12  C   UNL     1      -0.454   4.905  23.556  0.00  0.00    +0.085 C 
ENDROOT
BRANCH   9  14
ATOM      4  O   UNL     1      -0.836   0.925  24.482  0.00  0.00    -0.420 OA
ATOM      7  N   UNL     1       1.266   0.659  23.765  0.00  0.00    -0.112 NA
ATOM      8  N   UNL     1       0.614  -0.553  23.635  0.00  0.00    -0.107 NA
ATOM     14  C   UNL     1       0.382   1.492  24.263  0.00  0.00    +0.222 A 
ATOM     18  C   UNL     1      -0.610  -0.351  24.066  0.00  0.00    +0.252 A 
BRANCH  18  22
ATOM     22  C   UNL     1      -1.723  -1.250  24.161  0.00  0.00    +0.080 A 
ATOM     23  C   UNL     1      -3.028  -0.795  23.979  0.00  0.00    +0.132 A 
ATOM     25  C   UNL     1      -1.486  -2.595  24.444  0.00  0.00    +0.017 A 
ATOM     26  C   UNL     1      -4.098  -1.685  24.078  0.00  0.00    +0.046 A 
ATOM     27  C   UNL     1      -2.555  -3.485  24.543  0.00  0.00    +0.001 A 
ATOM     28  C   UNL     1      -3.861  -3.031  24.360  0.00  0.00    +0.004 A 
BRANCH  23   5
ATOM      5  O   UNL     1      -3.289   0.515  23.702  0.00  0.00    -0.494 OA
ATOM     29  C   UNL     1      -2.982   0.970  22.386  0.00  0.00    +0.277 C 
ENDBRANCH  23   5
ENDBRANCH  18  22
ENDBRANCH   9  14
BRANCH   6  13
ATOM     13  C   UNL     1      -1.953   5.566  25.344  0.00  0.00    +0.119 C 
BRANCH  13  15
ATOM     15  C   UNL     1      -3.104   4.594  25.359  0.00  0.00    -0.033 A 
ATOM     16  C   UNL     1      -3.687   4.185  24.161  0.00  0.00    +0.005 A 
ATOM     17  C   UNL     1      -3.586   4.104  26.573  0.00  0.00    +0.005 A 
ATOM     19  C   UNL     1      -4.753   3.285  24.176  0.00  0.00    +0.012 A 
ATOM     20  C   UNL     1      -4.651   3.204  26.588  0.00  0.00    +0.012 A 
ATOM     21  C   UNL     1      -5.235   2.794  25.389  0.00  0.00    +0.055 A 
BRANCH  21  24
ATOM      1  F   UNL     1      -7.021   1.769  26.606  0.00  0.00    -0.166 F 
ATOM      2  F   UNL     1      -5.983   0.552  25.134  0.00  0.00    -0.166 F 
ATOM      3  F   UNL     1      -7.346   2.119  24.491  0.00  0.00    -0.166 F 
ATOM     24  C   UNL     1      -6.373   1.832  25.405  0.00  0.00    +0.417 C 
ENDBRANCH  21  24
ENDBRANCH  13  15
ENDBRANCH   6  13
TORSDOF 6
ENDMDL
MODEL 2
REMARK VINA RESULT:      -1.8      2.581      4.716
REMARK  Name = 51137475
REMARK  7 active torsions:
REMARK  status: ('A' for Active; 'I' for Inactive)
REMARK    1  A    between atoms: O_5  and  C_23
REMARK    2  A    between atoms: O_5  and  C_29
REMARK    3  A    between atoms: N_6  and  C_13
REMARK    4  A    between atoms: C_9  and  C_14
REMARK    5  A    between atoms: C_13  and  C_15
REMARK    6  A    between atoms: C_18  and  C_22
REMARK    7  A    between atoms: C_21  and  C_24
REMARK                            x       y       z     vdW  Elec       q    Type
REMARK                         _______ _______ _______ _____ _____    ______ ____
ROOT
ATOM      6  N   UNL     1      -4.551   3.328  25.358  0.00  0.00    -0.297 NA
ATOM      9  C   UNL     1      -2.299   3.841  25.758  0.00  0.00    +0.092 C 
ATOM     10  C   UNL     1      -2.775   4.570  24.489  0.00  0.00    +0.029 C 
ATOM     11  C   UNL     1      -3.367   2.771  26.016  0.00  0.00    +0.097 C 
ATOM     12  C   UNL     1      -4.060   3.860  24.086  0.00  0.00    +0.085 C 
ENDROOT
BRANCH   9  14
ATOM      4  O   UNL     1      -0.611   2.508  24.587  0.00  0.00    -0.420 OA
ATOM      7  N   UNL     1       0.103   3.396  26.511  0.00  0.00    -0.112 NA
ATOM      8  N   UNL     1       1.147   2.675  25.960  0.00  0.00    -0.107 NA
ATOM     14  C   UNL     1      -0.902   3.271  25.676  0.00  0.00    +0.222 A 
ATOM     18  C   UNL     1       0.684   2.174  24.838  0.00  0.00    +0.252 A 
BRANCH  18  22
ATOM     22  C   UNL     1       1.322   1.347  23.855  0.00  0.00    +0.080 A 
ATOM     23  C   UNL     1       0.699   0.196  23.376  0.00  0.00    +0.132 A 
ATOM     25  C   UNL     1       2.584   1.706  23.382  0.00  0.00    +0.017 A 
ATOM     26  C   UNL     1       1.337  -0.597  22.421  0.00  0.00    +0.046 A 
ATOM     27  C   UNL     1       3.222   0.914  22.428  0.00  0.00    +0.001 A 
ATOM     28  C   UNL     1       2.599  -0.237  21.947  0.00  0.00    +0.004 A 
BRANCH  23   5
ATOM      5  O   UNL     1      -0.535  -0.180  23.821  0.00  0.00    -0.494 OA
ATOM     29  C   UNL     1      -0.581  -0.949  25.021  0.00  0.00    +0.277 C 
ENDBRANCH  23   5
ENDBRANCH  18  22
ENDBRANCH   9  14
BRANCH   6  13
ATOM     13  C   UNL     1      -5.602   2.338  25.175  0.00  0.00    +0.119 C 
BRANCH  13  15
ATOM     15  C   UNL     1      -5.043   0.951  25.003  0.00  0.00    -0.033 A 
ATOM     16  C   UNL     1      -4.919   0.402  23.727  0.00  0.00    +0.005 A 
ATOM     17  C   UNL     1      -4.649   0.214  26.120  0.00  0.00    +0.005 A 
ATOM     19  C   UNL     1      -4.400  -0.883  23.568  0.00  0.00    +0.012 A 
ATOM     20  C   UNL     1      -4.131  -1.070  25.962  0.00  0.00    +0.012 A 
ATOM     21  C   UNL     1      -4.007  -1.620  24.685  0.00  0.00    +0.055 A 
BRANCH  21  24
ATOM      1  F   UNL     1      -2.234  -3.019  23.898  0.00  0.00    -0.166 F 
ATOM      2  F   UNL     1      -4.260  -3.797  23.764  0.00  0.00    -0.166 F 
ATOM      3  F   UNL     1      -3.268  -3.659  25.693  0.00  0.00    -0.166 F 
ATOM     24  C   UNL     1      -3.452  -2.993  24.515  0.00  0.00    +0.417 C 
ENDBRANCH  21  24
ENDBRANCH  13  15
ENDBRANCH   6  13
TORSDOF 6
ENDMDL
MODEL 3
REMARK VINA RESULT:      -1.8      3.342      5.175
REMARK  Name = 51137475
REMARK  7 active torsions:
REMARK  status: ('A' for Active; 'I' for Inactive)
REMARK    1  A    between atoms: O_5  and  C_23
REMARK    2  A    between atoms: O_5  and  C_29
REMARK    3  A    between atoms: N_6  and  C_13
REMARK    4  A    between atoms: C_9  and  C_14
REMARK    5  A    between atoms: C_13  and  C_15
REMARK    6  A    between atoms: C_18  and  C_22
REMARK    7  A    between atoms: C_21  and  C_24
REMARK                            x       y       z     vdW  Elec       q    Type
REMARK                         _______ _______ _______ _____ _____    ______ ____
ROOT
ATOM      6  N   UNL     1      -2.605   4.860  25.313  0.00  0.00    -0.297 NA
ATOM      9  C   UNL     1      -4.602   3.640  25.173  0.00  0.00    +0.092 C 
ATOM     10  C   UNL     1      -4.319   3.998  26.643  0.00  0.00    +0.029 C 
ATOM     11  C   UNL     1      -3.269   3.879  24.452  0.00  0.00    +0.097 C 
ATOM     12  C   UNL     1      -2.849   4.390  26.677  0.00  0.00    +0.085 C 
ENDROOT
BRANCH   9  14
ATOM      4  O   UNL     1      -4.241   1.240  24.842  0.00  0.00    -0.420 OA
ATOM      7  N   UNL     1      -6.394   1.846  24.849  0.00  0.00    -0.112 NA
ATOM      8  N   UNL     1      -6.335   0.478  24.654  0.00  0.00    -0.107 NA
ATOM     14  C   UNL     1      -5.149   2.248  24.954  0.00  0.00    +0.222 A 
ATOM     18  C   UNL     1      -5.059   0.169  24.658  0.00  0.00    +0.252 A 
BRANCH  18  22
ATOM     22  C   UNL     1      -4.409  -1.099  24.501  0.00  0.00    +0.080 A 
ATOM     23  C   UNL     1      -3.279  -1.422  25.250  0.00  0.00    +0.132 A 
ATOM     25  C   UNL     1      -4.921  -2.015  23.581  0.00  0.00    +0.017 A 
ATOM     26  C   UNL     1      -2.659  -2.661  25.082  0.00  0.00    +0.046 A 
ATOM     27  C   UNL     1      -4.302  -3.253  23.412  0.00  0.00    +0.001 A 
ATOM     28  C   UNL     1      -3.172  -3.577  24.162  0.00  0.00    +0.004 A 
BRANCH  23   5
ATOM      5  O   UNL     1      -2.757  -0.547  26.157  0.00  0.00    -0.494 OA
ATOM     29  C   UNL     1      -1.338  -0.406  26.175  0.00  0.00    +0.277 C 
ENDBRANCH  23   5
ENDBRANCH  18  22
ENDBRANCH   9  14
BRANCH   6  13
ATOM     13  C   UNL     1      -1.186   4.988  25.016  0.00  0.00    +0.119 C 
BRANCH  13  15
ATOM     15  C   UNL     1      -0.595   3.691  24.529  0.00  0.00    -0.033 A 
ATOM     16  C   UNL     1       0.477   3.115  25.210  0.00  0.00    +0.005 A 
ATOM     17  C   UNL     1      -1.120   3.067  23.398  0.00  0.00    +0.005 A 
ATOM     19  C   UNL     1       1.024   1.913  24.759  0.00  0.00    +0.012 A 
ATOM     20  C   UNL     1      -0.574   1.866  22.947  0.00  0.00    +0.012 A 
ATOM     21  C   UNL     1       0.499   1.289  23.627  0.00  0.00    +0.055 A 
BRANCH  21  24
ATOM      1  F   UNL     1       0.800  -0.270  21.838  0.00  0.00    -0.166 F 
ATOM      2  F   UNL     1       0.632  -1.074  23.851  0.00  0.00    -0.166 F 
ATOM      3  F   UNL     1       2.444  -0.045  23.233  0.00  0.00    -0.166 F 
ATOM     24  C   UNL     1       1.082   0.004  23.146  0.00  0.00    +0.417 C 
ENDBRANCH  21  24
ENDBRANCH  13  15
ENDBRANCH   6  13
TORSDOF 6
ENDMDL
MODEL 4
REMARK VINA RESULT:      -1.5      3.119      5.236
REMARK  Name = 51137475
REMARK  7 active torsions:
REMARK  status: ('A' for Active; 'I' for Inactive)
REMARK    1  A    between atoms: O_5  and  C_23
REMARK    2  A    between atoms: O_5  and  C_29
REMARK    3  A    between atoms: N_6  and  C_13
REMARK    4  A    between atoms: C_9  and  C_14
REMARK    5  A    between atoms: C_13  and  C_15
REMARK    6  A    between atoms: C_18  and  C_22
REMARK    7  A    between atoms: C_21  and  C_24
REMARK                            x       y       z     vdW  Elec       q    Type
REMARK                         _______ _______ _______ _____ _____    ______ ____
ROOT
ATOM      6  N   UNL     1      -5.312   0.445  24.904  0.00  0.00    -0.297 NA
ATOM      9  C   UNL     1      -3.753  -1.282  24.613  0.00  0.00    +0.092 C 
ATOM     10  C   UNL     1      -4.189  -1.225  26.088  0.00  0.00    +0.029 C 
ATOM     11  C   UNL     1      -4.209   0.058  24.021  0.00  0.00    +0.097 C 
ATOM     12  C   UNL     1      -4.837   0.143  26.255  0.00  0.00    +0.085 C 
ENDROOT
BRANCH   9  14
ATOM      4  O   UNL     1      -1.508  -0.491  24.038  0.00  0.00    -0.420 OA
ATOM      7  N   UNL     1      -1.614  -2.676  24.502  0.00  0.00    -0.112 NA
ATOM      8  N   UNL     1      -0.301  -2.367  24.196  0.00  0.00    -0.107 NA
ATOM     14  C   UNL     1      -2.282  -1.551  24.397  0.00  0.00    +0.222 A 
ATOM     18  C   UNL     1      -0.286  -1.081  23.932  0.00  0.00    +0.252 A 
BRANCH  18  22
ATOM     22  C   UNL     1       0.797  -0.220  23.557  0.00  0.00    +0.080 A 
ATOM     23  C   UNL     1       0.806   1.123  23.929  0.00  0.00    +0.132 A 
ATOM     25  C   UNL     1       1.852  -0.743  22.808  0.00  0.00    +0.017 A 
ATOM     26  C   UNL     1       1.869   1.945  23.553  0.00  0.00    +0.046 A 
ATOM     27  C   UNL     1       2.914   0.078  22.432  0.00  0.00    +0.001 A 
ATOM     28  C   UNL     1       2.924   1.422  22.805  0.00  0.00    +0.004 A 
BRANCH  23   5
ATOM      5  O   UNL     1      -0.211   1.662  24.661  0.00  0.00    -0.494 OA
ATOM     29  C   UNL     1       0.075   1.991  26.019  0.00  0.00    +0.277 C 
ENDBRANCH  23   5
ENDBRANCH  18  22
ENDBRANCH   9  14
BRANCH   6  13
ATOM     13  C   UNL     1      -5.683   1.844  24.748  0.00  0.00    +0.119 C 
BRANCH  13  15
ATOM     15  C   UNL     1      -4.480   2.749  24.760  0.00  0.00    -0.033 A 
ATOM     16  C   UNL     1      -4.074   3.354  25.950  0.00  0.00    +0.005 A 
ATOM     17  C   UNL     1      -3.771   2.982  23.582  0.00  0.00    +0.005 A 
ATOM     19  C   UNL     1      -2.959   4.192  25.960  0.00  0.00    +0.012 A 
ATOM     20  C   UNL     1      -2.656   3.819  23.592  0.00  0.00    +0.012 A 
ATOM     21  C   UNL     1      -2.250   4.425  24.782  0.00  0.00    +0.055 A 
BRANCH  21  24
ATOM      1  F   UNL     1      -0.104   4.951  25.699  0.00  0.00    -0.166 F 
ATOM      2  F   UNL     1      -1.373   6.612  25.101  0.00  0.00    -0.166 F 
ATOM      3  F   UNL     1      -0.406   5.379  23.594  0.00  0.00    -0.166 F 
ATOM     24  C   UNL     1      -1.058   5.320  24.793  0.00  0.00    +0.417 C 
ENDBRANCH  21  24
ENDBRANCH  13  15
ENDBRANCH   6  13
TORSDOF 6
ENDMDL
MODEL 5
REMARK VINA RESULT:      -1.2      0.878      1.894
REMARK  Name = 51137475
REMARK  7 active torsions:
REMARK  status: ('A' for Active; 'I' for Inactive)
REMARK    1  A    between atoms: O_5  and  C_23
REMARK    2  A    between atoms: O_5  and  C_29
REMARK    3  A    between atoms: N_6  and  C_13
REMARK    4  A    between atoms: C_9  and  C_14
REMARK    5  A    between atoms: C_13  and  C_15
REMARK    6  A    between atoms: C_18  and  C_22
REMARK    7  A    between atoms: C_21  and  C_24
REMARK                            x       y       z     vdW  Elec       q    Type
REMARK                         _______ _______ _______ _____ _____    ______ ____
ROOT
ATOM      6  N   UNL     1      -0.768   4.883  25.007  0.00  0.00    -0.297 NA
ATOM      9  C   UNL     1       0.437   2.924  24.555  0.00  0.00    +0.092 C 
ATOM     10  C   UNL     1       0.595   3.908  23.382  0.00  0.00    +0.029 C 
ATOM     11  C   UNL     1      -0.758   3.461  25.354  0.00  0.00    +0.097 C 
ATOM     12  C   UNL     1      -0.526   4.921  23.564  0.00  0.00    +0.085 C 
ENDROOT
BRANCH   9  14
ATOM      4  O   UNL     1      -0.934   0.901  24.399  0.00  0.00    -0.420 OA
ATOM      7  N   UNL     1       1.135   0.665  23.586  0.00  0.00    -0.112 NA
ATOM      8  N   UNL     1       0.477  -0.543  23.436  0.00  0.00    -0.107 NA
ATOM     14  C   UNL     1       0.274   1.477  24.151  0.00  0.00    +0.222 A 
ATOM     18  C   UNL     1      -0.727  -0.358  23.925  0.00  0.00    +0.252 A 
BRANCH  18  22
ATOM     22  C   UNL     1      -1.836  -1.260  24.032  0.00  0.00    +0.080 A 
ATOM     23  C   UNL     1      -1.652  -2.572  24.465  0.00  0.00    +0.132 A 
ATOM     25  C   UNL     1      -3.113  -0.810  23.692  0.00  0.00    +0.017 A 
ATOM     26  C   UNL     1      -2.744  -3.435  24.561  0.00  0.00    +0.046 A 
ATOM     27  C   UNL     1      -4.204  -1.673  23.788  0.00  0.00    +0.001 A 
ATOM     28  C   UNL     1      -4.021  -2.985  24.222  0.00  0.00    +0.004 A 
BRANCH  23   5
ATOM      5  O   UNL     1      -0.416  -3.039  24.803  0.00  0.00    -0.494 OA
ATOM     29  C   UNL     1       0.157  -2.534  26.007  0.00  0.00    +0.277 C 
ENDBRANCH  23   5
ENDBRANCH  18  22
ENDBRANCH   9  14
BRANCH   6  13
ATOM     13  C   UNL     1      -2.016   5.536  25.376  0.00  0.00    +0.119 C 
BRANCH  13  15
ATOM     15  C   UNL     1      -3.176   4.576  25.362  0.00  0.00    -0.033 A 
ATOM     16  C   UNL     1      -3.902   4.342  26.530  0.00  0.00    +0.005 A 
ATOM     17  C   UNL     1      -3.525   3.921  24.181  0.00  0.00    +0.005 A 
ATOM     19  C   UNL     1      -4.977   3.453  26.516  0.00  0.00    +0.012 A 
ATOM     20  C   UNL     1      -4.600   3.033  24.167  0.00  0.00    +0.012 A 
ATOM     21  C   UNL     1      -5.326   2.798  25.335  0.00  0.00    +0.055 A 
BRANCH  21  24
ATOM      1  F   UNL     1      -7.067   1.685  26.541  0.00  0.00    -0.166 F 
ATOM      2  F   UNL     1      -6.116   0.595  24.918  0.00  0.00    -0.166 F 
ATOM      3  F   UNL     1      -7.486   2.226  24.483  0.00  0.00    -0.166 F 
ATOM     24  C   UNL     1      -6.475   1.849  25.320  0.00  0.00    +0.417 C 
ENDBRANCH  21  24
ENDBRANCH  13  15
ENDBRANCH   6  13
TORSDOF 6
ENDMDL
MODEL 6
REMARK VINA RESULT:      -0.9      3.614      7.220
REMARK  Name = 51137475
REMARK  7 active torsions:
REMARK  status: ('A' for Active; 'I' for Inactive)
REMARK    1  A    between atoms: O_5  and  C_23
REMARK    2  A    between atoms: O_5  and  C_29
REMARK    3  A    between atoms: N_6  and  C_13
REMARK    4  A    between atoms: C_9  and  C_14
REMARK    5  A    between atoms: C_13  and  C_15
REMARK    6  A    between atoms: C_18  and  C_22
REMARK    7  A    between atoms: C_21  and  C_24
REMARK                            x       y       z     vdW  Elec       q    Type
REMARK                         _______ _______ _______ _____ _____    ______ ____
ROOT
ATOM      6  N   UNL     1      -3.633  -2.262  25.178  0.00  0.00    -0.297 NA
ATOM      9  C   UNL     1      -4.880  -0.282  25.324  0.00  0.00    +0.092 C 
ATOM     10  C   UNL     1      -5.093  -0.924  23.941  0.00  0.00    +0.029 C 
ATOM     11  C   UNL     1      -3.637  -0.982  25.889  0.00  0.00    +0.097 C 
ATOM     12  C   UNL     1      -3.954  -1.923  23.791  0.00  0.00    +0.085 C 
ENDROOT
BRANCH   9  14
ATOM      4  O   UNL     1      -3.502   1.735  25.137  0.00  0.00    -0.420 OA
ATOM      7  N   UNL     1      -5.680   2.143  25.444  0.00  0.00    -0.112 NA
ATOM      8  N   UNL     1      -5.026   3.358  25.357  0.00  0.00    -0.107 NA
ATOM     14  C   UNL     1      -4.752   1.224  25.310  0.00  0.00    +0.222 A 
ATOM     18  C   UNL     1      -3.757   3.071  25.178  0.00  0.00    +0.252 A 
BRANCH  18  22
ATOM     22  C   UNL     1      -2.621   3.932  25.021  0.00  0.00    +0.080 A 
ATOM     23  C   UNL     1      -1.335   3.407  24.906  0.00  0.00    +0.132 A 
ATOM     25  C   UNL     1      -2.817   5.313  24.988  0.00  0.00    +0.017 A 
ATOM     26  C   UNL     1      -0.243   4.262  24.756  0.00  0.00    +0.046 A 
ATOM     27  C   UNL     1      -1.725   6.168  24.838  0.00  0.00    +0.001 A 
ATOM     28  C   UNL     1      -0.438   5.643  24.722  0.00  0.00    +0.004 A 
BRANCH  23   5
ATOM      5  O   UNL     1      -1.115   2.062  24.936  0.00  0.00    -0.494 OA
ATOM     29  C   UNL     1      -0.305   1.563  25.998  0.00  0.00    +0.277 C 
ENDBRANCH  23   5
ENDBRANCH  18  22
ENDBRANCH   9  14
BRANCH   6  13
ATOM     13  C   UNL     1      -2.361  -2.959  25.297  0.00  0.00    +0.119 C 
BRANCH  13  15
ATOM     15  C   UNL     1      -1.232  -2.178  24.678  0.00  0.00    -0.033 A 
ATOM     16  C   UNL     1      -1.471  -1.373  23.564  0.00  0.00    +0.005 A 
ATOM     17  C   UNL     1       0.051  -2.260  25.218  0.00  0.00    +0.005 A 
ATOM     19  C   UNL     1      -0.424  -0.649  22.991  0.00  0.00    +0.012 A 
ATOM     20  C   UNL     1       1.097  -1.537  24.645  0.00  0.00    +0.012 A 
ATOM     21  C   UNL     1       0.859  -0.731  23.531  0.00  0.00    +0.055 A 
BRANCH  21  24
ATOM      1  F   UNL     1       2.030   1.344  23.328  0.00  0.00    -0.166 F 
ATOM      2  F   UNL     1       1.898   0.090  21.557  0.00  0.00    -0.166 F 
ATOM      3  F   UNL     1       3.212  -0.469  23.196  0.00  0.00    -0.166 F 
ATOM     24  C   UNL     1       1.977   0.042  22.919  0.00  0.00    +0.417 C 
ENDBRANCH  21  24
ENDBRANCH  13  15
ENDBRANCH   6  13
TORSDOF 6
ENDMDL
MODEL 7
REMARK VINA RESULT:       1.7      2.522      4.756
REMARK  Name = 51137475
REMARK  7 active torsions:
REMARK  status: ('A' for Active; 'I' for Inactive)
REMARK    1  A    between atoms: O_5  and  C_23
REMARK    2  A    between atoms: O_5  and  C_29
REMARK    3  A    between atoms: N_6  and  C_13
REMARK    4  A    between atoms: C_9  and  C_14
REMARK    5  A    between atoms: C_13  and  C_15
REMARK    6  A    between atoms: C_18  and  C_22
REMARK    7  A    between atoms: C_21  and  C_24
REMARK                            x       y       z     vdW  Elec       q    Type
REMARK                         _______ _______ _______ _____ _____    ______ ____
ROOT
ATOM      6  N   UNL     1      -4.796   3.426  25.501  0.00  0.00    -0.297 NA
ATOM      9  C   UNL     1      -2.586   4.149  25.197  0.00  0.00    +0.092 C 
ATOM     10  C   UNL     1      -3.461   4.668  24.042  0.00  0.00    +0.029 C 
ATOM     11  C   UNL     1      -3.426   3.047  25.856  0.00  0.00    +0.097 C 
ATOM     12  C   UNL     1      -4.725   3.820  24.094  0.00  0.00    +0.085 C 
ENDROOT
BRANCH   9  14
ATOM      4  O   UNL     1      -1.077   2.352  24.496  0.00  0.00    -0.420 OA
ATOM      7  N   UNL     1      -0.094   4.354  24.666  0.00  0.00    -0.112 NA
ATOM      8  N   UNL     1       0.864   3.440  24.266  0.00  0.00    -0.107 NA
ATOM     14  C   UNL     1      -1.211   3.674  24.787  0.00  0.00    +0.222 A 
ATOM     18  C   UNL     1       0.245   2.285  24.180  0.00  0.00    +0.252 A 
BRANCH  18  22
ATOM     22  C   UNL     1       0.739   0.991  23.810  0.00  0.00    +0.080 A 
ATOM     23  C   UNL     1       2.020   0.837  23.284  0.00  0.00    +0.132 A 
ATOM     25  C   UNL     1      -0.084  -0.123  23.981  0.00  0.00    +0.017 A 
ATOM     26  C   UNL     1       2.482  -0.431  22.929  0.00  0.00    +0.046 A 
ATOM     27  C   UNL     1       0.377  -1.391  23.626  0.00  0.00    +0.001 A 
ATOM     28  C   UNL     1       1.659  -1.545  23.100  0.00  0.00    +0.004 A 
BRANCH  23   5
ATOM      5  O   UNL     1       2.846   1.908  23.107  0.00  0.00    -0.494 OA
ATOM     29  C   UNL     1       4.207   1.627  22.785  0.00  0.00    +0.277 C 
ENDBRANCH  23   5
ENDBRANCH  18  22
ENDBRANCH   9  14
BRANCH   6  13
ATOM     13  C   UNL     1      -5.747   2.348  25.727  0.00  0.00    +0.119 C 
BRANCH  13  15
ATOM     15  C   UNL     1      -5.151   1.000  25.417  0.00  0.00    -0.033 A 
ATOM     16  C   UNL     1      -4.372   0.346  26.371  0.00  0.00    +0.005 A 
ATOM     17  C   UNL     1      -5.378   0.407  24.175  0.00  0.00    +0.005 A 
ATOM     19  C   UNL     1      -3.820  -0.903  26.082  0.00  0.00    +0.012 A 
ATOM     20  C   UNL     1      -4.828  -0.841  23.887  0.00  0.00    +0.012 A 
ATOM     21  C   UNL     1      -4.048  -1.497  24.841  0.00  0.00    +0.055 A 
BRANCH  21  24
ATOM      1  F   UNL     1      -3.389  -3.662  25.615  0.00  0.00    -0.166 F 
ATOM      2  F   UNL     1      -2.184  -2.745  24.054  0.00  0.00    -0.166 F 
ATOM      3  F   UNL     1      -4.156  -3.533  23.591  0.00  0.00    -0.166 F 
ATOM     24  C   UNL     1      -3.460  -2.831  24.533  0.00  0.00    +0.417 C 
ENDBRANCH  21  24
ENDBRANCH  13  15
ENDBRANCH   6  13
TORSDOF 6
ENDMDL
MODEL 8
REMARK VINA RESULT:       2.0      1.456      2.069
REMARK  Name = 51137475
REMARK  7 active torsions:
REMARK  status: ('A' for Active; 'I' for Inactive)
REMARK    1  A    between atoms: O_5  and  C_23
REMARK    2  A    between atoms: O_5  and  C_29
REMARK    3  A    between atoms: N_6  and  C_13
REMARK    4  A    between atoms: C_9  and  C_14
REMARK    5  A    between atoms: C_13  and  C_15
REMARK    6  A    between atoms: C_18  and  C_22
REMARK    7  A    between atoms: C_21  and  C_24
REMARK                            x       y       z     vdW  Elec       q    Type
REMARK                         _______ _______ _______ _____ _____    ______ ____
ROOT
ATOM      6  N   UNL     1       0.336   3.219  24.592  0.00  0.00    -0.297 NA
ATOM      9  C   UNL     1       0.616   0.897  24.754  0.00  0.00    +0.092 C 
ATOM     10  C   UNL     1       0.744   1.330  23.282  0.00  0.00    +0.029 C 
ATOM     11  C   UNL     1      -0.034   2.096  25.456  0.00  0.00    +0.097 C 
ATOM     12  C   UNL     1       0.140   2.726  23.228  0.00  0.00    +0.085 C 
ENDROOT
BRANCH   9  14
ATOM      4  O   UNL     1      -1.325  -0.531  24.317  0.00  0.00    -0.420 OA
ATOM      7  N   UNL     1       0.174  -1.431  25.712  0.00  0.00    -0.112 NA
ATOM      8  N   UNL     1      -0.861  -2.335  25.556  0.00  0.00    -0.107 NA
ATOM     14  C   UNL     1      -0.139  -0.394  24.971  0.00  0.00    +0.222 A 
ATOM     18  C   UNL     1      -1.712  -1.768  24.733  0.00  0.00    +0.252 A 
BRANCH  18  22
ATOM     22  C   UNL     1      -2.962  -2.242  24.216  0.00  0.00    +0.080 A 
ATOM     23  C   UNL     1      -4.062  -1.392  24.112  0.00  0.00    +0.132 A 
ATOM     25  C   UNL     1      -3.070  -3.574  23.817  0.00  0.00    +0.017 A 
ATOM     26  C   UNL     1      -5.271  -1.873  23.607  0.00  0.00    +0.046 A 
ATOM     27  C   UNL     1      -4.278  -4.056  23.313  0.00  0.00    +0.001 A 
ATOM     28  C   UNL     1      -5.378  -3.206  23.207  0.00  0.00    +0.004 A 
BRANCH  23   5
ATOM      5  O   UNL     1      -3.986  -0.085  24.494  0.00  0.00    -0.494 OA
ATOM     29  C   UNL     1      -4.270   0.205  25.861  0.00  0.00    +0.277 C 
ENDBRANCH  23   5
ENDBRANCH  18  22
ENDBRANCH   9  14
BRANCH   6  13
ATOM     13  C   UNL     1      -0.448   4.414  24.867  0.00  0.00    +0.119 C 
BRANCH  13  15
ATOM     15  C   UNL     1      -1.905   4.093  25.077  0.00  0.00    -0.033 A 
ATOM     16  C   UNL     1      -2.674   3.618  24.015  0.00  0.00    +0.005 A 
ATOM     17  C   UNL     1      -2.484   4.271  26.333  0.00  0.00    +0.005 A 
ATOM     19  C   UNL     1      -4.023   3.320  24.210  0.00  0.00    +0.012 A 
ATOM     20  C   UNL     1      -3.832   3.973  26.529  0.00  0.00    +0.012 A 
ATOM     21  C   UNL     1      -4.602   3.498  25.467  0.00  0.00    +0.055 A 
BRANCH  21  24
ATOM      1  F   UNL     1      -6.571   2.369  24.711  0.00  0.00    -0.166 F 
ATOM      2  F   UNL     1      -6.831   4.294  25.687  0.00  0.00    -0.166 F 
ATOM      3  F   UNL     1      -6.298   2.540  26.855  0.00  0.00    -0.166 F 
ATOM     24  C   UNL     1      -6.043   3.180  25.675  0.00  0.00    +0.417 C 
ENDBRANCH  21  24
ENDBRANCH  13  15
ENDBRANCH   6  13
TORSDOF 6
ENDMDL
