MODEL 1
REMARK VINA RESULT:      -5.6      0.000      0.000
REMARK  Name = 56775455
REMARK  11 active torsions:
REMARK  status: ('A' for Active; 'I' for Inactive)
REMARK    1  A    between atoms: O_6  and  C_26
REMARK    2  A    between atoms: O_6  and  C_27
REMARK    3  A    between atoms: N_7  and  C_9
REMARK    4  A    between atoms: N_7  and  C_14
REMARK    5  A    between atoms: C_9  and  C_12
REMARK    6  A    between atoms: C_12  and  C_13
REMARK    7  A    between atoms: C_14  and  C_18
REMARK    8  A    between atoms: C_15  and  C_17
REMARK    9  A    between atoms: C_15  and  C_19
REMARK   10  A    between atoms: C_15  and  C_20
REMARK   11  A    between atoms: C_15  and  C_21
REMARK                            x       y       z     vdW  Elec       q    Type
REMARK                         _______ _______ _______ _____ _____    ______ ____
ROOT
ATOM      7  N   UNL     1      -3.606   4.729  25.474  0.00  0.00    -0.302 NA
ATOM     28  H   UNL     1      -3.097   5.162  24.705  0.00  0.00    +0.123 HD
ENDROOT
BRANCH   7   9
ATOM      4  O   UNL     1      -6.150   3.250  26.459  0.00  0.00    -0.376 OA
ATOM      9  C   UNL     1      -4.599   3.741  25.077  0.00  0.00    +0.072 C 
ATOM     10  C   UNL     1      -4.808   2.765  26.229  0.00  0.00    +0.184 C 
ATOM     11  C   UNL     1      -5.985   4.263  25.441  0.00  0.00    +0.184 C 
BRANCH   9  12
ATOM     12  C   UNL     1      -4.360   3.185  23.666  0.00  0.00    +0.085 C 
BRANCH  12  13
ATOM      5  O   UNL     1      -2.474   0.186  23.220  0.00  0.00    -0.359 OA
ATOM      8  N   UNL     1      -2.769   1.510  22.914  0.00  0.00    -0.083 NA
ATOM     13  C   UNL     1      -3.784   1.833  23.720  0.00  0.00    +0.086 A 
ATOM     16  C   UNL     1      -4.169   0.764  24.548  0.00  0.00    +0.071 A 
ATOM     17  C   UNL     1      -3.314  -0.246  24.195  0.00  0.00    +0.143 A 
BRANCH  17  15
ATOM     15  C   UNL     1      -3.132  -1.699  24.663  0.00  0.00    +0.023 C 
ATOM     19  C   UNL     1      -1.736  -2.286  24.352  0.00  0.00    +0.019 C 
ATOM     20  C   UNL     1      -4.171  -2.604  23.966  0.00  0.00    +0.019 C 
ATOM     21  C   UNL     1      -3.331  -1.782  26.192  0.00  0.00    +0.019 C 
ENDBRANCH  17  15
ENDBRANCH  12  13
ENDBRANCH   9  12
ENDBRANCH   7   9
BRANCH   7  14
ATOM     14  C   UNL     1      -2.664   4.131  26.417  0.00  0.00    +0.117 C 
BRANCH  14  18
ATOM     18  C   UNL     1      -1.543   3.418  25.712  0.00  0.00    -0.033 A 
ATOM     22  C   UNL     1      -0.892   4.028  24.639  0.00  0.00    +0.008 A 
ATOM     23  C   UNL     1      -1.154   2.145  26.129  0.00  0.00    +0.008 A 
ATOM     24  C   UNL     1       0.147   3.367  23.985  0.00  0.00    +0.046 A 
ATOM     25  C   UNL     1      -0.114   1.483  25.476  0.00  0.00    +0.046 A 
ATOM     26  C   UNL     1       0.537   2.095  24.403  0.00  0.00    +0.130 A 
BRANCH  26   6
ATOM      6  O   UNL     1       1.551   1.449  23.765  0.00  0.00    -0.406 OA
BRANCH   6  27
ATOM      1  F   UNL     1       2.242   0.001  22.177  0.00  0.00    -0.133 F 
ATOM      2  F   UNL     1       1.173  -0.802  23.905  0.00  0.00    -0.133 F 
ATOM      3  F   UNL     1       0.095   0.367  22.370  0.00  0.00    -0.133 F 
ATOM     27  C   UNL     1       1.249   0.249  23.061  0.00  0.00    +0.575 C 
ENDBRANCH   6  27
ENDBRANCH  26   6
ENDBRANCH  14  18
ENDBRANCH   7  14
TORSDOF 8
ENDMDL
MODEL 2
REMARK VINA RESULT:      -4.3      3.218      5.892
REMARK  Name = 56775455
REMARK  11 active torsions:
REMARK  status: ('A' for Active; 'I' for Inactive)
REMARK    1  A    between atoms: O_6  and  C_26
REMARK    2  A    between atoms: O_6  and  C_27
REMARK    3  A    between atoms: N_7  and  C_9
REMARK    4  A    between atoms: N_7  and  C_14
REMARK    5  A    between atoms: C_9  and  C_12
REMARK    6  A    between atoms: C_12  and  C_13
REMARK    7  A    between atoms: C_14  and  C_18
REMARK    8  A    between atoms: C_15  and  C_17
REMARK    9  A    between atoms: C_15  and  C_19
REMARK   10  A    between atoms: C_15  and  C_20
REMARK   11  A    between atoms: C_15  and  C_21
REMARK                            x       y       z     vdW  Elec       q    Type
REMARK                         _______ _______ _______ _____ _____    ______ ____
ROOT
ATOM      7  N   UNL     1       0.579   1.001  22.829  0.00  0.00    -0.302 NA
ATOM     28  H   UNL     1       0.499   1.456  21.920  0.00  0.00    +0.123 HD
ENDROOT
BRANCH   7   9
ATOM      4  O   UNL     1       3.495   0.538  21.874  0.00  0.00    -0.376 OA
ATOM      9  C   UNL     1       1.716   0.103  22.970  0.00  0.00    +0.072 C 
ATOM     10  C   UNL     1       2.283  -0.194  21.586  0.00  0.00    +0.184 C 
ATOM     11  C   UNL     1       2.979   0.935  23.164  0.00  0.00    +0.184 C 
BRANCH   9  12
ATOM     12  C   UNL     1       1.441  -1.066  23.926  0.00  0.00    +0.085 C 
BRANCH  12  13
ATOM      5  O   UNL     1      -1.558  -0.512  25.785  0.00  0.00    -0.359 OA
ATOM      8  N   UNL     1      -0.188  -0.372  25.590  0.00  0.00    -0.083 NA
ATOM     13  C   UNL     1       0.066  -1.013  24.447  0.00  0.00    +0.086 A 
ATOM     16  C   UNL     1      -1.093  -1.572  23.879  0.00  0.00    +0.071 A 
ATOM     17  C   UNL     1      -2.085  -1.228  24.759  0.00  0.00    +0.143 A 
BRANCH  17  15
ATOM     15  C   UNL     1      -3.600  -1.484  24.808  0.00  0.00    +0.023 C 
ATOM     19  C   UNL     1      -4.423  -0.540  23.901  0.00  0.00    +0.019 C 
ATOM     20  C   UNL     1      -4.114  -1.289  26.251  0.00  0.00    +0.019 C 
ATOM     21  C   UNL     1      -3.899  -2.928  24.353  0.00  0.00    +0.019 C 
ENDBRANCH  17  15
ENDBRANCH  12  13
ENDBRANCH   9  12
ENDBRANCH   7   9
BRANCH   7  14
ATOM     14  C   UNL     1       0.611   2.009  23.887  0.00  0.00    +0.117 C 
BRANCH  14  18
ATOM     18  C   UNL     1      -0.748   2.608  24.129  0.00  0.00    -0.033 A 
ATOM     22  C   UNL     1      -1.846   2.174  23.386  0.00  0.00    +0.008 A 
ATOM     23  C   UNL     1      -0.910   3.600  25.096  0.00  0.00    +0.008 A 
ATOM     24  C   UNL     1      -3.105   2.729  23.610  0.00  0.00    +0.046 A 
ATOM     25  C   UNL     1      -2.169   4.157  25.321  0.00  0.00    +0.046 A 
ATOM     26  C   UNL     1      -3.267   3.721  24.578  0.00  0.00    +0.130 A 
BRANCH  26   6
ATOM      6  O   UNL     1      -4.496   4.263  24.797  0.00  0.00    -0.406 OA
BRANCH   6  27
ATOM      1  F   UNL     1      -6.540   4.256  25.756  0.00  0.00    -0.133 F 
ATOM      2  F   UNL     1      -5.882   2.445  24.724  0.00  0.00    -0.133 F 
ATOM      3  F   UNL     1      -4.977   3.020  26.657  0.00  0.00    -0.133 F 
ATOM     27  C   UNL     1      -5.465   3.480  25.485  0.00  0.00    +0.575 C 
ENDBRANCH   6  27
ENDBRANCH  26   6
ENDBRANCH  14  18
ENDBRANCH   7  14
TORSDOF 8
ENDMDL
MODEL 3
REMARK VINA RESULT:      -4.3      0.962      1.423
REMARK  Name = 56775455
REMARK  11 active torsions:
REMARK  status: ('A' for Active; 'I' for Inactive)
REMARK    1  A    between atoms: O_6  and  C_26
REMARK    2  A    between atoms: O_6  and  C_27
REMARK    3  A    between atoms: N_7  and  C_9
REMARK    4  A    between atoms: N_7  and  C_14
REMARK    5  A    between atoms: C_9  and  C_12
REMARK    6  A    between atoms: C_12  and  C_13
REMARK    7  A    between atoms: C_14  and  C_18
REMARK    8  A    between atoms: C_15  and  C_17
REMARK    9  A    between atoms: C_15  and  C_19
REMARK   10  A    between atoms: C_15  and  C_20
REMARK   11  A    between atoms: C_15  and  C_21
REMARK                            x       y       z     vdW  Elec       q    Type
REMARK                         _______ _______ _______ _____ _____    ______ ____
ROOT
ATOM      7  N   UNL     1      -2.791   4.528  24.936  0.00  0.00    -0.302 NA
ATOM     28  H   UNL     1      -2.279   4.679  24.068  0.00  0.00    +0.123 HD
ENDROOT
BRANCH   7   9
ATOM      4  O   UNL     1      -5.405   3.788  26.435  0.00  0.00    -0.376 OA
ATOM      9  C   UNL     1      -4.039   3.792  24.794  0.00  0.00    +0.072 C 
ATOM     10  C   UNL     1      -4.272   2.974  26.059  0.00  0.00    +0.184 C 
ATOM     11  C   UNL     1      -5.183   4.662  25.305  0.00  0.00    +0.184 C 
BRANCH   9  12
ATOM     12  C   UNL     1      -4.178   3.105  23.429  0.00  0.00    +0.085 C 
BRANCH  12  13
ATOM      5  O   UNL     1      -2.658  -0.086  22.924  0.00  0.00    -0.359 OA
ATOM      8  N   UNL     1      -2.870   1.243  22.577  0.00  0.00    -0.083 NA
ATOM     13  C   UNL     1      -3.727   1.706  23.490  0.00  0.00    +0.086 A 
ATOM     16  C   UNL     1      -4.088   0.725  24.430  0.00  0.00    +0.071 A 
ATOM     17  C   UNL     1      -3.389  -0.383  24.029  0.00  0.00    +0.143 A 
BRANCH  17  15
ATOM     15  C   UNL     1      -3.277  -1.821  24.561  0.00  0.00    +0.023 C 
ATOM     19  C   UNL     1      -3.464  -1.939  26.091  0.00  0.00    +0.019 C 
ATOM     20  C   UNL     1      -1.881  -2.391  24.228  0.00  0.00    +0.019 C 
ATOM     21  C   UNL     1      -4.357  -2.704  23.900  0.00  0.00    +0.019 C 
ENDBRANCH  17  15
ENDBRANCH  12  13
ENDBRANCH   9  12
ENDBRANCH   7   9
BRANCH   7  14
ATOM     14  C   UNL     1      -1.930   3.858  25.908  0.00  0.00    +0.117 C 
BRANCH  14  18
ATOM     18  C   UNL     1      -1.108   2.770  25.272  0.00  0.00    -0.033 A 
ATOM     22  C   UNL     1      -0.418   3.019  24.086  0.00  0.00    +0.008 A 
ATOM     23  C   UNL     1      -1.037   1.511  25.867  0.00  0.00    +0.008 A 
ATOM     24  C   UNL     1       0.344   2.011  23.496  0.00  0.00    +0.046 A 
ATOM     25  C   UNL     1      -0.276   0.501  25.278  0.00  0.00    +0.046 A 
ATOM     26  C   UNL     1       0.415   0.752  24.092  0.00  0.00    +0.130 A 
BRANCH  26   6
ATOM      6  O   UNL     1       1.158  -0.233  23.517  0.00  0.00    -0.406 OA
BRANCH   6  27
ATOM      1  F   UNL     1       3.323  -0.730  23.114  0.00  0.00    -0.133 F 
ATOM      2  F   UNL     1       2.132   0.080  21.471  0.00  0.00    -0.133 F 
ATOM      3  F   UNL     1       2.742   1.378  23.153  0.00  0.00    -0.133 F 
ATOM     27  C   UNL     1       2.334   0.139  22.805  0.00  0.00    +0.575 C 
ENDBRANCH   6  27
ENDBRANCH  26   6
ENDBRANCH  14  18
ENDBRANCH   7  14
TORSDOF 8
ENDMDL
MODEL 4
REMARK VINA RESULT:      -4.2      3.077      6.586
REMARK  Name = 56775455
REMARK  11 active torsions:
REMARK  status: ('A' for Active; 'I' for Inactive)
REMARK    1  A    between atoms: O_6  and  C_26
REMARK    2  A    between atoms: O_6  and  C_27
REMARK    3  A    between atoms: N_7  and  C_9
REMARK    4  A    between atoms: N_7  and  C_14
REMARK    5  A    between atoms: C_9  and  C_12
REMARK    6  A    between atoms: C_12  and  C_13
REMARK    7  A    between atoms: C_14  and  C_18
REMARK    8  A    between atoms: C_15  and  C_17
REMARK    9  A    between atoms: C_15  and  C_19
REMARK   10  A    between atoms: C_15  and  C_20
REMARK   11  A    between atoms: C_15  and  C_21
REMARK                            x       y       z     vdW  Elec       q    Type
REMARK                         _______ _______ _______ _____ _____    ______ ____
ROOT
ATOM      7  N   UNL     1       0.494  -0.764  24.267  0.00  0.00    -0.302 NA
ATOM     28  H   UNL     1       1.079  -1.494  24.670  0.00  0.00    +0.123 HD
ENDROOT
BRANCH   7   9
ATOM      4  O   UNL     1       1.492  -0.624  21.332  0.00  0.00    -0.376 OA
ATOM      9  C   UNL     1       1.165   0.106  23.311  0.00  0.00    +0.072 C 
ATOM     10  C   UNL     1       2.226  -0.702  22.574  0.00  0.00    +0.184 C 
ATOM     11  C   UNL     1       0.404   0.064  21.991  0.00  0.00    +0.184 C 
BRANCH   9  12
ATOM     12  C   UNL     1       1.548   1.467  23.907  0.00  0.00    +0.085 C 
BRANCH  12  13
ATOM      5  O   UNL     1      -1.142   2.511  26.011  0.00  0.00    -0.359 OA
ATOM      8  N   UNL     1      -0.059   1.691  25.716  0.00  0.00    -0.083 NA
ATOM     13  C   UNL     1       0.387   2.119  24.532  0.00  0.00    +0.086 A 
ATOM     16  C   UNL     1      -0.368   3.196  24.035  0.00  0.00    +0.071 A 
ATOM     17  C   UNL     1      -1.316   3.403  25.002  0.00  0.00    +0.143 A 
BRANCH  17  15
ATOM     15  C   UNL     1      -2.478   4.397  25.158  0.00  0.00    +0.023 C 
ATOM     19  C   UNL     1      -3.511   4.338  24.009  0.00  0.00    +0.019 C 
ATOM     20  C   UNL     1      -1.927   5.839  25.201  0.00  0.00    +0.019 C 
ATOM     21  C   UNL     1      -3.239   4.106  26.470  0.00  0.00    +0.019 C 
ENDBRANCH  17  15
ENDBRANCH  12  13
ENDBRANCH   9  12
ENDBRANCH   7   9
BRANCH   7  14
ATOM     14  C   UNL     1      -0.688  -1.360  23.648  0.00  0.00    +0.117 C 
BRANCH  14  18
ATOM     18  C   UNL     1      -1.962  -0.789  24.209  0.00  0.00    -0.033 A 
ATOM     22  C   UNL     1      -2.495  -1.299  25.393  0.00  0.00    +0.008 A 
ATOM     23  C   UNL     1      -2.611   0.252  23.545  0.00  0.00    +0.008 A 
ATOM     24  C   UNL     1      -3.676  -0.770  25.912  0.00  0.00    +0.046 A 
ATOM     25  C   UNL     1      -3.792   0.782  24.063  0.00  0.00    +0.046 A 
ATOM     26  C   UNL     1      -4.324   0.272  25.248  0.00  0.00    +0.130 A 
BRANCH  26   6
ATOM      6  O   UNL     1      -5.477   0.789  25.754  0.00  0.00    -0.406 OA
BRANCH   6  27
ATOM      1  F   UNL     1      -7.246   1.657  24.654  0.00  0.00    -0.133 F 
ATOM      2  F   UNL     1      -6.160   2.953  26.037  0.00  0.00    -0.133 F 
ATOM      3  F   UNL     1      -5.250   2.365  24.111  0.00  0.00    -0.133 F 
ATOM     27  C   UNL     1      -6.020   1.953  25.141  0.00  0.00    +0.575 C 
ENDBRANCH   6  27
ENDBRANCH  26   6
ENDBRANCH  14  18
ENDBRANCH   7  14
TORSDOF 8
ENDMDL
MODEL 5
REMARK VINA RESULT:      -3.1      2.089      4.809
REMARK  Name = 56775455
REMARK  11 active torsions:
REMARK  status: ('A' for Active; 'I' for Inactive)
REMARK    1  A    between atoms: O_6  and  C_26
REMARK    2  A    between atoms: O_6  and  C_27
REMARK    3  A    between atoms: N_7  and  C_9
REMARK    4  A    between atoms: N_7  and  C_14
REMARK    5  A    between atoms: C_9  and  C_12
REMARK    6  A    between atoms: C_12  and  C_13
REMARK    7  A    between atoms: C_14  and  C_18
REMARK    8  A    between atoms: C_15  and  C_17
REMARK    9  A    between atoms: C_15  and  C_19
REMARK   10  A    between atoms: C_15  and  C_20
REMARK   11  A    between atoms: C_15  and  C_21
REMARK                            x       y       z     vdW  Elec       q    Type
REMARK                         _______ _______ _______ _____ _____    ______ ____
ROOT
ATOM      7  N   UNL     1      -2.509  -0.696  23.723  0.00  0.00    -0.302 NA
ATOM     28  H   UNL     1      -2.026  -1.352  23.110  0.00  0.00    +0.123 HD
ENDROOT
BRANCH   7   9
ATOM      4  O   UNL     1      -3.522  -3.101  25.402  0.00  0.00    -0.376 OA
ATOM      9  C   UNL     1      -3.688  -1.229  24.389  0.00  0.00    +0.072 C 
ATOM     10  C   UNL     1      -3.821  -2.708  24.044  0.00  0.00    +0.184 C 
ATOM     11  C   UNL     1      -3.289  -1.724  25.775  0.00  0.00    +0.184 C 
BRANCH   9  12
ATOM     12  C   UNL     1      -4.917  -0.321  24.249  0.00  0.00    +0.085 C 
BRANCH  12  13
ATOM      5  O   UNL     1      -4.905   2.875  25.842  0.00  0.00    -0.359 OA
ATOM      8  N   UNL     1      -5.464   1.626  25.597  0.00  0.00    -0.083 NA
ATOM     13  C   UNL     1      -4.631   1.038  24.733  0.00  0.00    +0.086 A 
ATOM     16  C   UNL     1      -3.540   1.860  24.401  0.00  0.00    +0.071 A 
ATOM     17  C   UNL     1      -3.759   3.002  25.125  0.00  0.00    +0.143 A 
BRANCH  17  15
ATOM     15  C   UNL     1      -3.000   4.331  25.274  0.00  0.00    +0.023 C 
ATOM     19  C   UNL     1      -1.462   4.178  25.248  0.00  0.00    +0.019 C 
ATOM     20  C   UNL     1      -3.370   4.993  26.619  0.00  0.00    +0.019 C 
ATOM     21  C   UNL     1      -3.383   5.280  24.118  0.00  0.00    +0.019 C 
ENDBRANCH  17  15
ENDBRANCH  12  13
ENDBRANCH   9  12
ENDBRANCH   7   9
BRANCH   7  14
ATOM     14  C   UNL     1      -1.576  -0.167  24.716  0.00  0.00    +0.117 C 
BRANCH  14  18
ATOM     18  C   UNL     1      -0.220   0.101  24.123  0.00  0.00    -0.033 A 
ATOM     22  C   UNL     1       0.369  -0.836  23.274  0.00  0.00    +0.008 A 
ATOM     23  C   UNL     1       0.451   1.287  24.423  0.00  0.00    +0.008 A 
ATOM     24  C   UNL     1       1.627  -0.588  22.725  0.00  0.00    +0.046 A 
ATOM     25  C   UNL     1       1.708   1.536  23.874  0.00  0.00    +0.046 A 
ATOM     26  C   UNL     1       2.296   0.599  23.024  0.00  0.00    +0.130 A 
BRANCH  26   6
ATOM      6  O   UNL     1       3.523   0.841  22.488  0.00  0.00    -0.406 OA
BRANCH   6  27
ATOM      1  F   UNL     1       5.083   0.963  24.115  0.00  0.00    -0.133 F 
ATOM      2  F   UNL     1       4.332  -1.011  23.557  0.00  0.00    -0.133 F 
ATOM      3  F   UNL     1       5.668   0.101  22.193  0.00  0.00    -0.133 F 
ATOM     27  C   UNL     1       4.654   0.209  23.078  0.00  0.00    +0.575 C 
ENDBRANCH   6  27
ENDBRANCH  26   6
ENDBRANCH  14  18
ENDBRANCH   7  14
TORSDOF 8
ENDMDL
MODEL 6
REMARK VINA RESULT:      -3.0      2.424      5.052
REMARK  Name = 56775455
REMARK  11 active torsions:
REMARK  status: ('A' for Active; 'I' for Inactive)
REMARK    1  A    between atoms: O_6  and  C_26
REMARK    2  A    between atoms: O_6  and  C_27
REMARK    3  A    between atoms: N_7  and  C_9
REMARK    4  A    between atoms: N_7  and  C_14
REMARK    5  A    between atoms: C_9  and  C_12
REMARK    6  A    between atoms: C_12  and  C_13
REMARK    7  A    between atoms: C_14  and  C_18
REMARK    8  A    between atoms: C_15  and  C_17
REMARK    9  A    between atoms: C_15  and  C_19
REMARK   10  A    between atoms: C_15  and  C_20
REMARK   11  A    between atoms: C_15  and  C_21
REMARK                            x       y       z     vdW  Elec       q    Type
REMARK                         _______ _______ _______ _____ _____    ______ ____
ROOT
ATOM      7  N   UNL     1      -2.952  -1.463  25.681  0.00  0.00    -0.302 NA
ATOM     28  H   UNL     1      -3.365  -0.554  25.887  0.00  0.00    +0.123 HD
ENDROOT
BRANCH   7   9
ATOM      4  O   UNL     1      -2.831  -4.042  23.959  0.00  0.00    -0.376 OA
ATOM      9  C   UNL     1      -3.242  -1.985  24.353  0.00  0.00    +0.072 C 
ATOM     10  C   UNL     1      -2.058  -2.823  23.885  0.00  0.00    +0.184 C 
ATOM     11  C   UNL     1      -3.963  -3.320  24.496  0.00  0.00    +0.184 C 
BRANCH   9  12
ATOM     12  C   UNL     1      -3.821  -0.924  23.406  0.00  0.00    +0.085 C 
BRANCH  12  13
ATOM      5  O   UNL     1      -5.124   1.559  25.618  0.00  0.00    -0.359 OA
ATOM      8  N   UNL     1      -5.019   0.248  25.166  0.00  0.00    -0.083 NA
ATOM     13  C   UNL     1      -4.171   0.305  24.136  0.00  0.00    +0.086 A 
ATOM     16  C   UNL     1      -3.712   1.611  23.893  0.00  0.00    +0.071 A 
ATOM     17  C   UNL     1      -4.341   2.361  24.852  0.00  0.00    +0.143 A 
BRANCH  17  15
ATOM     15  C   UNL     1      -4.332   3.856  25.209  0.00  0.00    +0.023 C 
ATOM     19  C   UNL     1      -3.315   4.230  26.312  0.00  0.00    +0.019 C 
ATOM     20  C   UNL     1      -5.729   4.277  25.718  0.00  0.00    +0.019 C 
ATOM     21  C   UNL     1      -3.976   4.688  23.958  0.00  0.00    +0.019 C 
ENDBRANCH  17  15
ENDBRANCH  12  13
ENDBRANCH   9  12
ENDBRANCH   7   9
BRANCH   7  14
ATOM     14  C   UNL     1      -1.506  -1.408  25.884  0.00  0.00    +0.117 C 
BRANCH  14  18
ATOM     18  C   UNL     1      -0.931  -0.084  25.458  0.00  0.00    -0.033 A 
ATOM     22  C   UNL     1      -1.043   1.028  26.293  0.00  0.00    +0.008 A 
ATOM     23  C   UNL     1      -0.287   0.032  24.226  0.00  0.00    +0.008 A 
ATOM     24  C   UNL     1      -0.510   2.255  25.897  0.00  0.00    +0.046 A 
ATOM     25  C   UNL     1       0.246   1.259  23.830  0.00  0.00    +0.046 A 
ATOM     26  C   UNL     1       0.135   2.370  24.666  0.00  0.00    +0.130 A 
BRANCH  26   6
ATOM      6  O   UNL     1       0.655   3.567  24.280  0.00  0.00    -0.406 OA
BRANCH   6  27
ATOM      1  F   UNL     1      -1.413   4.041  23.508  0.00  0.00    -0.133 F 
ATOM      2  F   UNL     1      -0.508   5.423  24.938  0.00  0.00    -0.133 F 
ATOM      3  F   UNL     1       0.243   5.315  22.862  0.00  0.00    -0.133 F 
ATOM     27  C   UNL     1      -0.246   4.602  23.899  0.00  0.00    +0.575 C 
ENDBRANCH   6  27
ENDBRANCH  26   6
ENDBRANCH  14  18
ENDBRANCH   7  14
TORSDOF 8
ENDMDL
