MODEL 1
REMARK VINA RESULT:      -4.6      0.000      0.000
REMARK  Name = 28961842
REMARK  11 active torsions:
REMARK  status: ('A' for Active; 'I' for Inactive)
REMARK    1  A    between atoms: O_3  and  C_11
REMARK    2  A    between atoms: O_4  and  C_17
REMARK    3  A    between atoms: O_4  and  C_20
REMARK    4  A    between atoms: O_5  and  C_18
REMARK    5  A    between atoms: N_6  and  C_8
REMARK    6  A    between atoms: N_7  and  C_16
REMARK    7  A    between atoms: N_7  and  C_19
REMARK    8  A    between atoms: C_9  and  C_16
REMARK    9  A    between atoms: C_10  and  C_17
REMARK   10  A    between atoms: C_13  and  C_18
REMARK   11  A    between atoms: C_19  and  C_21
REMARK                            x       y       z     vdW  Elec       q    Type
REMARK                         _______ _______ _______ _____ _____    ______ ____
ROOT
ATOM      2  O   UNL     1       1.062   1.664  23.530  0.00  0.00    -0.366 OA
ATOM      8  C   UNL     1      -1.010   0.604  24.027  0.00  0.00    +0.118 C 
ATOM      9  C   UNL     1      -0.155   1.850  24.287  0.00  0.00    +0.152 C 
ATOM     11  C   UNL     1       0.025  -0.458  23.689  0.00  0.00    +0.165 C 
ATOM     13  C   UNL     1       1.029   0.371  22.896  0.00  0.00    +0.174 C 
ENDROOT
BRANCH   8   6
ATOM      6  N   UNL     1      -1.951   0.240  25.072  0.00  0.00    -0.289 NA
ATOM     10  C   UNL     1      -3.338   0.043  24.637  0.00  0.00    +0.083 C 
ATOM     12  C   UNL     1      -1.555  -0.960  25.807  0.00  0.00    +0.085 C 
ATOM     14  C   UNL     1      -3.949  -0.574  25.893  0.00  0.00    +0.022 C 
ATOM     15  C   UNL     1      -2.832  -1.416  26.501  0.00  0.00    +0.017 C 
BRANCH  10  17
ATOM     17  C   UNL     1      -3.538  -0.858  23.415  0.00  0.00    +0.178 C 
BRANCH  17   4
ATOM      4  O   UNL     1      -4.493  -1.853  23.738  0.00  0.00    -0.381 OA
ATOM     20  C   UNL     1      -3.918  -3.155  23.738  0.00  0.00    +0.194 C 
ENDBRANCH  17   4
ENDBRANCH  10  17
ENDBRANCH   8   6
BRANCH  11   3
ATOM      3  O   UNL     1       0.633  -0.985  24.860  0.00  0.00    -0.388 OA
ATOM     27  H   UNL     1      -0.078  -1.221  25.480  0.00  0.00    +0.210 HD
ENDBRANCH  11   3
BRANCH   9  16
ATOM     16  C   UNL     1       0.247   2.115  25.733  0.00  0.00    +0.114 C 
BRANCH  16   7
ATOM      7  N   UNL     1      -0.819   2.794  26.454  0.00  0.00    -0.310 NA
ATOM     28  H   UNL     1      -0.452   3.165  27.331  0.00  0.00    +0.122 HD
BRANCH   7  19
ATOM     19  C   UNL     1      -1.376   3.881  25.659  0.00  0.00    +0.116 C 
BRANCH  19  21
ATOM      1 CL   UNL     1      -6.245   2.404  26.794  0.00  0.00    -0.084 Cl
ATOM     21  C   UNL     1      -2.772   3.570  25.186  0.00  0.00    -0.032 A 
ATOM     22  C   UNL     1      -3.747   3.178  26.102  0.00  0.00    +0.025 A 
ATOM     23  C   UNL     1      -3.088   3.674  23.831  0.00  0.00    +0.005 A 
ATOM     24  C   UNL     1      -5.041   2.891  25.664  0.00  0.00    +0.041 A 
ATOM     25  C   UNL     1      -4.380   3.386  23.393  0.00  0.00    +0.002 A 
ATOM     26  C   UNL     1      -5.357   2.995  24.309  0.00  0.00    +0.020 A 
ENDBRANCH  19  21
ENDBRANCH   7  19
ENDBRANCH  16   7
ENDBRANCH   9  16
BRANCH  13  18
ATOM     18  C   UNL     1       2.437  -0.192  22.834  0.00  0.00    +0.190 C 
BRANCH  18   5
ATOM      5  O   UNL     1       3.351   0.811  23.246  0.00  0.00    -0.392 OA
ATOM     29  H   UNL     1       3.261   1.554  22.625  0.00  0.00    +0.210 HD
ENDBRANCH  18   5
ENDBRANCH  13  18
TORSDOF 10
ENDMDL
MODEL 2
REMARK VINA RESULT:      -4.0      1.183      1.537
REMARK  Name = 28961842
REMARK  11 active torsions:
REMARK  status: ('A' for Active; 'I' for Inactive)
REMARK    1  A    between atoms: O_3  and  C_11
REMARK    2  A    between atoms: O_4  and  C_17
REMARK    3  A    between atoms: O_4  and  C_20
REMARK    4  A    between atoms: O_5  and  C_18
REMARK    5  A    between atoms: N_6  and  C_8
REMARK    6  A    between atoms: N_7  and  C_16
REMARK    7  A    between atoms: N_7  and  C_19
REMARK    8  A    between atoms: C_9  and  C_16
REMARK    9  A    between atoms: C_10  and  C_17
REMARK   10  A    between atoms: C_13  and  C_18
REMARK   11  A    between atoms: C_19  and  C_21
REMARK                            x       y       z     vdW  Elec       q    Type
REMARK                         _______ _______ _______ _____ _____    ______ ____
ROOT
ATOM      2  O   UNL     1       1.238   1.583  23.647  0.00  0.00    -0.366 OA
ATOM      8  C   UNL     1      -0.729   0.258  23.855  0.00  0.00    +0.118 C 
ATOM      9  C   UNL     1      -0.039   1.546  24.323  0.00  0.00    +0.152 C 
ATOM     11  C   UNL     1       0.440  -0.639  23.479  0.00  0.00    +0.165 C 
ATOM     13  C   UNL     1       1.393   0.382  22.868  0.00  0.00    +0.174 C 
ENDROOT
BRANCH   8   6
ATOM      6  N   UNL     1      -1.688  -0.327  24.775  0.00  0.00    -0.289 NA
ATOM     10  C   UNL     1      -3.034   0.255  24.743  0.00  0.00    +0.083 C 
ATOM     12  C   UNL     1      -1.839  -1.771  24.603  0.00  0.00    +0.085 C 
ATOM     14  C   UNL     1      -3.804  -0.751  25.596  0.00  0.00    +0.022 C 
ATOM     15  C   UNL     1      -3.156  -2.099  25.296  0.00  0.00    +0.017 C 
BRANCH  10  17
ATOM     17  C   UNL     1      -3.666   0.414  23.357  0.00  0.00    +0.178 C 
BRANCH  17   4
ATOM      4  O   UNL     1      -3.618   1.783  22.992  0.00  0.00    -0.381 OA
ATOM     20  C   UNL     1      -2.671   2.019  21.957  0.00  0.00    +0.194 C 
ENDBRANCH  17   4
ENDBRANCH  10  17
ENDBRANCH   8   6
BRANCH  11   3
ATOM      3  O   UNL     1       1.026  -1.240  24.626  0.00  0.00    -0.388 OA
ATOM     27  H   UNL     1       1.858  -0.773  24.810  0.00  0.00    +0.210 HD
ENDBRANCH  11   3
BRANCH   9  16
ATOM     16  C   UNL     1       0.236   1.671  25.817  0.00  0.00    +0.114 C 
BRANCH  16   7
ATOM      7  N   UNL     1      -0.776   2.492  26.466  0.00  0.00    -0.310 NA
ATOM     28  H   UNL     1      -0.451   2.757  27.396  0.00  0.00    +0.122 HD
BRANCH   7  19
ATOM     19  C   UNL     1      -1.055   3.690  25.685  0.00  0.00    +0.116 C 
BRANCH  19  21
ATOM      1 CL   UNL     1      -5.960   2.221  26.657  0.00  0.00    -0.084 Cl
ATOM     21  C   UNL     1      -2.526   3.846  25.405  0.00  0.00    -0.032 A 
ATOM     22  C   UNL     1      -3.453   3.055  26.082  0.00  0.00    +0.025 A 
ATOM     23  C   UNL     1      -2.961   4.783  24.467  0.00  0.00    +0.005 A 
ATOM     24  C   UNL     1      -4.816   3.201  25.823  0.00  0.00    +0.041 A 
ATOM     25  C   UNL     1      -4.323   4.928  24.208  0.00  0.00    +0.002 A 
ATOM     26  C   UNL     1      -5.252   4.137  24.886  0.00  0.00    +0.020 A 
ENDBRANCH  19  21
ENDBRANCH   7  19
ENDBRANCH  16   7
ENDBRANCH   9  16
BRANCH  13  18
ATOM     18  C   UNL     1       2.857  -0.019  22.851  0.00  0.00    +0.190 C 
BRANCH  18   5
ATOM      5  O   UNL     1       3.641   1.090  23.260  0.00  0.00    -0.392 OA
ATOM     29  H   UNL     1       3.049   1.699  23.734  0.00  0.00    +0.210 HD
ENDBRANCH  18   5
ENDBRANCH  13  18
TORSDOF 10
ENDMDL
MODEL 3
REMARK VINA RESULT:      -3.5      1.790      4.057
REMARK  Name = 28961842
REMARK  11 active torsions:
REMARK  status: ('A' for Active; 'I' for Inactive)
REMARK    1  A    between atoms: O_3  and  C_11
REMARK    2  A    between atoms: O_4  and  C_17
REMARK    3  A    between atoms: O_4  and  C_20
REMARK    4  A    between atoms: O_5  and  C_18
REMARK    5  A    between atoms: N_6  and  C_8
REMARK    6  A    between atoms: N_7  and  C_16
REMARK    7  A    between atoms: N_7  and  C_19
REMARK    8  A    between atoms: C_9  and  C_16
REMARK    9  A    between atoms: C_10  and  C_17
REMARK   10  A    between atoms: C_13  and  C_18
REMARK   11  A    between atoms: C_19  and  C_21
REMARK                            x       y       z     vdW  Elec       q    Type
REMARK                         _______ _______ _______ _____ _____    ______ ____
ROOT
ATOM      2  O   UNL     1       0.418  -1.120  23.822  0.00  0.00    -0.366 OA
ATOM      8  C   UNL     1       0.139   1.063  24.728  0.00  0.00    +0.118 C 
ATOM      9  C   UNL     1      -0.362  -0.385  24.792  0.00  0.00    +0.152 C 
ATOM     11  C   UNL     1       0.683   1.176  23.312  0.00  0.00    +0.165 C 
ATOM     13  C   UNL     1       1.296  -0.208  23.136  0.00  0.00    +0.174 C 
ENDROOT
BRANCH   8   6
ATOM      6  N   UNL     1      -0.814   2.090  25.109  0.00  0.00    -0.289 NA
ATOM     10  C   UNL     1      -0.841   2.434  26.534  0.00  0.00    +0.083 C 
ATOM     12  C   UNL     1      -0.638   3.338  24.368  0.00  0.00    +0.085 C 
ATOM     14  C   UNL     1      -1.717   3.685  26.514  0.00  0.00    +0.022 C 
ATOM     15  C   UNL     1      -1.381   4.378  25.198  0.00  0.00    +0.017 C 
BRANCH  10  17
ATOM     17  C   UNL     1       0.518   2.712  27.185  0.00  0.00    +0.178 C 
BRANCH  17   4
ATOM      4  O   UNL     1       0.477   2.262  28.528  0.00  0.00    -0.381 OA
ATOM     20  C   UNL     1       1.702   2.516  29.206  0.00  0.00    +0.194 C 
ENDBRANCH  17   4
ENDBRANCH  10  17
ENDBRANCH   8   6
BRANCH  11   3
ATOM      3  O   UNL     1      -0.360   1.380  22.369  0.00  0.00    -0.388 OA
ATOM     27  H   UNL     1      -0.779   2.233  22.572  0.00  0.00    +0.210 HD
ENDBRANCH  11   3
BRANCH   9  16
ATOM     16  C   UNL     1      -1.832  -0.616  24.458  0.00  0.00    +0.114 C 
BRANCH  16   7
ATOM      7  N   UNL     1      -2.621  -0.780  25.670  0.00  0.00    -0.310 NA
ATOM     28  H   UNL     1      -2.239  -0.185  26.406  0.00  0.00    +0.122 HD
BRANCH   7  19
ATOM     19  C   UNL     1      -4.016  -0.434  25.435  0.00  0.00    +0.116 C 
BRANCH  19  21
ATOM      1 CL   UNL     1      -5.893   4.422  25.699  0.00  0.00    -0.084 Cl
ATOM     21  C   UNL     1      -4.157   0.929  24.810  0.00  0.00    -0.032 A 
ATOM     22  C   UNL     1      -4.875   1.927  25.467  0.00  0.00    +0.025 A 
ATOM     23  C   UNL     1      -3.570   1.192  23.572  0.00  0.00    +0.005 A 
ATOM     24  C   UNL     1      -5.004   3.190  24.888  0.00  0.00    +0.041 A 
ATOM     25  C   UNL     1      -3.700   2.453  22.993  0.00  0.00    +0.002 A 
ATOM     26  C   UNL     1      -4.417   3.453  23.651  0.00  0.00    +0.020 A 
ENDBRANCH  19  21
ENDBRANCH   7  19
ENDBRANCH  16   7
ENDBRANCH   9  16
BRANCH  13  18
ATOM     18  C   UNL     1       1.471  -0.667  21.699  0.00  0.00    +0.190 C 
BRANCH  18   5
ATOM      5  O   UNL     1       2.539   0.059  21.113  0.00  0.00    -0.392 OA
ATOM     29  H   UNL     1       3.284   0.029  21.738  0.00  0.00    +0.210 HD
ENDBRANCH  18   5
ENDBRANCH  13  18
TORSDOF 10
ENDMDL
MODEL 4
REMARK VINA RESULT:      -3.1      3.080      6.053
REMARK  Name = 28961842
REMARK  11 active torsions:
REMARK  status: ('A' for Active; 'I' for Inactive)
REMARK    1  A    between atoms: O_3  and  C_11
REMARK    2  A    between atoms: O_4  and  C_17
REMARK    3  A    between atoms: O_4  and  C_20
REMARK    4  A    between atoms: O_5  and  C_18
REMARK    5  A    between atoms: N_6  and  C_8
REMARK    6  A    between atoms: N_7  and  C_16
REMARK    7  A    between atoms: N_7  and  C_19
REMARK    8  A    between atoms: C_9  and  C_16
REMARK    9  A    between atoms: C_10  and  C_17
REMARK   10  A    between atoms: C_13  and  C_18
REMARK   11  A    between atoms: C_19  and  C_21
REMARK                            x       y       z     vdW  Elec       q    Type
REMARK                         _______ _______ _______ _____ _____    ______ ____
ROOT
ATOM      2  O   UNL     1      -2.242  -0.878  23.951  0.00  0.00    -0.366 OA
ATOM      8  C   UNL     1      -3.711   0.946  24.381  0.00  0.00    +0.118 C 
ATOM      9  C   UNL     1      -2.245   0.495  24.403  0.00  0.00    +0.152 C 
ATOM     11  C   UNL     1      -4.474  -0.360  24.548  0.00  0.00    +0.165 C 
ATOM     13  C   UNL     1      -3.600  -1.302  23.728  0.00  0.00    +0.174 C 
ENDROOT
BRANCH   8   6
ATOM      6  N   UNL     1      -4.074   1.999  25.312  0.00  0.00    -0.289 NA
ATOM     10  C   UNL     1      -3.163   3.148  25.357  0.00  0.00    +0.083 C 
ATOM     12  C   UNL     1      -5.419   2.524  25.087  0.00  0.00    +0.085 C 
ATOM     14  C   UNL     1      -3.977   4.130  26.196  0.00  0.00    +0.022 C 
ATOM     15  C   UNL     1      -5.430   3.862  25.816  0.00  0.00    +0.017 C 
BRANCH  10  17
ATOM     17  C   UNL     1      -2.777   3.754  24.004  0.00  0.00    +0.178 C 
BRANCH  17   4
ATOM      4  O   UNL     1      -2.169   5.014  24.229  0.00  0.00    -0.381 OA
ATOM     20  C   UNL     1      -0.930   4.885  24.918  0.00  0.00    +0.194 C 
ENDBRANCH  17   4
ENDBRANCH  10  17
ENDBRANCH   8   6
BRANCH  11   3
ATOM      3  O   UNL     1      -4.507  -0.772  25.908  0.00  0.00    -0.388 OA
ATOM     27  H   UNL     1      -5.426  -1.005  26.122  0.00  0.00    +0.210 HD
ENDBRANCH  11   3
BRANCH   9  16
ATOM     16  C   UNL     1      -1.540   0.528  25.755  0.00  0.00    +0.114 C 
BRANCH  16   7
ATOM      7  N   UNL     1      -0.149   0.927  25.607  0.00  0.00    -0.310 NA
ATOM     28  H   UNL     1       0.445   0.098  25.623  0.00  0.00    +0.122 HD
BRANCH   7  19
ATOM     19  C   UNL     1       0.056   1.652  24.360  0.00  0.00    +0.116 C 
BRANCH  19  21
ATOM      1 CL   UNL     1       5.033   0.795  23.067  0.00  0.00    -0.084 Cl
ATOM     21  C   UNL     1       1.056   0.962  23.470  0.00  0.00    -0.032 A 
ATOM     22  C   UNL     1       2.421   1.173  23.659  0.00  0.00    +0.025 A 
ATOM     23  C   UNL     1       0.615   0.113  22.454  0.00  0.00    +0.005 A 
ATOM     24  C   UNL     1       3.347   0.533  22.834  0.00  0.00    +0.041 A 
ATOM     25  C   UNL     1       1.541  -0.526  21.629  0.00  0.00    +0.002 A 
ATOM     26  C   UNL     1       2.907  -0.316  21.819  0.00  0.00    +0.020 A 
ENDBRANCH  19  21
ENDBRANCH   7  19
ENDBRANCH  16   7
ENDBRANCH   9  16
BRANCH  13  18
ATOM     18  C   UNL     1      -3.727  -2.776  24.072  0.00  0.00    +0.190 C 
BRANCH  18   5
ATOM      5  O   UNL     1      -3.259  -2.979  25.395  0.00  0.00    -0.392 OA
ATOM     29  H   UNL     1      -2.771  -3.821  25.400  0.00  0.00    +0.210 HD
ENDBRANCH  18   5
ENDBRANCH  13  18
TORSDOF 10
ENDMDL
MODEL 5
REMARK VINA RESULT:      -3.0      1.729      4.472
REMARK  Name = 28961842
REMARK  11 active torsions:
REMARK  status: ('A' for Active; 'I' for Inactive)
REMARK    1  A    between atoms: O_3  and  C_11
REMARK    2  A    between atoms: O_4  and  C_17
REMARK    3  A    between atoms: O_4  and  C_20
REMARK    4  A    between atoms: O_5  and  C_18
REMARK    5  A    between atoms: N_6  and  C_8
REMARK    6  A    between atoms: N_7  and  C_16
REMARK    7  A    between atoms: N_7  and  C_19
REMARK    8  A    between atoms: C_9  and  C_16
REMARK    9  A    between atoms: C_10  and  C_17
REMARK   10  A    between atoms: C_13  and  C_18
REMARK   11  A    between atoms: C_19  and  C_21
REMARK                            x       y       z     vdW  Elec       q    Type
REMARK                         _______ _______ _______ _____ _____    ______ ____
ROOT
ATOM      2  O   UNL     1       0.971   1.646  24.931  0.00  0.00    -0.366 OA
ATOM      8  C   UNL     1      -1.132   2.623  24.392  0.00  0.00    +0.118 C 
ATOM      9  C   UNL     1      -0.221   2.186  25.546  0.00  0.00    +0.152 C 
ATOM     11  C   UNL     1      -0.692   1.724  23.247  0.00  0.00    +0.165 C 
ATOM     13  C   UNL     1       0.810   1.664  23.500  0.00  0.00    +0.174 C 
ENDROOT
BRANCH   8   6
ATOM      6  N   UNL     1      -2.559   2.625  24.665  0.00  0.00    -0.289 NA
ATOM     10  C   UNL     1      -3.019   3.626  25.632  0.00  0.00    +0.083 C 
ATOM     12  C   UNL     1      -3.372   2.784  23.460  0.00  0.00    +0.085 C 
ATOM     14  C   UNL     1      -4.532   3.521  25.460  0.00  0.00    +0.022 C 
ATOM     15  C   UNL     1      -4.739   3.210  23.981  0.00  0.00    +0.017 C 
BRANCH  10  17
ATOM     17  C   UNL     1      -2.527   5.059  25.403  0.00  0.00    +0.178 C 
BRANCH  17   4
ATOM      4  O   UNL     1      -1.115   5.078  25.524  0.00  0.00    -0.381 OA
ATOM     20  C   UNL     1      -0.497   5.663  24.383  0.00  0.00    +0.194 C 
ENDBRANCH  17   4
ENDBRANCH  10  17
ENDBRANCH   8   6
BRANCH  11   3
ATOM      3  O   UNL     1      -1.265   0.428  23.353  0.00  0.00    -0.388 OA
ATOM     27  H   UNL     1      -0.548  -0.221  23.250  0.00  0.00    +0.210 HD
ENDBRANCH  11   3
BRANCH   9  16
ATOM     16  C   UNL     1      -0.771   1.116  26.483  0.00  0.00    +0.114 C 
BRANCH  16   7
ATOM      7  N   UNL     1      -0.440  -0.217  26.003  0.00  0.00    -0.310 NA
ATOM     28  H   UNL     1       0.504  -0.460  26.302  0.00  0.00    +0.122 HD
BRANCH   7  19
ATOM     19  C   UNL     1      -1.384  -1.204  26.512  0.00  0.00    +0.116 C 
BRANCH  19  21
ATOM      1 CL   UNL     1      -5.925   0.414  24.529  0.00  0.00    -0.084 Cl
ATOM     21  C   UNL     1      -2.527  -1.430  25.558  0.00  0.00    -0.032 A 
ATOM     22  C   UNL     1      -3.573  -0.511  25.492  0.00  0.00    +0.025 A 
ATOM     23  C   UNL     1      -2.539  -2.560  24.741  0.00  0.00    +0.005 A 
ATOM     24  C   UNL     1      -4.632  -0.720  24.608  0.00  0.00    +0.041 A 
ATOM     25  C   UNL     1      -3.597  -2.770  23.857  0.00  0.00    +0.002 A 
ATOM     26  C   UNL     1      -4.644  -1.850  23.791  0.00  0.00    +0.020 A 
ENDBRANCH  19  21
ENDBRANCH   7  19
ENDBRANCH  16   7
ENDBRANCH   9  16
BRANCH  13  18
ATOM     18  C   UNL     1       1.526   0.465  22.901  0.00  0.00    +0.190 C 
BRANCH  18   5
ATOM      5  O   UNL     1       1.224  -0.683  23.677  0.00  0.00    -0.392 OA
ATOM     29  H   UNL     1       2.072  -1.068  23.960  0.00  0.00    +0.210 HD
ENDBRANCH  18   5
ENDBRANCH  13  18
TORSDOF 10
ENDMDL
MODEL 6
REMARK VINA RESULT:      -2.7      2.176      4.656
REMARK  Name = 28961842
REMARK  11 active torsions:
REMARK  status: ('A' for Active; 'I' for Inactive)
REMARK    1  A    between atoms: O_3  and  C_11
REMARK    2  A    between atoms: O_4  and  C_17
REMARK    3  A    between atoms: O_4  and  C_20
REMARK    4  A    between atoms: O_5  and  C_18
REMARK    5  A    between atoms: N_6  and  C_8
REMARK    6  A    between atoms: N_7  and  C_16
REMARK    7  A    between atoms: N_7  and  C_19
REMARK    8  A    between atoms: C_9  and  C_16
REMARK    9  A    between atoms: C_10  and  C_17
REMARK   10  A    between atoms: C_13  and  C_18
REMARK   11  A    between atoms: C_19  and  C_21
REMARK                            x       y       z     vdW  Elec       q    Type
REMARK                         _______ _______ _______ _____ _____    ______ ____
ROOT
ATOM      2  O   UNL     1      -1.370  -1.770  25.787  0.00  0.00    -0.366 OA
ATOM      8  C   UNL     1      -0.569   0.428  25.349  0.00  0.00    +0.118 C 
ATOM      9  C   UNL     1      -1.512  -0.402  26.230  0.00  0.00    +0.152 C 
ATOM     11  C   UNL     1      -0.465  -0.404  24.080  0.00  0.00    +0.165 C 
ATOM     13  C   UNL     1      -0.469  -1.811  24.665  0.00  0.00    +0.174 C 
ENDROOT
BRANCH   8   6
ATOM      6  N   UNL     1      -0.933   1.819  25.150  0.00  0.00    -0.289 NA
ATOM     10  C   UNL     1      -0.727   2.700  26.304  0.00  0.00    +0.083 C 
ATOM     12  C   UNL     1      -0.251   2.433  24.012  0.00  0.00    +0.085 C 
ATOM     14  C   UNL     1      -0.942   4.070  25.664  0.00  0.00    +0.022 C 
ATOM     15  C   UNL     1      -0.399   3.931  24.246  0.00  0.00    +0.017 C 
BRANCH  10  17
ATOM     17  C   UNL     1       0.642   2.609  26.985  0.00  0.00    +0.178 C 
BRANCH  17   4
ATOM      4  O   UNL     1       0.447   2.300  28.354  0.00  0.00    -0.381 OA
ATOM     20  C   UNL     1       1.632   2.509  29.115  0.00  0.00    +0.194 C 
ENDBRANCH  17   4
ENDBRANCH  10  17
ENDBRANCH   8   6
BRANCH  11   3
ATOM      3  O   UNL     1      -1.595  -0.213  23.239  0.00  0.00    -0.388 OA
ATOM     27  H   UNL     1      -1.998   0.639  23.476  0.00  0.00    +0.210 HD
ENDBRANCH  11   3
BRANCH   9  16
ATOM     16  C   UNL     1      -2.995  -0.054  26.160  0.00  0.00    +0.114 C 
BRANCH  16   7
ATOM      7  N   UNL     1      -3.720  -1.027  25.356  0.00  0.00    -0.310 NA
ATOM     28  H   UNL     1      -4.306  -1.598  25.964  0.00  0.00    +0.122 HD
BRANCH   7  19
ATOM     19  C   UNL     1      -4.550  -0.363  24.358  0.00  0.00    +0.116 C 
BRANCH  19  21
ATOM      1 CL   UNL     1      -3.605   4.704  23.583  0.00  0.00    -0.084 Cl
ATOM     21  C   UNL     1      -4.828   1.070  24.725  0.00  0.00    -0.032 A 
ATOM     22  C   UNL     1      -4.166   2.102  24.061  0.00  0.00    +0.025 A 
ATOM     23  C   UNL     1      -5.749   1.366  25.731  0.00  0.00    +0.005 A 
ATOM     24  C   UNL     1      -4.425   3.430  24.401  0.00  0.00    +0.041 A 
ATOM     25  C   UNL     1      -6.007   2.693  26.072  0.00  0.00    +0.002 A 
ATOM     26  C   UNL     1      -5.345   3.726  25.407  0.00  0.00    +0.020 A 
ENDBRANCH  19  21
ENDBRANCH   7  19
ENDBRANCH  16   7
ENDBRANCH   9  16
BRANCH  13  18
ATOM     18  C   UNL     1      -0.903  -2.913  23.714  0.00  0.00    +0.190 C 
BRANCH  18   5
ATOM      5  O   UNL     1      -2.299  -3.116  23.855  0.00  0.00    -0.392 OA
ATOM     29  H   UNL     1      -2.695  -2.252  24.065  0.00  0.00    +0.210 HD
ENDBRANCH  18   5
ENDBRANCH  13  18
TORSDOF 10
ENDMDL
MODEL 7
REMARK VINA RESULT:      -2.6      2.314      4.619
REMARK  Name = 28961842
REMARK  11 active torsions:
REMARK  status: ('A' for Active; 'I' for Inactive)
REMARK    1  A    between atoms: O_3  and  C_11
REMARK    2  A    between atoms: O_4  and  C_17
REMARK    3  A    between atoms: O_4  and  C_20
REMARK    4  A    between atoms: O_5  and  C_18
REMARK    5  A    between atoms: N_6  and  C_8
REMARK    6  A    between atoms: N_7  and  C_16
REMARK    7  A    between atoms: N_7  and  C_19
REMARK    8  A    between atoms: C_9  and  C_16
REMARK    9  A    between atoms: C_10  and  C_17
REMARK   10  A    between atoms: C_13  and  C_18
REMARK   11  A    between atoms: C_19  and  C_21
REMARK                            x       y       z     vdW  Elec       q    Type
REMARK                         _______ _______ _______ _____ _____    ______ ____
ROOT
ATOM      2  O   UNL     1       1.123   1.938  24.882  0.00  0.00    -0.366 OA
ATOM      8  C   UNL     1      -1.101   2.462  24.216  0.00  0.00    +0.118 C 
ATOM      9  C   UNL     1      -0.147   2.374  25.414  0.00  0.00    +0.152 C 
ATOM     11  C   UNL     1      -0.506   1.468  23.231  0.00  0.00    +0.165 C 
ATOM     13  C   UNL     1       0.982   1.692  23.470  0.00  0.00    +0.174 C 
ENDROOT
BRANCH   8   6
ATOM      6  N   UNL     1      -2.513   2.280  24.504  0.00  0.00    -0.289 NA
ATOM     10  C   UNL     1      -3.133   3.324  25.327  0.00  0.00    +0.083 C 
ATOM     12  C   UNL     1      -3.329   2.139  23.299  0.00  0.00    +0.085 C 
ATOM     14  C   UNL     1      -4.610   2.961  25.190  0.00  0.00    +0.022 C 
ATOM     15  C   UNL     1      -4.751   2.417  23.772  0.00  0.00    +0.017 C 
BRANCH  10  17
ATOM     17  C   UNL     1      -2.868   4.769  24.893  0.00  0.00    +0.178 C 
BRANCH  17   4
ATOM      4  O   UNL     1      -1.741   5.255  25.601  0.00  0.00    -0.381 OA
ATOM     20  C   UNL     1      -0.714   5.693  24.718  0.00  0.00    +0.194 C 
ENDBRANCH  17   4
ENDBRANCH  10  17
ENDBRANCH   8   6
BRANCH  11   3
ATOM      3  O   UNL     1      -0.865   0.132  23.558  0.00  0.00    -0.388 OA
ATOM     27  H   UNL     1      -0.155  -0.450  23.240  0.00  0.00    +0.210 HD
ENDBRANCH  11   3
BRANCH   9  16
ATOM     16  C   UNL     1      -0.531   1.401  26.523  0.00  0.00    +0.114 C 
BRANCH  16   7
ATOM      7  N   UNL     1      -0.572   0.034  26.026  0.00  0.00    -0.310 NA
ATOM     28  H   UNL     1       0.317  -0.426  26.226  0.00  0.00    +0.122 HD
BRANCH   7  19
ATOM     19  C   UNL     1      -1.659  -0.714  26.643  0.00  0.00    +0.116 C 
BRANCH  19  21
ATOM      1 CL   UNL     1      -2.723  -4.345  23.058  0.00  0.00    -0.084 Cl
ATOM     21  C   UNL     1      -2.609  -1.272  25.616  0.00  0.00    -0.032 A 
ATOM     22  C   UNL     1      -2.267  -2.416  24.898  0.00  0.00    +0.025 A 
ATOM     23  C   UNL     1      -3.832  -0.641  25.383  0.00  0.00    +0.005 A 
ATOM     24  C   UNL     1      -3.148  -2.933  23.947  0.00  0.00    +0.041 A 
ATOM     25  C   UNL     1      -4.712  -1.157  24.433  0.00  0.00    +0.002 A 
ATOM     26  C   UNL     1      -4.370  -2.303  23.714  0.00  0.00    +0.020 A 
ENDBRANCH  19  21
ENDBRANCH   7  19
ENDBRANCH  16   7
ENDBRANCH   9  16
BRANCH  13  18
ATOM     18  C   UNL     1       1.889   0.542  23.069  0.00  0.00    +0.190 C 
BRANCH  18   5
ATOM      5  O   UNL     1       3.227   1.008  23.022  0.00  0.00    -0.392 OA
ATOM     29  H   UNL     1       3.300   1.735  23.665  0.00  0.00    +0.210 HD
ENDBRANCH  18   5
ENDBRANCH  13  18
TORSDOF 10
ENDMDL
MODEL 8
REMARK VINA RESULT:      -2.4      3.288      6.395
REMARK  Name = 28961842
REMARK  11 active torsions:
REMARK  status: ('A' for Active; 'I' for Inactive)
REMARK    1  A    between atoms: O_3  and  C_11
REMARK    2  A    between atoms: O_4  and  C_17
REMARK    3  A    between atoms: O_4  and  C_20
REMARK    4  A    between atoms: O_5  and  C_18
REMARK    5  A    between atoms: N_6  and  C_8
REMARK    6  A    between atoms: N_7  and  C_16
REMARK    7  A    between atoms: N_7  and  C_19
REMARK    8  A    between atoms: C_9  and  C_16
REMARK    9  A    between atoms: C_10  and  C_17
REMARK   10  A    between atoms: C_13  and  C_18
REMARK   11  A    between atoms: C_19  and  C_21
REMARK                            x       y       z     vdW  Elec       q    Type
REMARK                         _______ _______ _______ _____ _____    ______ ____
ROOT
ATOM      2  O   UNL     1      -1.882  -0.723  24.236  0.00  0.00    -0.366 OA
ATOM      8  C   UNL     1      -2.401   1.551  24.711  0.00  0.00    +0.118 C 
ATOM      9  C   UNL     1      -2.062   0.558  23.592  0.00  0.00    +0.152 C 
ATOM     11  C   UNL     1      -1.757   0.920  25.936  0.00  0.00    +0.165 C 
ATOM     13  C   UNL     1      -2.017  -0.556  25.660  0.00  0.00    +0.174 C 
ENDROOT
BRANCH   8   6
ATOM      6  N   UNL     1      -2.045   2.938  24.468  0.00  0.00    -0.289 NA
ATOM     10  C   UNL     1      -3.135   3.908  24.614  0.00  0.00    +0.083 C 
ATOM     12  C   UNL     1      -0.941   3.401  25.308  0.00  0.00    +0.085 C 
ATOM     14  C   UNL     1      -2.360   5.223  24.564  0.00  0.00    +0.022 C 
ATOM     15  C   UNL     1      -1.028   4.920  25.243  0.00  0.00    +0.017 C 
BRANCH  10  17
ATOM     17  C   UNL     1      -3.969   3.797  25.894  0.00  0.00    +0.178 C 
BRANCH  17   4
ATOM      4  O   UNL     1      -5.335   3.686  25.536  0.00  0.00    -0.381 OA
ATOM     20  C   UNL     1      -5.757   2.328  25.484  0.00  0.00    +0.194 C 
ENDBRANCH  17   4
ENDBRANCH  10  17
ENDBRANCH   8   6
BRANCH  11   3
ATOM      3  O   UNL     1      -0.361   1.178  25.981  0.00  0.00    -0.388 OA
ATOM     27  H   UNL     1      -0.129   1.388  26.901  0.00  0.00    +0.210 HD
ENDBRANCH  11   3
BRANCH   9  16
ATOM     16  C   UNL     1      -0.800   0.841  22.785  0.00  0.00    +0.114 C 
BRANCH  16   7
ATOM      7  N   UNL     1       0.367   0.241  23.416  0.00  0.00    -0.310 NA
ATOM     28  H   UNL     1       0.067  -0.513  24.034  0.00  0.00    +0.122 HD
BRANCH   7  19
ATOM     19  C   UNL     1       1.288  -0.283  22.417  0.00  0.00    +0.116 C 
BRANCH  19  21
ATOM      1 CL   UNL     1       5.762  -2.091  24.389  0.00  0.00    -0.084 Cl
ATOM     21  C   UNL     1       2.725  -0.033  22.794  0.00  0.00    -0.032 A 
ATOM     22  C   UNL     1       3.488  -1.058  23.350  0.00  0.00    +0.025 A 
ATOM     23  C   UNL     1       3.290   1.226  22.587  0.00  0.00    +0.005 A 
ATOM     24  C   UNL     1       4.820  -0.826  23.699  0.00  0.00    +0.041 A 
ATOM     25  C   UNL     1       4.620   1.458  22.937  0.00  0.00    +0.002 A 
ATOM     26  C   UNL     1       5.385   0.432  23.493  0.00  0.00    +0.020 A 
ENDBRANCH  19  21
ENDBRANCH   7  19
ENDBRANCH  16   7
ENDBRANCH   9  16
BRANCH  13  18
ATOM     18  C   UNL     1      -1.088  -1.526  26.369  0.00  0.00    +0.190 C 
BRANCH  18   5
ATOM      5  O   UNL     1       0.072  -1.713  25.574  0.00  0.00    -0.392 OA
ATOM     29  H   UNL     1      -0.213  -1.700  24.644  0.00  0.00    +0.210 HD
ENDBRANCH  18   5
ENDBRANCH  13  18
TORSDOF 10
ENDMDL
MODEL 9
REMARK VINA RESULT:      -2.4      1.872      2.499
REMARK  Name = 28961842
REMARK  11 active torsions:
REMARK  status: ('A' for Active; 'I' for Inactive)
REMARK    1  A    between atoms: O_3  and  C_11
REMARK    2  A    between atoms: O_4  and  C_17
REMARK    3  A    between atoms: O_4  and  C_20
REMARK    4  A    between atoms: O_5  and  C_18
REMARK    5  A    between atoms: N_6  and  C_8
REMARK    6  A    between atoms: N_7  and  C_16
REMARK    7  A    between atoms: N_7  and  C_19
REMARK    8  A    between atoms: C_9  and  C_16
REMARK    9  A    between atoms: C_10  and  C_17
REMARK   10  A    between atoms: C_13  and  C_18
REMARK   11  A    between atoms: C_19  and  C_21
REMARK                            x       y       z     vdW  Elec       q    Type
REMARK                         _______ _______ _______ _____ _____    ______ ____
ROOT
ATOM      2  O   UNL     1       0.469   1.263  23.338  0.00  0.00    -0.366 OA
ATOM      8  C   UNL     1      -1.085  -0.506  23.680  0.00  0.00    +0.118 C 
ATOM      9  C   UNL     1      -0.770   0.956  24.016  0.00  0.00    +0.152 C 
ATOM     11  C   UNL     1       0.287  -1.096  23.392  0.00  0.00    +0.165 C 
ATOM     13  C   UNL     1       0.952   0.076  22.681  0.00  0.00    +0.174 C 
ENDROOT
BRANCH   8   6
ATOM      6  N   UNL     1      -1.880  -1.233  24.655  0.00  0.00    -0.289 NA
ATOM     10  C   UNL     1      -3.122  -0.577  25.077  0.00  0.00    +0.083 C 
ATOM     12  C   UNL     1      -2.232  -2.582  24.216  0.00  0.00    +0.085 C 
ATOM     14  C   UNL     1      -3.796  -1.708  25.852  0.00  0.00    +0.022 C 
ATOM     15  C   UNL     1      -3.392  -2.983  25.119  0.00  0.00    +0.017 C 
BRANCH  10  17
ATOM     17  C   UNL     1      -4.022  -0.054  23.953  0.00  0.00    +0.178 C 
BRANCH  17   4
ATOM      4  O   UNL     1      -4.287   1.318  24.189  0.00  0.00    -0.381 OA
ATOM     20  C   UNL     1      -5.492   1.503  24.924  0.00  0.00    +0.194 C 
ENDBRANCH  17   4
ENDBRANCH  10  17
ENDBRANCH   8   6
BRANCH  11   3
ATOM      3  O   UNL     1       0.982  -1.408  24.591  0.00  0.00    -0.388 OA
ATOM     27  H   UNL     1       0.689  -2.288  24.881  0.00  0.00    +0.210 HD
ENDBRANCH  11   3
BRANCH   9  16
ATOM     16  C   UNL     1      -0.574   1.292  25.490  0.00  0.00    +0.114 C 
BRANCH  16   7
ATOM      7  N   UNL     1       0.655   2.045  25.694  0.00  0.00    -0.310 NA
ATOM     28  H   UNL     1       1.111   2.198  24.795  0.00  0.00    +0.122 HD
BRANCH   7  19
ATOM     19  C   UNL     1       0.382   3.328  26.329  0.00  0.00    +0.116 C 
BRANCH  19  21
ATOM      1 CL   UNL     1      -2.494   6.657  23.533  0.00  0.00    -0.084 Cl
ATOM     21  C   UNL     1      -0.978   3.858  25.956  0.00  0.00    -0.032 A 
ATOM     22  C   UNL     1      -1.093   4.890  25.025  0.00  0.00    +0.025 A 
ATOM     23  C   UNL     1      -2.122   3.317  26.543  0.00  0.00    +0.005 A 
ATOM     24  C   UNL     1      -2.352   5.381  24.680  0.00  0.00    +0.041 A 
ATOM     25  C   UNL     1      -3.380   3.808  26.198  0.00  0.00    +0.002 A 
ATOM     26  C   UNL     1      -3.496   4.840  25.267  0.00  0.00    +0.020 A 
ENDBRANCH  19  21
ENDBRANCH   7  19
ENDBRANCH  16   7
ENDBRANCH   9  16
BRANCH  13  18
ATOM     18  C   UNL     1       2.471   0.076  22.701  0.00  0.00    +0.190 C 
BRANCH  18   5
ATOM      5  O   UNL     1       2.921   1.287  23.285  0.00  0.00    -0.392 OA
ATOM     29  H   UNL     1       3.780   1.101  23.704  0.00  0.00    +0.210 HD
ENDBRANCH  18   5
ENDBRANCH  13  18
TORSDOF 10
ENDMDL
MODEL 10
REMARK VINA RESULT:      -2.4     17.892     20.353
REMARK  Name = 28961842
REMARK  11 active torsions:
REMARK  status: ('A' for Active; 'I' for Inactive)
REMARK    1  A    between atoms: O_3  and  C_11
REMARK    2  A    between atoms: O_4  and  C_17
REMARK    3  A    between atoms: O_4  and  C_20
REMARK    4  A    between atoms: O_5  and  C_18
REMARK    5  A    between atoms: N_6  and  C_8
REMARK    6  A    between atoms: N_7  and  C_16
REMARK    7  A    between atoms: N_7  and  C_19
REMARK    8  A    between atoms: C_9  and  C_16
REMARK    9  A    between atoms: C_10  and  C_17
REMARK   10  A    between atoms: C_13  and  C_18
REMARK   11  A    between atoms: C_19  and  C_21
REMARK                            x       y       z     vdW  Elec       q    Type
REMARK                         _______ _______ _______ _____ _____    ______ ____
ROOT
ATOM      2  O   UNL     1      15.542  -8.089  27.299  0.00  0.00    -0.366 OA
ATOM      8  C   UNL     1      14.828  -9.255  29.247  0.00  0.00    +0.118 C 
ATOM      9  C   UNL     1      15.117  -7.867  28.663  0.00  0.00    +0.152 C 
ATOM     11  C   UNL     1      15.715 -10.169  28.415  0.00  0.00    +0.165 C 
ATOM     13  C   UNL     1      15.597  -9.506  27.048  0.00  0.00    +0.174 C 
ENDROOT
BRANCH   8   6
ATOM      6  N   UNL     1      14.977  -9.390  30.686  0.00  0.00    -0.289 NA
ATOM     10  C   UNL     1      13.900  -8.804  31.492  0.00  0.00    +0.083 C 
ATOM     12  C   UNL     1      15.133 -10.778  31.118  0.00  0.00    +0.085 C 
ATOM     14  C   UNL     1      14.239  -9.361  32.873  0.00  0.00    +0.022 C 
ATOM     15  C   UNL     1      14.817 -10.747  32.608  0.00  0.00    +0.017 C 
BRANCH  10  17
ATOM     17  C   UNL     1      12.472  -9.170  31.076  0.00  0.00    +0.178 C 
BRANCH  17   4
ATOM      4  O   UNL     1      11.616  -8.088  31.398  0.00  0.00    -0.381 OA
ATOM     20  C   UNL     1      11.910  -6.934  30.620  0.00  0.00    +0.194 C 
ENDBRANCH  17   4
ENDBRANCH  10  17
ENDBRANCH   8   6
BRANCH  11   3
ATOM      3  O   UNL     1      17.063 -10.138  28.867  0.00  0.00    -0.388 OA
ATOM     27  H   UNL     1      17.058  -9.830  29.788  0.00  0.00    +0.210 HD
ENDBRANCH  11   3
BRANCH   9  16
ATOM     16  C   UNL     1      16.205  -7.048  29.349  0.00  0.00    +0.114 C 
BRANCH  16   7
ATOM      7  N   UNL     1      16.808  -7.796  30.441  0.00  0.00    -0.310 NA
ATOM     28  H   UNL     1      17.523  -8.421  30.069  0.00  0.00    +0.122 HD
BRANCH   7  19
ATOM     19  C   UNL     1      17.405  -6.898  31.421  0.00  0.00    +0.116 C 
BRANCH  19  21
ATOM      1 CL   UNL     1      16.383  -1.885  30.425  0.00  0.00    -0.084 Cl
ATOM     21  C   UNL     1      16.547  -5.685  31.665  0.00  0.00    -0.032 A 
ATOM     22  C   UNL     1      16.829  -4.488  31.008  0.00  0.00    +0.025 A 
ATOM     23  C   UNL     1      15.471  -5.759  32.549  0.00  0.00    +0.005 A 
ATOM     24  C   UNL     1      16.033  -3.364  31.234  0.00  0.00    +0.041 A 
ATOM     25  C   UNL     1      14.676  -4.636  32.775  0.00  0.00    +0.002 A 
ATOM     26  C   UNL     1      14.957  -3.438  32.117  0.00  0.00    +0.020 A 
ENDBRANCH  19  21
ENDBRANCH   7  19
ENDBRANCH  16   7
ENDBRANCH   9  16
BRANCH  13  18
ATOM     18  C   UNL     1      16.729  -9.799  26.080  0.00  0.00    +0.190 C 
BRANCH  18   5
ATOM      5  O   UNL     1      16.188  -9.971  24.780  0.00  0.00    -0.392 OA
ATOM     29  H   UNL     1      15.219  -9.957  24.870  0.00  0.00    +0.210 HD
ENDBRANCH  18   5
ENDBRANCH  13  18
TORSDOF 10
ENDMDL
