MODEL 1
REMARK VINA RESULT:      -3.1      0.000      0.000
REMARK  Name = 51137369
REMARK  5 active torsions:
REMARK  status: ('A' for Active; 'I' for Inactive)
REMARK    1  A    between atoms: N_4  and  C_12
REMARK    2  A    between atoms: C_8  and  C_13
REMARK    3  A    between atoms: C_12  and  C_14
REMARK    4  A    between atoms: C_15  and  C_18
REMARK    5  A    between atoms: C_18  and  C_20
REMARK                            x       y       z     vdW  Elec       q    Type
REMARK                         _______ _______ _______ _____ _____    ______ ____
ROOT
ATOM      1  O   UNL     1      -2.173   3.209  25.151  0.00  0.00    -0.424 OA
ATOM      5  N   UNL     1      -0.516   4.713  25.152  0.00  0.00    -0.112 NA
ATOM      6  N   UNL     1      -1.716   5.398  25.102  0.00  0.00    -0.112 NA
ATOM     13  C   UNL     1      -0.831   3.440  25.179  0.00  0.00    +0.222 A 
ATOM     15  C   UNL     1      -2.654   4.482  25.103  0.00  0.00    +0.222 A 
ENDROOT
BRANCH  13   8
ATOM      4  N   UNL     1       0.050   0.508  23.597  0.00  0.00    -0.297 NA
ATOM      8  C   UNL     1       0.069   2.226  25.238  0.00  0.00    +0.092 C 
ATOM      9  C   UNL     1      -0.656   0.973  25.752  0.00  0.00    +0.029 C 
ATOM     10  C   UNL     1       0.670   1.804  23.885  0.00  0.00    +0.097 C 
ATOM     11  C   UNL     1      -0.109  -0.152  24.891  0.00  0.00    +0.085 C 
BRANCH   4  12
ATOM     12  C   UNL     1       0.823  -0.286  22.654  0.00  0.00    +0.119 C 
BRANCH  12  14
ATOM      2  O   UNL     1       5.264  -1.772  24.256  0.00  0.00    -0.453 OA
ATOM      3  O   UNL     1       6.348   0.231  23.470  0.00  0.00    -0.453 OA
ATOM     14  C   UNL     1       2.305  -0.113  22.858  0.00  0.00    -0.030 A 
ATOM     16  C   UNL     1       3.038  -1.115  23.498  0.00  0.00    +0.054 A 
ATOM     17  C   UNL     1       2.939   1.055  22.399  0.00  0.00    +0.009 A 
ATOM     19  C   UNL     1       4.394  -0.912  23.660  0.00  0.00    +0.167 A 
ATOM     21  C   UNL     1       4.313   1.235  22.575  0.00  0.00    +0.050 A 
ATOM     22  C   UNL     1       5.013   0.231  23.211  0.00  0.00    +0.166 A 
ATOM     26  C   UNL     1       6.501  -1.041  24.133  0.00  0.00    +0.466 C 
ENDBRANCH  12  14
ENDBRANCH   4  12
ENDBRANCH  13   8
BRANCH  15  18
ATOM     18  C   UNL     1      -4.115   4.636  25.063  0.00  0.00    +0.135 C 
BRANCH  18  20
ATOM      7  N   UNL     1      -6.448   1.886  25.880  0.00  0.00    -0.360 N 
ATOM     20  C   UNL     1      -4.898   3.340  25.240  0.00  0.00    -0.013 A 
ATOM     23  C   UNL     1      -4.566   2.067  24.696  0.00  0.00    +0.003 A 
ATOM     24  C   UNL     1      -5.555   1.173  25.113  0.00  0.00    +0.047 A 
ATOM     25  C   UNL     1      -6.060   3.196  25.963  0.00  0.00    +0.087 A 
ATOM     27  C   UNL     1      -3.517   1.589  23.888  0.00  0.00    +0.010 A 
ATOM     28  C   UNL     1      -5.547  -0.180  24.759  0.00  0.00    +0.026 A 
ATOM     29  C   UNL     1      -3.495   0.237  23.526  0.00  0.00    +0.001 A 
ATOM     30  C   UNL     1      -4.495  -0.632  23.956  0.00  0.00    +0.002 A 
ATOM     31  H   UNL     1      -7.273   1.497  26.318  0.00  0.00    +0.165 HD
ENDBRANCH  18  20
ENDBRANCH  15  18
TORSDOF 5
ENDMDL
MODEL 2
REMARK VINA RESULT:      -2.1      3.069      5.861
REMARK  Name = 51137369
REMARK  5 active torsions:
REMARK  status: ('A' for Active; 'I' for Inactive)
REMARK    1  A    between atoms: N_4  and  C_12
REMARK    2  A    between atoms: C_8  and  C_13
REMARK    3  A    between atoms: C_12  and  C_14
REMARK    4  A    between atoms: C_15  and  C_18
REMARK    5  A    between atoms: C_18  and  C_20
REMARK                            x       y       z     vdW  Elec       q    Type
REMARK                         _______ _______ _______ _____ _____    ______ ____
ROOT
ATOM      1  O   UNL     1      -2.471  -0.955  24.644  0.00  0.00    -0.424 OA
ATOM      5  N   UNL     1      -1.708  -3.030  24.307  0.00  0.00    -0.112 NA
ATOM      6  N   UNL     1      -3.088  -3.086  24.360  0.00  0.00    -0.112 NA
ATOM     13  C   UNL     1      -1.392  -1.768  24.478  0.00  0.00    +0.222 A 
ATOM     15  C   UNL     1      -3.491  -1.853  24.557  0.00  0.00    +0.222 A 
ENDROOT
BRANCH  13   8
ATOM      4  N   UNL     1       0.364   1.110  23.768  0.00  0.00    -0.297 NA
ATOM      8  C   UNL     1      -0.031  -1.111  24.513  0.00  0.00    +0.092 C 
ATOM      9  C   UNL     1       0.658  -1.098  23.139  0.00  0.00    +0.029 C 
ATOM     10  C   UNL     1      -0.037   0.361  24.962  0.00  0.00    +0.097 C 
ATOM     11  C   UNL     1       1.330   0.262  23.074  0.00  0.00    +0.085 C 
BRANCH   4  12
ATOM     12  C   UNL     1       0.900   2.425  24.087  0.00  0.00    +0.119 C 
BRANCH  12  14
ATOM      2  O   UNL     1      -3.051   3.422  26.895  0.00  0.00    -0.453 OA
ATOM      3  O   UNL     1      -3.085   5.738  26.233  0.00  0.00    -0.453 OA
ATOM     14  C   UNL     1      -0.157   3.343  24.642  0.00  0.00    -0.030 A 
ATOM     16  C   UNL     1      -1.106   2.844  25.537  0.00  0.00    +0.054 A 
ATOM     17  C   UNL     1      -0.177   4.694  24.256  0.00  0.00    +0.009 A 
ATOM     19  C   UNL     1      -2.053   3.724  26.021  0.00  0.00    +0.167 A 
ATOM     21  C   UNL     1      -1.146   5.564  24.761  0.00  0.00    +0.050 A 
ATOM     22  C   UNL     1      -2.073   5.047  25.642  0.00  0.00    +0.166 A 
ATOM     26  C   UNL     1      -3.701   4.702  27.026  0.00  0.00    +0.466 C 
ENDBRANCH  12  14
ENDBRANCH   4  12
ENDBRANCH  13   8
BRANCH  15  18
ATOM     18  C   UNL     1      -4.854  -1.323  24.692  0.00  0.00    +0.135 C 
BRANCH  18  20
ATOM      7  N   UNL     1      -5.577   2.277  25.125  0.00  0.00    -0.360 N 
ATOM     20  C   UNL     1      -4.953   0.198  24.664  0.00  0.00    -0.013 A 
ATOM     23  C   UNL     1      -4.212   1.081  23.829  0.00  0.00    +0.003 A 
ATOM     24  C   UNL     1      -4.623   2.379  24.139  0.00  0.00    +0.047 A 
ATOM     25  C   UNL     1      -5.784   0.963  25.450  0.00  0.00    +0.087 A 
ATOM     27  C   UNL     1      -3.229   0.899  22.837  0.00  0.00    +0.010 A 
ATOM     28  C   UNL     1      -4.097   3.509  23.503  0.00  0.00    +0.026 A 
ATOM     29  C   UNL     1      -2.694   2.020  22.192  0.00  0.00    +0.001 A 
ATOM     30  C   UNL     1      -3.123   3.304  22.521  0.00  0.00    +0.002 A 
ATOM     31  H   UNL     1      -6.055   3.061  25.550  0.00  0.00    +0.165 HD
ENDBRANCH  18  20
ENDBRANCH  15  18
TORSDOF 5
ENDMDL
MODEL 3
REMARK VINA RESULT:      -1.9      1.696      3.400
REMARK  Name = 51137369
REMARK  5 active torsions:
REMARK  status: ('A' for Active; 'I' for Inactive)
REMARK    1  A    between atoms: N_4  and  C_12
REMARK    2  A    between atoms: C_8  and  C_13
REMARK    3  A    between atoms: C_12  and  C_14
REMARK    4  A    between atoms: C_15  and  C_18
REMARK    5  A    between atoms: C_18  and  C_20
REMARK                            x       y       z     vdW  Elec       q    Type
REMARK                         _______ _______ _______ _____ _____    ______ ____
ROOT
ATOM      1  O   UNL     1      -3.532   1.723  25.029  0.00  0.00    -0.424 OA
ATOM      5  N   UNL     1      -4.454   3.656  25.677  0.00  0.00    -0.112 NA
ATOM      6  N   UNL     1      -5.452   2.701  25.630  0.00  0.00    -0.112 NA
ATOM     13  C   UNL     1      -3.352   3.041  25.319  0.00  0.00    +0.222 A 
ATOM     15  C   UNL     1      -4.869   1.590  25.247  0.00  0.00    +0.222 A 
ENDROOT
BRANCH  13   8
ATOM      4  N   UNL     1      -0.194   2.410  24.093  0.00  0.00    -0.297 NA
ATOM      8  C   UNL     1      -1.945   3.582  25.190  0.00  0.00    +0.092 C 
ATOM      9  C   UNL     1      -0.973   2.957  26.203  0.00  0.00    +0.029 C 
ATOM     10  C   UNL     1      -1.288   3.345  23.818  0.00  0.00    +0.097 C 
ATOM     11  C   UNL     1       0.312   2.769  25.416  0.00  0.00    +0.085 C 
BRANCH   4  12
ATOM     12  C   UNL     1       0.841   2.442  23.070  0.00  0.00    +0.119 C 
BRANCH  12  14
ATOM      2  O   UNL     1       5.391   0.543  23.486  0.00  0.00    -0.453 OA
ATOM      3  O   UNL     1       4.564  -1.716  23.623  0.00  0.00    -0.453 OA
ATOM     14  C   UNL     1       1.812   1.301  23.217  0.00  0.00    -0.030 A 
ATOM     16  C   UNL     1       3.183   1.562  23.275  0.00  0.00    +0.054 A 
ATOM     17  C   UNL     1       1.330  -0.017  23.297  0.00  0.00    +0.009 A 
ATOM     19  C   UNL     1       4.034   0.484  23.413  0.00  0.00    +0.167 A 
ATOM     21  C   UNL     1       2.213  -1.090  23.437  0.00  0.00    +0.050 A 
ATOM     22  C   UNL     1       3.562  -0.806  23.491  0.00  0.00    +0.166 A 
ATOM     26  C   UNL     1       5.721  -0.854  23.619  0.00  0.00    +0.466 C 
ENDBRANCH  12  14
ENDBRANCH   4  12
ENDBRANCH  13   8
BRANCH  15  18
ATOM     18  C   UNL     1      -5.446   0.256  25.030  0.00  0.00    +0.135 C 
BRANCH  18  20
ATOM      7  N   UNL     1      -3.536  -2.543  23.550  0.00  0.00    -0.360 N 
ATOM     20  C   UNL     1      -4.445  -0.808  24.594  0.00  0.00    -0.013 A 
ATOM     23  C   UNL     1      -3.116  -0.971  25.076  0.00  0.00    +0.003 A 
ATOM     24  C   UNL     1      -2.568  -2.066  24.405  0.00  0.00    +0.047 A 
ATOM     25  C   UNL     1      -4.674  -1.789  23.657  0.00  0.00    +0.087 A 
ATOM     27  C   UNL     1      -2.326  -0.290  26.022  0.00  0.00    +0.010 A 
ATOM     28  C   UNL     1      -1.263  -2.515  24.633  0.00  0.00    +0.026 A 
ATOM     29  C   UNL     1      -1.018  -0.728  26.262  0.00  0.00    +0.001 A 
ATOM     30  C   UNL     1      -0.497  -1.823  25.577  0.00  0.00    +0.002 A 
ATOM     31  H   UNL     1      -3.421  -3.335  22.931  0.00  0.00    +0.165 HD
ENDBRANCH  18  20
ENDBRANCH  15  18
TORSDOF 5
ENDMDL
MODEL 4
REMARK VINA RESULT:      -1.6      2.285      6.240
REMARK  Name = 51137369
REMARK  5 active torsions:
REMARK  status: ('A' for Active; 'I' for Inactive)
REMARK    1  A    between atoms: N_4  and  C_12
REMARK    2  A    between atoms: C_8  and  C_13
REMARK    3  A    between atoms: C_12  and  C_14
REMARK    4  A    between atoms: C_15  and  C_18
REMARK    5  A    between atoms: C_18  and  C_20
REMARK                            x       y       z     vdW  Elec       q    Type
REMARK                         _______ _______ _______ _____ _____    ______ ____
ROOT
ATOM      1  O   UNL     1      -1.764   3.391  25.088  0.00  0.00    -0.424 OA
ATOM      5  N   UNL     1      -2.482   5.452  25.583  0.00  0.00    -0.112 NA
ATOM      6  N   UNL     1      -1.203   5.556  25.070  0.00  0.00    -0.112 NA
ATOM     13  C   UNL     1      -2.768   4.171  25.575  0.00  0.00    +0.222 A 
ATOM     15  C   UNL     1      -0.824   4.331  24.795  0.00  0.00    +0.222 A 
ENDROOT
BRANCH  13   8
ATOM      4  N   UNL     1      -5.041   1.705  24.783  0.00  0.00    -0.297 NA
ATOM      8  C   UNL     1      -4.029   3.463  26.020  0.00  0.00    +0.092 C 
ATOM      9  C   UNL     1      -5.280   3.954  25.276  0.00  0.00    +0.029 C 
ATOM     10  C   UNL     1      -4.019   1.939  25.808  0.00  0.00    +0.097 C 
ATOM     11  C   UNL     1      -6.089   2.691  25.036  0.00  0.00    +0.085 C 
BRANCH   4  12
ATOM     12  C   UNL     1      -5.542   0.339  24.795  0.00  0.00    +0.119 C 
BRANCH  12  14
ATOM      2  O   UNL     1      -0.982  -1.307  25.787  0.00  0.00    -0.453 OA
ATOM      3  O   UNL     1      -1.313  -3.336  24.532  0.00  0.00    -0.453 OA
ATOM     14  C   UNL     1      -4.428  -0.669  24.702  0.00  0.00    -0.030 A 
ATOM     16  C   UNL     1      -3.214  -0.421  25.345  0.00  0.00    +0.054 A 
ATOM     17  C   UNL     1      -4.621  -1.854  23.970  0.00  0.00    +0.009 A 
ATOM     19  C   UNL     1      -2.223  -1.375  25.233  0.00  0.00    +0.167 A 
ATOM     21  C   UNL     1      -3.602  -2.804  23.872  0.00  0.00    +0.050 A 
ATOM     22  C   UNL     1      -2.412  -2.534  24.516  0.00  0.00    +0.166 A 
ATOM     26  C   UNL     1      -0.411  -2.553  25.340  0.00  0.00    +0.466 C 
ENDBRANCH  12  14
ENDBRANCH   4  12
ENDBRANCH  13   8
BRANCH  15  18
ATOM     18  C   UNL     1       0.442   3.847  24.228  0.00  0.00    +0.135 C 
BRANCH  18  20
ATOM      7  N   UNL     1      -0.262   0.320  23.367  0.00  0.00    -0.360 N 
ATOM     20  C   UNL     1       0.435   2.379  23.813  0.00  0.00    -0.013 A 
ATOM     23  C   UNL     1       1.554   1.615  23.379  0.00  0.00    +0.003 A 
ATOM     24  C   UNL     1       1.090   0.327  23.105  0.00  0.00    +0.047 A 
ATOM     25  C   UNL     1      -0.668   1.555  23.795  0.00  0.00    +0.087 A 
ATOM     27  C   UNL     1       2.921   1.897  23.194  0.00  0.00    +0.010 A 
ATOM     28  C   UNL     1       1.928  -0.697  22.652  0.00  0.00    +0.026 A 
ATOM     29  C   UNL     1       3.772   0.882  22.741  0.00  0.00    +0.001 A 
ATOM     30  C   UNL     1       3.282  -0.394  22.476  0.00  0.00    +0.002 A 
ATOM     31  H   UNL     1      -0.868  -0.483  23.256  0.00  0.00    +0.165 HD
ENDBRANCH  18  20
ENDBRANCH  15  18
TORSDOF 5
ENDMDL
MODEL 5
REMARK VINA RESULT:      -1.4      1.543      4.055
REMARK  Name = 51137369
REMARK  5 active torsions:
REMARK  status: ('A' for Active; 'I' for Inactive)
REMARK    1  A    between atoms: N_4  and  C_12
REMARK    2  A    between atoms: C_8  and  C_13
REMARK    3  A    between atoms: C_12  and  C_14
REMARK    4  A    between atoms: C_15  and  C_18
REMARK    5  A    between atoms: C_18  and  C_20
REMARK                            x       y       z     vdW  Elec       q    Type
REMARK                         _______ _______ _______ _____ _____    ______ ____
ROOT
ATOM      1  O   UNL     1      -3.999   1.316  24.515  0.00  0.00    -0.424 OA
ATOM      5  N   UNL     1      -5.840   0.839  25.694  0.00  0.00    -0.112 NA
ATOM      6  N   UNL     1      -5.915   2.162  25.300  0.00  0.00    -0.112 NA
ATOM     13  C   UNL     1      -4.707   0.386  25.214  0.00  0.00    +0.222 A 
ATOM     15  C   UNL     1      -4.821   2.397  24.616  0.00  0.00    +0.222 A 
ENDROOT
BRANCH  13   8
ATOM      4  N   UNL     1      -1.953  -1.544  24.460  0.00  0.00    -0.297 NA
ATOM      8  C   UNL     1      -4.095  -0.993  25.326  0.00  0.00    +0.092 C 
ATOM      9  C   UNL     1      -4.212  -1.802  24.026  0.00  0.00    +0.029 C 
ATOM     10  C   UNL     1      -2.593  -1.006  25.664  0.00  0.00    +0.097 C 
ATOM     11  C   UNL     1      -2.884  -2.533  23.924  0.00  0.00    +0.085 C 
BRANCH   4  12
ATOM     12  C   UNL     1      -0.636  -2.102  24.729  0.00  0.00    +0.119 C 
BRANCH  12  14
ATOM      2  O   UNL     1       4.105  -1.086  23.738  0.00  0.00    -0.453 OA
ATOM      3  O   UNL     1       3.533   0.790  22.339  0.00  0.00    -0.453 OA
ATOM     14  C   UNL     1       0.458  -1.302  24.073  0.00  0.00    -0.030 A 
ATOM     16  C   UNL     1       1.793  -1.656  24.279  0.00  0.00    +0.054 A 
ATOM     17  C   UNL     1       0.124  -0.208  23.256  0.00  0.00    +0.009 A 
ATOM     19  C   UNL     1       2.761  -0.894  23.655  0.00  0.00    +0.167 A 
ATOM     21  C   UNL     1       1.123   0.546  22.635  0.00  0.00    +0.050 A 
ATOM     22  C   UNL     1       2.434   0.177  22.856  0.00  0.00    +0.166 A 
ATOM     26  C   UNL     1       4.589  -0.016  22.902  0.00  0.00    +0.466 C 
ENDBRANCH  12  14
ENDBRANCH   4  12
ENDBRANCH  13   8
BRANCH  15  18
ATOM     18  C   UNL     1      -4.374   3.632  23.958  0.00  0.00    +0.135 C 
BRANCH  18  20
ATOM      7  N   UNL     1      -1.363   5.544  24.936  0.00  0.00    -0.360 N 
ATOM     20  C   UNL     1      -3.030   4.163  24.444  0.00  0.00    -0.013 A 
ATOM     23  C   UNL     1      -1.969   3.398  25.005  0.00  0.00    +0.003 A 
ATOM     24  C   UNL     1      -0.936   4.288  25.305  0.00  0.00    +0.047 A 
ATOM     25  C   UNL     1      -2.627   5.478  24.415  0.00  0.00    +0.087 A 
ATOM     27  C   UNL     1      -1.788   2.029  25.286  0.00  0.00    +0.010 A 
ATOM     28  C   UNL     1       0.274   3.877  25.875  0.00  0.00    +0.026 A 
ATOM     29  C   UNL     1      -0.583   1.603  25.857  0.00  0.00    +0.001 A 
ATOM     30  C   UNL     1       0.431   2.514  26.146  0.00  0.00    +0.002 A 
ATOM     31  H   UNL     1      -0.821   6.392  25.038  0.00  0.00    +0.165 HD
ENDBRANCH  18  20
ENDBRANCH  15  18
TORSDOF 5
ENDMDL
MODEL 6
REMARK VINA RESULT:       0.5      3.020      5.720
REMARK  Name = 51137369
REMARK  5 active torsions:
REMARK  status: ('A' for Active; 'I' for Inactive)
REMARK    1  A    between atoms: N_4  and  C_12
REMARK    2  A    between atoms: C_8  and  C_13
REMARK    3  A    between atoms: C_12  and  C_14
REMARK    4  A    between atoms: C_15  and  C_18
REMARK    5  A    between atoms: C_18  and  C_20
REMARK                            x       y       z     vdW  Elec       q    Type
REMARK                         _______ _______ _______ _____ _____    ______ ____
ROOT
ATOM      1  O   UNL     1      -2.452   3.574  25.554  0.00  0.00    -0.424 OA
ATOM      5  N   UNL     1      -3.505   5.477  26.077  0.00  0.00    -0.112 NA
ATOM      6  N   UNL     1      -2.200   5.788  25.746  0.00  0.00    -0.112 NA
ATOM     13  C   UNL     1      -3.607   4.175  25.951  0.00  0.00    +0.222 A 
ATOM     15  C   UNL     1      -1.623   4.648  25.448  0.00  0.00    +0.222 A 
ENDROOT
BRANCH  13   8
ATOM      4  N   UNL     1      -5.378   1.483  24.730  0.00  0.00    -0.297 NA
ATOM      8  C   UNL     1      -4.801   3.275  26.179  0.00  0.00    +0.092 C 
ATOM      9  C   UNL     1      -5.999   3.642  25.290  0.00  0.00    +0.029 C 
ATOM     10  C   UNL     1      -4.546   1.783  25.898  0.00  0.00    +0.097 C 
ATOM     11  C   UNL     1      -6.580   2.300  24.879  0.00  0.00    +0.085 C 
BRANCH   4  12
ATOM     12  C   UNL     1      -5.677   0.064  24.605  0.00  0.00    +0.119 C 
BRANCH  12  14
ATOM      2  O   UNL     1      -0.984  -0.850  25.882  0.00  0.00    -0.453 OA
ATOM      3  O   UNL     1      -0.961  -2.970  24.738  0.00  0.00    -0.453 OA
ATOM     14  C   UNL     1      -4.427  -0.776  24.618  0.00  0.00    -0.030 A 
ATOM     16  C   UNL     1      -3.294  -0.320  25.296  0.00  0.00    +0.054 A 
ATOM     17  C   UNL     1      -4.414  -2.013  23.951  0.00  0.00    +0.009 A 
ATOM     19  C   UNL     1      -2.173  -1.126  25.282  0.00  0.00    +0.167 A 
ATOM     21  C   UNL     1      -3.267  -2.810  23.953  0.00  0.00    +0.050 A 
ATOM     22  C   UNL     1      -2.161  -2.337  24.628  0.00  0.00    +0.166 A 
ATOM     26  C   UNL     1      -0.220  -2.023  25.534  0.00  0.00    +0.466 C 
ENDBRANCH  12  14
ENDBRANCH   4  12
ENDBRANCH  13   8
BRANCH  15  18
ATOM     18  C   UNL     1      -0.242   4.380  25.025  0.00  0.00    +0.135 C 
BRANCH  18  20
ATOM      7  N   UNL     1       0.912   1.033  23.956  0.00  0.00    -0.360 N 
ATOM     20  C   UNL     1      -0.014   2.993  24.434  0.00  0.00    -0.013 A 
ATOM     23  C   UNL     1      -0.884   2.294  23.551  0.00  0.00    +0.003 A 
ATOM     24  C   UNL     1      -0.280   1.067  23.267  0.00  0.00    +0.047 A 
ATOM     25  C   UNL     1       1.081   2.192  24.665  0.00  0.00    +0.087 A 
ATOM     27  C   UNL     1      -2.130   2.588  22.965  0.00  0.00    +0.010 A 
ATOM     28  C   UNL     1      -0.863   0.116  22.423  0.00  0.00    +0.026 A 
ATOM     29  C   UNL     1      -2.726   1.646  22.118  0.00  0.00    +0.001 A 
ATOM     30  C   UNL     1      -2.100   0.430  21.852  0.00  0.00    +0.002 A 
ATOM     31  H   UNL     1       1.566   0.262  23.942  0.00  0.00    +0.165 HD
ENDBRANCH  18  20
ENDBRANCH  15  18
TORSDOF 5
ENDMDL
