MODEL 1
REMARK VINA RESULT:      -0.7      0.000      0.000
REMARK  Name = 45361365
REMARK  12 active torsions:
REMARK  status: ('A' for Active; 'I' for Inactive)
REMARK    1  A    between atoms: O_1  and  C_9
REMARK    2  A    between atoms: N_4  and  C_13
REMARK    3  A    between atoms: N_5  and  C_23
REMARK    4  A    between atoms: N_5  and  C_24
REMARK    5  A    between atoms: C_6  and  C_16
REMARK    6  A    between atoms: C_8  and  C_18
REMARK    7  A    between atoms: C_11  and  C_17
REMARK    8  A    between atoms: C_17  and  C_19
REMARK    9  A    between atoms: C_17  and  C_20
REMARK   10  A    between atoms: C_21  and  C_22
REMARK   11  A    between atoms: C_23  and  C_25
REMARK   12  A    between atoms: C_25  and  C_26
REMARK                            x       y       z     vdW  Elec       q    Type
REMARK                         _______ _______ _______ _____ _____    ______ ____
ROOT
ATOM      6  C   UNL     1      -1.823  -1.167  25.209  0.00  0.00    -0.027 C 
ATOM      7  C   UNL     1      -1.671  -0.038  24.136  0.00  0.00    +0.028 C 
ATOM      8  C   UNL     1      -0.169   0.398  23.991  0.00  0.00    +0.012 C 
ATOM      9  C   UNL     1      -2.681   1.119  24.387  0.00  0.00    +0.122 C 
ATOM     10  C   UNL     1      -3.292  -1.650  25.245  0.00  0.00    +0.007 C 
ATOM     11  C   UNL     1      -4.137   0.616  24.526  0.00  0.00    +0.029 C 
ATOM     12  C   UNL     1      -0.941  -2.371  24.802  0.00  0.00    +0.009 C 
ATOM     13  C   UNL     1       0.719  -0.833  23.656  0.00  0.00    +0.076 C 
ATOM     14  C   UNL     1      -4.280  -0.527  25.531  0.00  0.00    +0.007 C 
ATOM     15  C   UNL     1       0.525  -2.003  24.621  0.00  0.00    +0.023 C 
ATOM     16  C   UNL     1      -1.419  -0.695  26.629  0.00  0.00    +0.011 C 
ATOM     18  C   UNL     1       0.056   1.487  22.928  0.00  0.00    +0.010 C 
ENDROOT
BRANCH  13   4
ATOM      3  O   UNL     1       2.314  -0.106  21.342  0.00  0.00    -0.276 OA
ATOM      4  N   UNL     1       2.125  -0.490  23.630  0.00  0.00    -0.312 N 
ATOM     21  C   UNL     1       2.799  -0.155  22.470  0.00  0.00    +0.210 C 
ATOM     22  C   UNL     1       4.243   0.183  22.729  0.00  0.00    +0.109 C 
ATOM     32  H   UNL     1       2.647  -0.554  24.499  0.00  0.00    +0.149 HD
ENDBRANCH  13   4
BRANCH   9   1
ATOM      1  O   UNL     1      -2.664   2.018  23.277  0.00  0.00    -0.391 OA
ATOM     33  H   UNL     1      -2.818   2.917  23.614  0.00  0.00    +0.210 HD
ENDBRANCH   9   1
BRANCH  11  17
ATOM     17  C   UNL     1      -5.097   1.752  24.904  0.00  0.00    +0.078 C 
ATOM     19  C   UNL     1      -6.541   1.279  24.728  0.00  0.00    +0.017 C 
BRANCH  17  20
ATOM      2  O   UNL     1      -4.745   2.856  22.808  0.00  0.00    -0.275 OA
ATOM      5  N   UNL     1      -4.617   4.205  24.682  0.00  0.00    -0.304 N 
ATOM     20  C   UNL     1      -4.813   2.980  24.036  0.00  0.00    +0.219 C 
ATOM     24  C   UNL     1      -4.322   5.392  23.886  0.00  0.00    +0.132 C 
BRANCH   5  23
ATOM     23  C   UNL     1      -4.714   4.445  26.122  0.00  0.00    +0.112 C 
BRANCH  23  25
ATOM     25  C   UNL     1      -3.524   3.878  26.891  0.00  0.00    +0.054 C 
BRANCH  25  26
ATOM     26  C   UNL     1      -2.216   4.043  26.157  0.00  0.00    -0.046 A 
ATOM     27  C   UNL     1      -2.006   5.161  25.349  0.00  0.00    +0.004 A 
ATOM     28  C   UNL     1      -1.218   3.077  26.285  0.00  0.00    +0.004 A 
ATOM     29  C   UNL     1      -0.797   5.313  24.670  0.00  0.00    +0.000 A 
ATOM     30  C   UNL     1      -0.009   3.230  25.606  0.00  0.00    +0.000 A 
ATOM     31  C   UNL     1       0.202   4.348  24.798  0.00  0.00    +0.000 A 
ENDBRANCH  25  26
ENDBRANCH  23  25
ENDBRANCH   5  23
ENDBRANCH  17  20
ENDBRANCH  11  17
TORSDOF 7
ENDMDL
MODEL 2
REMARK VINA RESULT:      -0.5      1.589      4.135
REMARK  Name = 45361365
REMARK  12 active torsions:
REMARK  status: ('A' for Active; 'I' for Inactive)
REMARK    1  A    between atoms: O_1  and  C_9
REMARK    2  A    between atoms: N_4  and  C_13
REMARK    3  A    between atoms: N_5  and  C_23
REMARK    4  A    between atoms: N_5  and  C_24
REMARK    5  A    between atoms: C_6  and  C_16
REMARK    6  A    between atoms: C_8  and  C_18
REMARK    7  A    between atoms: C_11  and  C_17
REMARK    8  A    between atoms: C_17  and  C_19
REMARK    9  A    between atoms: C_17  and  C_20
REMARK   10  A    between atoms: C_21  and  C_22
REMARK   11  A    between atoms: C_23  and  C_25
REMARK   12  A    between atoms: C_25  and  C_26
REMARK                            x       y       z     vdW  Elec       q    Type
REMARK                         _______ _______ _______ _____ _____    ______ ____
ROOT
ATOM      6  C   UNL     1      -0.455   2.954  25.039  0.00  0.00    -0.027 C 
ATOM      7  C   UNL     1      -1.172   1.861  24.179  0.00  0.00    +0.028 C 
ATOM      8  C   UNL     1      -0.234   1.353  23.026  0.00  0.00    +0.012 C 
ATOM      9  C   UNL     1      -2.586   2.332  23.733  0.00  0.00    +0.122 C 
ATOM     10  C   UNL     1      -1.360   3.350  26.230  0.00  0.00    +0.007 C 
ATOM     11  C   UNL     1      -3.450   2.824  24.917  0.00  0.00    +0.029 C 
ATOM     12  C   UNL     1       0.853   2.364  25.618  0.00  0.00    +0.009 C 
ATOM     13  C   UNL     1       1.107   0.831  23.613  0.00  0.00    +0.076 C 
ATOM     14  C   UNL     1      -2.731   3.849  25.794  0.00  0.00    +0.007 C 
ATOM     15  C   UNL     1       1.792   1.831  24.545  0.00  0.00    +0.023 C 
ATOM     16  C   UNL     1      -0.122   4.228  24.222  0.00  0.00    +0.011 C 
ATOM     18  C   UNL     1      -0.868   0.252  22.157  0.00  0.00    +0.010 C 
ENDROOT
BRANCH  13   4
ATOM      3  O   UNL     1       4.006   0.955  23.718  0.00  0.00    -0.276 OA
ATOM      4  N   UNL     1       2.041   0.463  22.571  0.00  0.00    -0.312 N 
ATOM     21  C   UNL     1       3.413   0.558  22.718  0.00  0.00    +0.210 C 
ATOM     22  C   UNL     1       4.150   0.087  21.493  0.00  0.00    +0.109 C 
ATOM     32  H   UNL     1       1.664   0.176  21.673  0.00  0.00    +0.149 HD
ENDBRANCH  13   4
BRANCH   9   1
ATOM      1  O   UNL     1      -3.289   1.238  23.141  0.00  0.00    -0.391 OA
ATOM     33  H   UNL     1      -2.660   0.731  22.600  0.00  0.00    +0.210 HD
ENDBRANCH   9   1
BRANCH  11  17
ATOM     17  C   UNL     1      -4.788   3.406  24.441  0.00  0.00    +0.078 C 
ATOM     19  C   UNL     1      -4.617   4.895  24.136  0.00  0.00    +0.017 C 
BRANCH  17  20
ATOM      2  O   UNL     1      -6.454   4.158  25.989  0.00  0.00    -0.275 OA
ATOM      5  N   UNL     1      -6.105   1.872  25.927  0.00  0.00    -0.304 N 
ATOM     20  C   UNL     1      -5.859   3.185  25.513  0.00  0.00    +0.219 C 
ATOM     24  C   UNL     1      -7.105   1.628  26.962  0.00  0.00    +0.132 C 
BRANCH   5  23
ATOM     23  C   UNL     1      -5.474   0.666  25.392  0.00  0.00    +0.112 C 
BRANCH  23  25
ATOM     25  C   UNL     1      -4.387   0.117  26.312  0.00  0.00    +0.054 C 
BRANCH  25  26
ATOM     26  C   UNL     1      -3.457  -0.845  25.615  0.00  0.00    -0.046 A 
ATOM     27  C   UNL     1      -3.968  -1.780  24.715  0.00  0.00    +0.004 A 
ATOM     28  C   UNL     1      -2.087  -0.800  25.871  0.00  0.00    +0.004 A 
ATOM     29  C   UNL     1      -3.108  -2.669  24.070  0.00  0.00    +0.000 A 
ATOM     30  C   UNL     1      -1.227  -1.689  25.226  0.00  0.00    +0.000 A 
ATOM     31  C   UNL     1      -1.738  -2.624  24.325  0.00  0.00    +0.000 A 
ENDBRANCH  25  26
ENDBRANCH  23  25
ENDBRANCH   5  23
ENDBRANCH  17  20
ENDBRANCH  11  17
TORSDOF 7
ENDMDL
MODEL 3
REMARK VINA RESULT:       0.6      1.696      4.097
REMARK  Name = 45361365
REMARK  12 active torsions:
REMARK  status: ('A' for Active; 'I' for Inactive)
REMARK    1  A    between atoms: O_1  and  C_9
REMARK    2  A    between atoms: N_4  and  C_13
REMARK    3  A    between atoms: N_5  and  C_23
REMARK    4  A    between atoms: N_5  and  C_24
REMARK    5  A    between atoms: C_6  and  C_16
REMARK    6  A    between atoms: C_8  and  C_18
REMARK    7  A    between atoms: C_11  and  C_17
REMARK    8  A    between atoms: C_17  and  C_19
REMARK    9  A    between atoms: C_17  and  C_20
REMARK   10  A    between atoms: C_21  and  C_22
REMARK   11  A    between atoms: C_23  and  C_25
REMARK   12  A    between atoms: C_25  and  C_26
REMARK                            x       y       z     vdW  Elec       q    Type
REMARK                         _______ _______ _______ _____ _____    ______ ____
ROOT
ATOM      6  C   UNL     1      -2.231   1.776  22.703  0.00  0.00    -0.027 C 
ATOM      7  C   UNL     1      -1.290   2.364  23.806  0.00  0.00    +0.028 C 
ATOM      8  C   UNL     1      -0.185   1.324  24.211  0.00  0.00    +0.012 C 
ATOM      9  C   UNL     1      -2.109   2.963  24.986  0.00  0.00    +0.122 C 
ATOM     10  C   UNL     1      -3.234   2.862  22.247  0.00  0.00    +0.007 C 
ATOM     11  C   UNL     1      -3.182   3.971  24.513  0.00  0.00    +0.029 C 
ATOM     12  C   UNL     1      -1.380   1.376  21.474  0.00  0.00    +0.009 C 
ATOM     13  C   UNL     1       0.615   0.872  22.957  0.00  0.00    +0.076 C 
ATOM     14  C   UNL     1      -4.065   3.421  23.394  0.00  0.00    +0.007 C 
ATOM     15  C   UNL     1      -0.273   0.387  21.812  0.00  0.00    +0.023 C 
ATOM     16  C   UNL     1      -3.026   0.541  23.197  0.00  0.00    +0.011 C 
ATOM     18  C   UNL     1       0.796   1.850  25.274  0.00  0.00    +0.010 C 
ENDROOT
BRANCH  13   4
ATOM      3  O   UNL     1       3.497   0.943  22.611  0.00  0.00    -0.276 OA
ATOM      4  N   UNL     1       1.565  -0.173  23.275  0.00  0.00    -0.312 N 
ATOM     21  C   UNL     1       2.927  -0.042  23.072  0.00  0.00    +0.210 C 
ATOM     22  C   UNL     1       3.686  -1.266  23.511  0.00  0.00    +0.109 C 
ATOM     32  H   UNL     1       1.202  -1.061  23.608  0.00  0.00    +0.149 HD
ENDBRANCH  13   4
BRANCH   9   1
ATOM      1  O   UNL     1      -1.235   3.677  25.861  0.00  0.00    -0.391 OA
ATOM     33  H   UNL     1      -1.648   3.711  26.741  0.00  0.00    +0.210 HD
ENDBRANCH   9   1
BRANCH  11  17
ATOM     17  C   UNL     1      -4.064   4.450  25.674  0.00  0.00    +0.078 C 
ATOM     19  C   UNL     1      -3.355   4.172  27.001  0.00  0.00    +0.017 C 
BRANCH  17  20
ATOM      2  O   UNL     1      -6.453   4.417  25.516  0.00  0.00    -0.275 OA
ATOM      5  N   UNL     1      -5.435   2.349  25.706  0.00  0.00    -0.304 N 
ATOM     20  C   UNL     1      -5.421   3.745  25.618  0.00  0.00    +0.219 C 
ATOM     24  C   UNL     1      -6.715   1.647  25.677  0.00  0.00    +0.132 C 
BRANCH   5  23
ATOM     23  C   UNL     1      -4.264   1.479  25.792  0.00  0.00    +0.112 C 
BRANCH  23  25
ATOM     25  C   UNL     1      -4.637   0.009  25.969  0.00  0.00    +0.054 C 
BRANCH  25  26
ATOM     26  C   UNL     1      -3.540  -0.932  25.535  0.00  0.00    -0.046 A 
ATOM     27  C   UNL     1      -2.227  -0.711  25.949  0.00  0.00    +0.004 A 
ATOM     28  C   UNL     1      -3.840  -2.023  24.720  0.00  0.00    +0.004 A 
ATOM     29  C   UNL     1      -1.213  -1.581  25.548  0.00  0.00    +0.000 A 
ATOM     30  C   UNL     1      -2.827  -2.894  24.319  0.00  0.00    +0.000 A 
ATOM     31  C   UNL     1      -1.513  -2.673  24.732  0.00  0.00    +0.000 A 
ENDBRANCH  25  26
ENDBRANCH  23  25
ENDBRANCH   5  23
ENDBRANCH  17  20
ENDBRANCH  11  17
TORSDOF 7
ENDMDL
MODEL 4
REMARK VINA RESULT:       1.8      1.730      2.329
REMARK  Name = 45361365
REMARK  12 active torsions:
REMARK  status: ('A' for Active; 'I' for Inactive)
REMARK    1  A    between atoms: O_1  and  C_9
REMARK    2  A    between atoms: N_4  and  C_13
REMARK    3  A    between atoms: N_5  and  C_23
REMARK    4  A    between atoms: N_5  and  C_24
REMARK    5  A    between atoms: C_6  and  C_16
REMARK    6  A    between atoms: C_8  and  C_18
REMARK    7  A    between atoms: C_11  and  C_17
REMARK    8  A    between atoms: C_17  and  C_19
REMARK    9  A    between atoms: C_17  and  C_20
REMARK   10  A    between atoms: C_21  and  C_22
REMARK   11  A    between atoms: C_23  and  C_25
REMARK   12  A    between atoms: C_25  and  C_26
REMARK                            x       y       z     vdW  Elec       q    Type
REMARK                         _______ _______ _______ _____ _____    ______ ____
ROOT
ATOM      6  C   UNL     1      -1.688  -0.912  24.931  0.00  0.00    -0.027 C 
ATOM      7  C   UNL     1      -1.355   0.399  24.144  0.00  0.00    +0.028 C 
ATOM      8  C   UNL     1       0.198   0.625  24.068  0.00  0.00    +0.012 C 
ATOM      9  C   UNL     1      -2.180   1.603  24.680  0.00  0.00    +0.122 C 
ATOM     10  C   UNL     1      -3.214  -1.165  24.890  0.00  0.00    +0.007 C 
ATOM     11  C   UNL     1      -3.697   1.307  24.734  0.00  0.00    +0.029 C 
ATOM     12  C   UNL     1      -0.994  -2.108  24.236  0.00  0.00    +0.009 C 
ATOM     13  C   UNL     1       0.893  -0.614  23.437  0.00  0.00    +0.076 C 
ATOM     14  C   UNL     1      -4.023  -0.003  25.451  0.00  0.00    +0.007 C 
ATOM     15  C   UNL     1       0.512  -1.932  24.110  0.00  0.00    +0.023 C 
ATOM     16  C   UNL     1      -1.234  -0.849  26.411  0.00  0.00    +0.011 C 
ATOM     18  C   UNL     1       0.598   1.885  23.281  0.00  0.00    +0.010 C 
ENDROOT
BRANCH  13   4
ATOM      3  O   UNL     1       2.635   0.080  21.220  0.00  0.00    -0.276 OA
ATOM      4  N   UNL     1       2.335  -0.488  23.458  0.00  0.00    -0.312 N 
ATOM     21  C   UNL     1       3.079  -0.151  22.342  0.00  0.00    +0.210 C 
ATOM     22  C   UNL     1       4.551  -0.065  22.646  0.00  0.00    +0.109 C 
ATOM     32  H   UNL     1       2.820  -0.716  24.320  0.00  0.00    +0.149 HD
ENDBRANCH  13   4
BRANCH   9   1
ATOM      1  O   UNL     1      -2.014   2.722  23.808  0.00  0.00    -0.391 OA
ATOM     33  H   UNL     1      -1.467   3.384  24.265  0.00  0.00    +0.210 HD
ENDBRANCH   9   1
BRANCH  11  17
ATOM     17  C   UNL     1      -4.478   2.455  25.387  0.00  0.00    +0.078 C 
ATOM     19  C   UNL     1      -5.938   2.401  24.933  0.00  0.00    +0.017 C 
BRANCH  17  20
ATOM      2  O   UNL     1      -4.328   4.474  24.107  0.00  0.00    -0.275 OA
ATOM      5  N   UNL     1      -2.692   4.187  25.717  0.00  0.00    -0.304 N 
ATOM     20  C   UNL     1      -3.837   3.794  25.015  0.00  0.00    +0.219 C 
ATOM     24  C   UNL     1      -2.043   5.448  25.373  0.00  0.00    +0.132 C 
BRANCH   5  23
ATOM     23  C   UNL     1      -2.069   3.462  26.823  0.00  0.00    +0.112 C 
BRANCH  23  25
ATOM     25  C   UNL     1      -0.711   2.874  26.448  0.00  0.00    +0.054 C 
BRANCH  25  26
ATOM     26  C   UNL     1       0.239   2.796  27.618  0.00  0.00    -0.046 A 
ATOM     27  C   UNL     1       1.614   2.898  27.407  0.00  0.00    +0.004 A 
ATOM     28  C   UNL     1      -0.258   2.621  28.909  0.00  0.00    +0.004 A 
ATOM     29  C   UNL     1       2.492   2.825  28.489  0.00  0.00    +0.000 A 
ATOM     30  C   UNL     1       0.620   2.549  29.991  0.00  0.00    +0.000 A 
ATOM     31  C   UNL     1       1.996   2.651  29.781  0.00  0.00    +0.000 A 
ENDBRANCH  25  26
ENDBRANCH  23  25
ENDBRANCH   5  23
ENDBRANCH  17  20
ENDBRANCH  11  17
TORSDOF 7
ENDMDL
MODEL 5
REMARK VINA RESULT:       2.6      1.551      6.924
REMARK  Name = 45361365
REMARK  12 active torsions:
REMARK  status: ('A' for Active; 'I' for Inactive)
REMARK    1  A    between atoms: O_1  and  C_9
REMARK    2  A    between atoms: N_4  and  C_13
REMARK    3  A    between atoms: N_5  and  C_23
REMARK    4  A    between atoms: N_5  and  C_24
REMARK    5  A    between atoms: C_6  and  C_16
REMARK    6  A    between atoms: C_8  and  C_18
REMARK    7  A    between atoms: C_11  and  C_17
REMARK    8  A    between atoms: C_17  and  C_19
REMARK    9  A    between atoms: C_17  and  C_20
REMARK   10  A    between atoms: C_21  and  C_22
REMARK   11  A    between atoms: C_23  and  C_25
REMARK   12  A    between atoms: C_25  and  C_26
REMARK                            x       y       z     vdW  Elec       q    Type
REMARK                         _______ _______ _______ _____ _____    ______ ____
ROOT
ATOM      6  C   UNL     1      -1.256   3.055  25.617  0.00  0.00    -0.027 C 
ATOM      7  C   UNL     1      -1.478   2.671  24.116  0.00  0.00    +0.028 C 
ATOM      8  C   UNL     1      -2.986   2.322  23.846  0.00  0.00    +0.012 C 
ATOM      9  C   UNL     1      -0.450   1.599  23.651  0.00  0.00    +0.122 C 
ATOM     10  C   UNL     1       0.211   3.501  25.824  0.00  0.00    +0.007 C 
ATOM     11  C   UNL     1       1.010   2.006  23.955  0.00  0.00    +0.029 C 
ATOM     12  C   UNL     1      -2.167   4.255  25.971  0.00  0.00    +0.009 C 
ATOM     13  C   UNL     1      -3.897   3.506  24.275  0.00  0.00    +0.076 C 
ATOM     14  C   UNL     1       1.219   2.438  25.406  0.00  0.00    +0.007 C 
ATOM     15  C   UNL     1      -3.640   3.984  25.704  0.00  0.00    +0.023 C 
ATOM     16  C   UNL     1      -1.561   1.881  26.582  0.00  0.00    +0.011 C 
ATOM     18  C   UNL     1      -3.280   1.963  22.379  0.00  0.00    +0.010 C 
ENDROOT
BRANCH  13   4
ATOM      3  O   UNL     1      -5.394   1.547  25.809  0.00  0.00    -0.276 OA
ATOM      4  N   UNL     1      -5.301   3.175  24.148  0.00  0.00    -0.312 N 
ATOM     21  C   UNL     1      -5.925   2.221  24.930  0.00  0.00    +0.210 C 
ATOM     22  C   UNL     1      -7.391   2.094  24.609  0.00  0.00    +0.109 C 
ATOM     32  H   UNL     1      -5.832   3.628  23.409  0.00  0.00    +0.149 HD
ENDBRANCH  13   4
BRANCH   9   1
ATOM      1  O   UNL     1      -0.541   1.434  22.235  0.00  0.00    -0.391 OA
ATOM     33  H   UNL     1      -0.859   0.533  22.055  0.00  0.00    +0.210 HD
ENDBRANCH   9   1
BRANCH  11  17
ATOM     17  C   UNL     1       1.997   0.882  23.609  0.00  0.00    +0.078 C 
ATOM     19  C   UNL     1       3.149   1.453  22.780  0.00  0.00    +0.017 C 
BRANCH  17  20
ATOM      2  O   UNL     1       1.488  -0.384  21.642  0.00  0.00    -0.275 OA
ATOM      5  N   UNL     1       0.362  -1.020  23.559  0.00  0.00    -0.304 N 
ATOM     20  C   UNL     1       1.270  -0.229  22.849  0.00  0.00    +0.219 C 
ATOM     24  C   UNL     1      -0.364  -2.075  22.859  0.00  0.00    +0.132 C 
BRANCH   5  23
ATOM     23  C   UNL     1       0.073  -0.927  24.990  0.00  0.00    +0.112 C 
BRANCH  23  25
ATOM     25  C   UNL     1      -0.794  -2.080  25.489  0.00  0.00    +0.054 C 
BRANCH  25  26
ATOM     26  C   UNL     1      -2.195  -2.048  24.927  0.00  0.00    -0.046 A 
ATOM     27  C   UNL     1      -2.768  -3.213  24.418  0.00  0.00    +0.004 A 
ATOM     28  C   UNL     1      -2.914  -0.853  24.915  0.00  0.00    +0.004 A 
ATOM     29  C   UNL     1      -4.063  -3.183  23.899  0.00  0.00    +0.000 A 
ATOM     30  C   UNL     1      -4.208  -0.823  24.396  0.00  0.00    +0.000 A 
ATOM     31  C   UNL     1      -4.783  -1.988  23.887  0.00  0.00    +0.000 A 
ENDBRANCH  25  26
ENDBRANCH  23  25
ENDBRANCH   5  23
ENDBRANCH  17  20
ENDBRANCH  11  17
TORSDOF 7
ENDMDL
MODEL 6
REMARK VINA RESULT:       2.7      1.641      3.993
REMARK  Name = 45361365
REMARK  12 active torsions:
REMARK  status: ('A' for Active; 'I' for Inactive)
REMARK    1  A    between atoms: O_1  and  C_9
REMARK    2  A    between atoms: N_4  and  C_13
REMARK    3  A    between atoms: N_5  and  C_23
REMARK    4  A    between atoms: N_5  and  C_24
REMARK    5  A    between atoms: C_6  and  C_16
REMARK    6  A    between atoms: C_8  and  C_18
REMARK    7  A    between atoms: C_11  and  C_17
REMARK    8  A    between atoms: C_17  and  C_19
REMARK    9  A    between atoms: C_17  and  C_20
REMARK   10  A    between atoms: C_21  and  C_22
REMARK   11  A    between atoms: C_23  and  C_25
REMARK   12  A    between atoms: C_25  and  C_26
REMARK                            x       y       z     vdW  Elec       q    Type
REMARK                         _______ _______ _______ _____ _____    ______ ____
ROOT
ATOM      6  C   UNL     1      -0.893   0.385  23.319  0.00  0.00    -0.027 C 
ATOM      7  C   UNL     1       0.052   1.632  23.371  0.00  0.00    +0.028 C 
ATOM      8  C   UNL     1       1.510   1.211  23.778  0.00  0.00    +0.012 C 
ATOM      9  C   UNL     1      -0.573   2.778  24.216  0.00  0.00    +0.122 C 
ATOM     10  C   UNL     1      -2.288   0.816  22.807  0.00  0.00    +0.007 C 
ATOM     11  C   UNL     1      -2.009   3.134  23.765  0.00  0.00    +0.029 C 
ATOM     12  C   UNL     1      -0.319  -0.641  22.314  0.00  0.00    +0.009 C 
ATOM     13  C   UNL     1       2.048   0.124  22.806  0.00  0.00    +0.076 C 
ATOM     14  C   UNL     1      -2.920   1.911  23.656  0.00  0.00    +0.007 C 
ATOM     15  C   UNL     1       1.104  -1.067  22.643  0.00  0.00    +0.023 C 
ATOM     16  C   UNL     1      -1.058  -0.293  24.703  0.00  0.00    +0.011 C 
ATOM     18  C   UNL     1       2.501   2.387  23.820  0.00  0.00    +0.010 C 
ENDROOT
BRANCH  13   4
ATOM      3  O   UNL     1       4.648   1.261  22.191  0.00  0.00    -0.276 OA
ATOM      4  N   UNL     1       3.344  -0.371  23.219  0.00  0.00    -0.312 N 
ATOM     21  C   UNL     1       4.533   0.245  22.872  0.00  0.00    +0.210 C 
ATOM     22  C   UNL     1       5.728  -0.461  23.454  0.00  0.00    +0.109 C 
ATOM     32  H   UNL     1       3.377  -1.242  23.739  0.00  0.00    +0.149 HD
ENDBRANCH  13   4
BRANCH   9   1
ATOM      1  O   UNL     1       0.208   3.965  24.064  0.00  0.00    -0.391 OA
ATOM     33  H   UNL     1       1.058   3.717  23.660  0.00  0.00    +0.210 HD
ENDBRANCH   9   1
BRANCH  11  17
ATOM     17  C   UNL     1      -2.655   4.173  24.692  0.00  0.00    +0.078 C 
ATOM     19  C   UNL     1      -2.192   3.932  26.129  0.00  0.00    +0.017 C 
BRANCH  17  20
ATOM      2  O   UNL     1      -4.804   4.996  24.028  0.00  0.00    -0.275 OA
ATOM      5  N   UNL     1      -4.811   2.972  25.147  0.00  0.00    -0.304 N 
ATOM     20  C   UNL     1      -4.180   4.085  24.584  0.00  0.00    +0.219 C 
ATOM     24  C   UNL     1      -6.265   2.868  25.081  0.00  0.00    +0.132 C 
BRANCH   5  23
ATOM     23  C   UNL     1      -4.147   1.838  25.790  0.00  0.00    +0.112 C 
BRANCH  23  25
ATOM     25  C   UNL     1      -5.064   0.626  25.933  0.00  0.00    +0.054 C 
BRANCH  25  26
ATOM     26  C   UNL     1      -4.448  -0.644  25.399  0.00  0.00    -0.046 A 
ATOM     27  C   UNL     1      -3.612  -1.408  26.212  0.00  0.00    +0.004 A 
ATOM     28  C   UNL     1      -4.716  -1.052  24.092  0.00  0.00    +0.004 A 
ATOM     29  C   UNL     1      -3.043  -2.582  25.717  0.00  0.00    +0.000 A 
ATOM     30  C   UNL     1      -4.147  -2.226  23.598  0.00  0.00    +0.000 A 
ATOM     31  C   UNL     1      -3.310  -2.991  24.411  0.00  0.00    +0.000 A 
ENDBRANCH  25  26
ENDBRANCH  23  25
ENDBRANCH   5  23
ENDBRANCH  17  20
ENDBRANCH  11  17
TORSDOF 7
ENDMDL
MODEL 7
REMARK VINA RESULT:       2.8      1.592      2.521
REMARK  Name = 45361365
REMARK  12 active torsions:
REMARK  status: ('A' for Active; 'I' for Inactive)
REMARK    1  A    between atoms: O_1  and  C_9
REMARK    2  A    between atoms: N_4  and  C_13
REMARK    3  A    between atoms: N_5  and  C_23
REMARK    4  A    between atoms: N_5  and  C_24
REMARK    5  A    between atoms: C_6  and  C_16
REMARK    6  A    between atoms: C_8  and  C_18
REMARK    7  A    between atoms: C_11  and  C_17
REMARK    8  A    between atoms: C_17  and  C_19
REMARK    9  A    between atoms: C_17  and  C_20
REMARK   10  A    between atoms: C_21  and  C_22
REMARK   11  A    between atoms: C_23  and  C_25
REMARK   12  A    between atoms: C_25  and  C_26
REMARK                            x       y       z     vdW  Elec       q    Type
REMARK                         _______ _______ _______ _____ _____    ______ ____
ROOT
ATOM      6  C   UNL     1      -1.008   1.082  23.069  0.00  0.00    -0.027 C 
ATOM      7  C   UNL     1      -0.974   0.254  24.396  0.00  0.00    +0.028 C 
ATOM      8  C   UNL     1       0.109  -0.882  24.318  0.00  0.00    +0.012 C 
ATOM      9  C   UNL     1      -2.400  -0.210  24.809  0.00  0.00    +0.122 C 
ATOM     10  C   UNL     1      -2.001   2.259  23.222  0.00  0.00    +0.007 C 
ATOM     11  C   UNL     1      -3.413   0.957  24.858  0.00  0.00    +0.029 C 
ATOM     12  C   UNL     1       0.394   1.681  22.811  0.00  0.00    +0.009 C 
ATOM     13  C   UNL     1       1.501  -0.277  23.984  0.00  0.00    +0.076 C 
ATOM     14  C   UNL     1      -3.408   1.805  23.587  0.00  0.00    +0.007 C 
ATOM     15  C   UNL     1       1.491   0.627  22.751  0.00  0.00    +0.023 C 
ATOM     16  C   UNL     1      -1.432   0.229  21.847  0.00  0.00    +0.011 C 
ATOM     18  C   UNL     1       0.217  -1.719  25.604  0.00  0.00    +0.010 C 
ENDROOT
BRANCH  13   4
ATOM      3  O   UNL     1       4.375   0.074  23.767  0.00  0.00    -0.276 OA
ATOM      4  N   UNL     1       2.500  -1.306  23.789  0.00  0.00    -0.312 N 
ATOM     21  C   UNL     1       3.854  -1.036  23.698  0.00  0.00    +0.210 C 
ATOM     22  C   UNL     1       4.671  -2.288  23.523  0.00  0.00    +0.109 C 
ATOM     32  H   UNL     1       2.181  -2.261  23.657  0.00  0.00    +0.149 HD
ENDBRANCH  13   4
BRANCH   9   1
ATOM      1  O   UNL     1      -2.359  -0.771  26.123  0.00  0.00    -0.391 OA
ATOM     33  H   UNL     1      -2.024  -0.090  26.731  0.00  0.00    +0.210 HD
ENDBRANCH   9   1
BRANCH  11  17
ATOM     17  C   UNL     1      -4.839   0.462  25.138  0.00  0.00    +0.078 C 
ATOM     19  C   UNL     1      -5.191  -0.658  24.158  0.00  0.00    +0.017 C 
BRANCH  17  20
ATOM      2  O   UNL     1      -6.811   1.516  24.282  0.00  0.00    -0.275 OA
ATOM      5  N   UNL     1      -5.550   2.790  25.744  0.00  0.00    -0.304 N 
ATOM     20  C   UNL     1      -5.824   1.627  25.019  0.00  0.00    +0.219 C 
ATOM     24  C   UNL     1      -6.459   3.927  25.635  0.00  0.00    +0.132 C 
BRANCH   5  23
ATOM     23  C   UNL     1      -4.430   2.990  26.662  0.00  0.00    +0.112 C 
BRANCH  23  25
ATOM     25  C   UNL     1      -3.752   4.345  26.474  0.00  0.00    +0.054 C 
BRANCH  25  26
ATOM     26  C   UNL     1      -2.319   4.227  26.018  0.00  0.00    -0.046 A 
ATOM     27  C   UNL     1      -1.793   5.159  25.122  0.00  0.00    +0.004 A 
ATOM     28  C   UNL     1      -1.520   3.186  26.491  0.00  0.00    +0.004 A 
ATOM     29  C   UNL     1      -0.468   5.050  24.701  0.00  0.00    +0.000 A 
ATOM     30  C   UNL     1      -0.195   3.077  26.069  0.00  0.00    +0.000 A 
ATOM     31  C   UNL     1       0.331   4.009  25.173  0.00  0.00    +0.000 A 
ENDBRANCH  25  26
ENDBRANCH  23  25
ENDBRANCH   5  23
ENDBRANCH  17  20
ENDBRANCH  11  17
TORSDOF 7
ENDMDL
