MODEL 1
REMARK VINA RESULT:       2.3      0.000      0.000
REMARK  Name = 45783978
REMARK  14 active torsions:
REMARK  status: ('A' for Active; 'I' for Inactive)
REMARK    1  A    between atoms: N_2  and  C_14
REMARK    2  A    between atoms: N_2  and  C_20
REMARK    3  A    between atoms: N_6  and  C_32
REMARK    4  A    between atoms: N_6  and  C_33
REMARK    5  A    between atoms: N_6  and  C_34
REMARK    6  A    between atoms: C_7  and  C_11
REMARK    7  A    between atoms: C_8  and  C_14
REMARK    8  A    between atoms: C_10  and  C_15
REMARK    9  A    between atoms: C_11  and  C_16
REMARK   10  A    between atoms: C_11  and  C_17
REMARK   11  A    between atoms: C_12  and  C_18
REMARK   12  A    between atoms: C_15  and  C_19
REMARK   13  A    between atoms: C_20  and  C_21
REMARK   14  A    between atoms: C_22  and  C_25
REMARK                            x       y       z     vdW  Elec       q    Type
REMARK                         _______ _______ _______ _____ _____    ______ ____
ROOT
ATOM      7  C   UNL     1      -2.624   3.425  25.672  0.00  0.00    +0.000 C 
ATOM      8  C   UNL     1      -4.044   3.876  25.255  0.00  0.00    +0.029 C 
ATOM      9  C   UNL     1      -2.188   2.201  24.854  0.00  0.00    +0.012 C 
ATOM     10  C   UNL     1      -2.224   2.439  23.329  0.00  0.00    +0.024 C 
ATOM     12  C   UNL     1      -3.427   3.257  22.883  0.00  0.00    -0.073 C 
ATOM     13  C   UNL     1      -4.234   3.881  23.759  0.00  0.00    -0.023 C 
ATOM     18  C   UNL     1      -3.659   3.400  21.404  0.00  0.00    +0.039 C 
ENDROOT
BRANCH   7  11
ATOM     11  C   UNL     1      -1.612   4.571  25.540  0.00  0.00    -0.013 C 
ATOM     16  C   UNL     1      -2.286   5.812  24.965  0.00  0.00    +0.007 C 
ATOM     17  C   UNL     1      -0.435   4.142  24.669  0.00  0.00    +0.007 C 
ENDBRANCH   7  11
BRANCH   8  14
ATOM     14  C   UNL     1      -5.127   3.003  25.898  0.00  0.00    +0.089 C 
BRANCH  14   2
ATOM      2  N   UNL     1      -5.172   1.695  25.269  0.00  0.00    -0.311 NA
ATOM     35  H   UNL     1      -4.570   1.704  24.445  0.00  0.00    +0.122 HD
BRANCH   2  20
ATOM     20  C   UNL     1      -4.710   0.657  26.184  0.00  0.00    +0.117 C 
BRANCH  20  21
ATOM      5  N   UNL     1      -3.224  -2.755  25.487  0.00  0.00    -0.263 NA
ATOM     21  C   UNL     1      -4.328  -0.604  25.455  0.00  0.00    -0.016 A 
ATOM     23  C   UNL     1      -4.697  -0.804  24.129  0.00  0.00    +0.008 A 
ATOM     24  C   UNL     1      -3.600  -1.601  26.084  0.00  0.00    +0.115 A 
ATOM     26  C   UNL     1      -4.329  -1.978  23.482  0.00  0.00    +0.020 A 
ATOM     29  C   UNL     1      -3.600  -2.914  24.198  0.00  0.00    +0.111 A 
ENDBRANCH  20  21
ENDBRANCH   2  20
ENDBRANCH  14   2
ENDBRANCH   8  14
BRANCH  10  15
ATOM     15  C   UNL     1      -2.128   1.084  22.619  0.00  0.00    +0.105 C 
BRANCH  15  19
ATOM      1  O   UNL     1       0.242   0.575  22.908  0.00  0.00    -0.420 OA
ATOM      3  N   UNL     1      -1.133  -0.820  23.989  0.00  0.00    -0.112 NA
ATOM      4  N   UNL     1       0.166  -1.222  24.239  0.00  0.00    -0.107 NA
ATOM     19  C   UNL     1      -1.040   0.231  23.210  0.00  0.00    +0.218 A 
ATOM     22  C   UNL     1       0.934  -0.379  23.588  0.00  0.00    +0.248 A 
BRANCH  22  25
ATOM     25  C   UNL     1       2.363  -0.311  23.485  0.00  0.00    +0.039 A 
ATOM     27  C   UNL     1       3.145  -1.391  23.897  0.00  0.00    +0.015 A 
ATOM     28  C   UNL     1       2.972   0.836  22.974  0.00  0.00    +0.015 A 
ATOM     30  C   UNL     1       4.534  -1.324  23.796  0.00  0.00    +0.024 A 
ATOM     31  C   UNL     1       4.361   0.902  22.874  0.00  0.00    +0.024 A 
ATOM     32  C   UNL     1       5.143  -0.178  23.285  0.00  0.00    +0.029 A 
BRANCH  32   6
ATOM      6  N   UNL     1       6.547  -0.111  23.185  0.00  0.00    -0.336 N 
ATOM     33  C   UNL     1       7.278  -1.108  22.429  0.00  0.00    +0.129 C 
ATOM     34  C   UNL     1       7.280   0.954  23.841  0.00  0.00    +0.129 C 
ENDBRANCH  32   6
ENDBRANCH  22  25
ENDBRANCH  15  19
ENDBRANCH  10  15
TORSDOF 9
ENDMDL
MODEL 2
REMARK VINA RESULT:       2.6      1.794      4.087
REMARK  Name = 45783978
REMARK  14 active torsions:
REMARK  status: ('A' for Active; 'I' for Inactive)
REMARK    1  A    between atoms: N_2  and  C_14
REMARK    2  A    between atoms: N_2  and  C_20
REMARK    3  A    between atoms: N_6  and  C_32
REMARK    4  A    between atoms: N_6  and  C_33
REMARK    5  A    between atoms: N_6  and  C_34
REMARK    6  A    between atoms: C_7  and  C_11
REMARK    7  A    between atoms: C_8  and  C_14
REMARK    8  A    between atoms: C_10  and  C_15
REMARK    9  A    between atoms: C_11  and  C_16
REMARK   10  A    between atoms: C_11  and  C_17
REMARK   11  A    between atoms: C_12  and  C_18
REMARK   12  A    between atoms: C_15  and  C_19
REMARK   13  A    between atoms: C_20  and  C_21
REMARK   14  A    between atoms: C_22  and  C_25
REMARK                            x       y       z     vdW  Elec       q    Type
REMARK                         _______ _______ _______ _____ _____    ______ ____
ROOT
ATOM      7  C   UNL     1      -3.264   2.887  23.915  0.00  0.00    +0.000 C 
ATOM      8  C   UNL     1      -4.068   3.791  24.878  0.00  0.00    +0.029 C 
ATOM      9  C   UNL     1      -3.232   1.443  24.435  0.00  0.00    +0.012 C 
ATOM     10  C   UNL     1      -4.636   0.839  24.654  0.00  0.00    +0.024 C 
ATOM     12  C   UNL     1      -5.625   1.833  25.243  0.00  0.00    -0.073 C 
ATOM     13  C   UNL     1      -5.348   3.145  25.345  0.00  0.00    -0.023 C 
ATOM     18  C   UNL     1      -6.971   1.308  25.661  0.00  0.00    +0.039 C 
ENDROOT
BRANCH   7  11
ATOM     11  C   UNL     1      -3.825   2.950  22.488  0.00  0.00    -0.013 C 
ATOM     16  C   UNL     1      -2.805   2.411  21.491  0.00  0.00    +0.007 C 
ATOM     17  C   UNL     1      -4.223   4.380  22.136  0.00  0.00    +0.007 C 
ENDBRANCH   7  11
BRANCH   8  14
ATOM     14  C   UNL     1      -3.236   4.200  26.098  0.00  0.00    +0.089 C 
BRANCH  14   2
ATOM      2  N   UNL     1      -2.712   5.545  25.934  0.00  0.00    -0.311 NA
ATOM     35  H   UNL     1      -2.493   5.928  26.853  0.00  0.00    +0.122 HD
BRANCH   2  20
ATOM     20  C   UNL     1      -1.501   5.540  25.120  0.00  0.00    +0.117 C 
BRANCH  20  21
ATOM      5  N   UNL     1       0.519   2.517  24.066  0.00  0.00    -0.263 NA
ATOM     21  C   UNL     1      -0.787   4.217  25.185  0.00  0.00    -0.016 A 
ATOM     23  C   UNL     1      -0.757   3.476  26.362  0.00  0.00    +0.008 A 
ATOM     24  C   UNL     1      -0.139   3.698  24.075  0.00  0.00    +0.115 A 
ATOM     26  C   UNL     1      -0.090   2.257  26.391  0.00  0.00    +0.020 A 
ATOM     29  C   UNL     1       0.526   1.825  25.227  0.00  0.00    +0.111 A 
ENDBRANCH  20  21
ENDBRANCH   2  20
ENDBRANCH  14   2
ENDBRANCH   8  14
BRANCH  10  15
ATOM     15  C   UNL     1      -4.496  -0.434  25.496  0.00  0.00    +0.105 C 
BRANCH  15  19
ATOM      1  O   UNL     1      -2.174  -0.637  24.771  0.00  0.00    -0.420 OA
ATOM      3  N   UNL     1      -3.292  -2.574  24.818  0.00  0.00    -0.112 NA
ATOM      4  N   UNL     1      -2.002  -2.835  24.393  0.00  0.00    -0.107 NA
ATOM     19  C   UNL     1      -3.346  -1.280  25.026  0.00  0.00    +0.218 A 
ATOM     22  C   UNL     1      -1.386  -1.676  24.381  0.00  0.00    +0.248 A 
BRANCH  22  25
ATOM     25  C   UNL     1      -0.038  -1.342  24.027  0.00  0.00    +0.039 A 
ATOM     27  C   UNL     1       1.028  -1.875  24.754  0.00  0.00    +0.015 A 
ATOM     28  C   UNL     1       0.210  -0.483  22.956  0.00  0.00    +0.015 A 
ATOM     30  C   UNL     1       2.339  -1.550  24.409  0.00  0.00    +0.024 A 
ATOM     31  C   UNL     1       1.522  -0.158  22.612  0.00  0.00    +0.024 A 
ATOM     32  C   UNL     1       2.587  -0.691  23.338  0.00  0.00    +0.029 A 
BRANCH  32   6
ATOM      6  N   UNL     1       3.913  -0.362  22.990  0.00  0.00    -0.336 N 
ATOM     33  C   UNL     1       5.028  -1.039  23.623  0.00  0.00    +0.129 C 
ATOM     34  C   UNL     1       4.179   0.662  22.000  0.00  0.00    +0.129 C 
ENDBRANCH  32   6
ENDBRANCH  22  25
ENDBRANCH  15  19
ENDBRANCH  10  15
TORSDOF 9
ENDMDL
MODEL 3
REMARK VINA RESULT:       2.6      2.591      4.643
REMARK  Name = 45783978
REMARK  14 active torsions:
REMARK  status: ('A' for Active; 'I' for Inactive)
REMARK    1  A    between atoms: N_2  and  C_14
REMARK    2  A    between atoms: N_2  and  C_20
REMARK    3  A    between atoms: N_6  and  C_32
REMARK    4  A    between atoms: N_6  and  C_33
REMARK    5  A    between atoms: N_6  and  C_34
REMARK    6  A    between atoms: C_7  and  C_11
REMARK    7  A    between atoms: C_8  and  C_14
REMARK    8  A    between atoms: C_10  and  C_15
REMARK    9  A    between atoms: C_11  and  C_16
REMARK   10  A    between atoms: C_11  and  C_17
REMARK   11  A    between atoms: C_12  and  C_18
REMARK   12  A    between atoms: C_15  and  C_19
REMARK   13  A    between atoms: C_20  and  C_21
REMARK   14  A    between atoms: C_22  and  C_25
REMARK                            x       y       z     vdW  Elec       q    Type
REMARK                         _______ _______ _______ _____ _____    ______ ____
ROOT
ATOM      7  C   UNL     1      -2.879   2.773  24.128  0.00  0.00    +0.000 C 
ATOM      8  C   UNL     1      -3.294   3.651  25.332  0.00  0.00    +0.029 C 
ATOM      9  C   UNL     1      -3.106   1.288  24.443  0.00  0.00    +0.012 C 
ATOM     10  C   UNL     1      -4.562   0.961  24.840  0.00  0.00    +0.024 C 
ATOM     12  C   UNL     1      -5.190   2.027  25.726  0.00  0.00    -0.073 C 
ATOM     13  C   UNL     1      -4.602   3.217  25.942  0.00  0.00    -0.023 C 
ATOM     18  C   UNL     1      -6.541   1.730  26.316  0.00  0.00    +0.039 C 
ENDROOT
BRANCH   7  11
ATOM     11  C   UNL     1      -3.621   3.188  22.850  0.00  0.00    -0.013 C 
ATOM     16  C   UNL     1      -2.847   2.738  21.616  0.00  0.00    +0.007 C 
ATOM     17  C   UNL     1      -3.842   4.698  22.831  0.00  0.00    +0.007 C 
ENDBRANCH   7  11
BRANCH   8  14
ATOM     14  C   UNL     1      -2.213   3.670  26.418  0.00  0.00    +0.089 C 
BRANCH  14   2
ATOM      2  N   UNL     1      -0.889   3.586  25.825  0.00  0.00    -0.311 NA
ATOM     35  H   UNL     1      -0.332   4.376  26.149  0.00  0.00    +0.122 HD
BRANCH   2  20
ATOM     20  C   UNL     1      -0.222   2.346  26.206  0.00  0.00    +0.117 C 
BRANCH  20  21
ATOM      5  N   UNL     1       2.744   3.114  28.430  0.00  0.00    -0.263 NA
ATOM     21  C   UNL     1       0.618   2.519  27.444  0.00  0.00    -0.016 A 
ATOM     23  C   UNL     1       0.096   2.262  28.706  0.00  0.00    +0.008 A 
ATOM     24  C   UNL     1       1.936   2.940  27.360  0.00  0.00    +0.115 A 
ATOM     26  C   UNL     1       0.896   2.429  29.830  0.00  0.00    +0.020 A 
ATOM     29  C   UNL     1       2.202   2.853  29.641  0.00  0.00    +0.111 A 
ENDBRANCH  20  21
ENDBRANCH   2  20
ENDBRANCH  14   2
ENDBRANCH   8  14
BRANCH  10  15
ATOM     15  C   UNL     1      -4.596  -0.435  25.472  0.00  0.00    +0.105 C 
BRANCH  15  19
ATOM      1  O   UNL     1      -2.253  -0.547  24.798  0.00  0.00    -0.420 OA
ATOM      3  N   UNL     1      -3.248  -2.541  24.987  0.00  0.00    -0.112 NA
ATOM      4  N   UNL     1      -1.936  -2.753  24.603  0.00  0.00    -0.107 NA
ATOM     19  C   UNL     1      -3.386  -1.241  25.089  0.00  0.00    +0.218 A 
ATOM     22  C   UNL     1      -1.394  -1.561  24.505  0.00  0.00    +0.248 A 
BRANCH  22  25
ATOM     25  C   UNL     1      -0.062  -1.171  24.143  0.00  0.00    +0.039 A 
ATOM     27  C   UNL     1       0.145  -0.022  23.380  0.00  0.00    +0.015 A 
ATOM     28  C   UNL     1       1.026  -1.942  24.553  0.00  0.00    +0.015 A 
ATOM     30  C   UNL     1       1.441   0.357  23.028  0.00  0.00    +0.024 A 
ATOM     31  C   UNL     1       2.321  -1.563  24.201  0.00  0.00    +0.024 A 
ATOM     32  C   UNL     1       2.529  -0.413  23.438  0.00  0.00    +0.029 A 
BRANCH  32   6
ATOM      6  N   UNL     1       3.838  -0.031  23.081  0.00  0.00    -0.336 N 
ATOM     33  C   UNL     1       4.983  -0.632  23.736  0.00  0.00    +0.129 C 
ATOM     34  C   UNL     1       4.056   0.974  22.059  0.00  0.00    +0.129 C 
ENDBRANCH  32   6
ENDBRANCH  22  25
ENDBRANCH  15  19
ENDBRANCH  10  15
TORSDOF 9
ENDMDL
MODEL 4
REMARK VINA RESULT:       4.8      2.847      6.508
REMARK  Name = 45783978
REMARK  14 active torsions:
REMARK  status: ('A' for Active; 'I' for Inactive)
REMARK    1  A    between atoms: N_2  and  C_14
REMARK    2  A    between atoms: N_2  and  C_20
REMARK    3  A    between atoms: N_6  and  C_32
REMARK    4  A    between atoms: N_6  and  C_33
REMARK    5  A    between atoms: N_6  and  C_34
REMARK    6  A    between atoms: C_7  and  C_11
REMARK    7  A    between atoms: C_8  and  C_14
REMARK    8  A    between atoms: C_10  and  C_15
REMARK    9  A    between atoms: C_11  and  C_16
REMARK   10  A    between atoms: C_11  and  C_17
REMARK   11  A    between atoms: C_12  and  C_18
REMARK   12  A    between atoms: C_15  and  C_19
REMARK   13  A    between atoms: C_20  and  C_21
REMARK   14  A    between atoms: C_22  and  C_25
REMARK                            x       y       z     vdW  Elec       q    Type
REMARK                         _______ _______ _______ _____ _____    ______ ____
ROOT
ATOM      7  C   UNL     1      -2.821  -1.148  24.646  0.00  0.00    +0.000 C 
ATOM      8  C   UNL     1      -1.525  -0.657  23.959  0.00  0.00    +0.029 C 
ATOM      9  C   UNL     1      -3.746   0.038  24.956  0.00  0.00    +0.012 C 
ATOM     10  C   UNL     1      -4.111   0.872  23.709  0.00  0.00    +0.024 C 
ATOM     12  C   UNL     1      -2.941   1.055  22.753  0.00  0.00    -0.073 C 
ATOM     13  C   UNL     1      -1.791   0.371  22.889  0.00  0.00    -0.023 C 
ATOM     18  C   UNL     1      -3.132   1.996  21.595  0.00  0.00    +0.039 C 
ENDROOT
BRANCH   7  11
ATOM     11  C   UNL     1      -3.540  -2.205  23.797  0.00  0.00    -0.013 C 
ATOM     16  C   UNL     1      -5.041  -1.938  23.775  0.00  0.00    +0.007 C 
ATOM     17  C   UNL     1      -3.246  -3.604  24.331  0.00  0.00    +0.007 C 
ENDBRANCH   7  11
BRANCH   8  14
ATOM     14  C   UNL     1      -0.529  -0.084  24.972  0.00  0.00    +0.089 C 
BRANCH  14   2
ATOM      2  N   UNL     1       0.533   0.640  24.295  0.00  0.00    -0.311 NA
ATOM     35  H   UNL     1       1.260   0.869  24.972  0.00  0.00    +0.122 HD
BRANCH   2  20
ATOM     20  C   UNL     1       1.115  -0.162  23.224  0.00  0.00    +0.117 C 
BRANCH  20  21
ATOM      5  N   UNL     1       4.686  -1.292  23.775  0.00  0.00    -0.263 NA
ATOM     21  C   UNL     1       2.620  -0.144  23.266  0.00  0.00    -0.016 A 
ATOM     23  C   UNL     1       3.334   0.977  22.857  0.00  0.00    +0.008 A 
ATOM     24  C   UNL     1       3.336  -1.243  23.712  0.00  0.00    +0.115 A 
ATOM     26  C   UNL     1       4.723   0.964  22.908  0.00  0.00    +0.020 A 
ATOM     29  C   UNL     1       5.347  -0.183  23.371  0.00  0.00    +0.111 A 
ENDBRANCH  20  21
ENDBRANCH   2  20
ENDBRANCH  14   2
ENDBRANCH   8  14
BRANCH  10  15
ATOM     15  C   UNL     1      -4.718   2.202  24.170  0.00  0.00    +0.105 C 
BRANCH  15  19
ATOM      1  O   UNL     1      -2.751   2.473  25.589  0.00  0.00    -0.420 OA
ATOM      3  N   UNL     1      -3.537   4.386  24.738  0.00  0.00    -0.112 NA
ATOM      4  N   UNL     1      -2.432   4.686  25.514  0.00  0.00    -0.107 NA
ATOM     19  C   UNL     1      -3.685   3.085  24.811  0.00  0.00    +0.218 A 
ATOM     22  C   UNL     1      -2.006   3.539  25.990  0.00  0.00    +0.248 A 
BRANCH  22  25
ATOM     25  C   UNL     1      -0.900   3.243  26.852  0.00  0.00    +0.039 A 
ATOM     27  C   UNL     1       0.370   3.037  26.312  0.00  0.00    +0.015 A 
ATOM     28  C   UNL     1      -1.093   3.159  28.232  0.00  0.00    +0.015 A 
ATOM     30  C   UNL     1       1.446   2.749  27.152  0.00  0.00    +0.024 A 
ATOM     31  C   UNL     1      -0.016   2.871  29.070  0.00  0.00    +0.024 A 
ATOM     32  C   UNL     1       1.254   2.665  28.530  0.00  0.00    +0.029 A 
BRANCH  32   6
ATOM      6  N   UNL     1       2.341   2.374  29.378  0.00  0.00    -0.336 N 
ATOM     33  C   UNL     1       3.691   2.735  28.992  0.00  0.00    +0.129 C 
ATOM     34  C   UNL     1       2.126   1.702  30.644  0.00  0.00    +0.129 C 
ENDBRANCH  32   6
ENDBRANCH  22  25
ENDBRANCH  15  19
ENDBRANCH  10  15
TORSDOF 9
ENDMDL
