MODEL 1
REMARK VINA RESULT:       2.5      0.000      0.000
REMARK  Name = 28962742
REMARK  8 active torsions:
REMARK  status: ('A' for Active; 'I' for Inactive)
REMARK    1  A    between atoms: O_1  and  C_9
REMARK    2  A    between atoms: N_4  and  C_13
REMARK    3  A    between atoms: C_6  and  C_16
REMARK    4  A    between atoms: C_8  and  C_18
REMARK    5  A    between atoms: C_11  and  C_17
REMARK    6  A    between atoms: C_17  and  C_19
REMARK    7  A    between atoms: C_17  and  C_20
REMARK    8  A    between atoms: C_21  and  C_22
REMARK                            x       y       z     vdW  Elec       q    Type
REMARK                         _______ _______ _______ _____ _____    ______ ____
ROOT
ATOM      6  C   UNL     1      -1.847  -0.819  25.406  0.00  0.00    -0.027 C 
ATOM      7  C   UNL     1      -2.023   0.005  24.087  0.00  0.00    +0.028 C 
ATOM      8  C   UNL     1      -0.629   0.319  23.434  0.00  0.00    +0.012 C 
ATOM      9  C   UNL     1      -2.948   1.235  24.311  0.00  0.00    +0.122 C 
ATOM     10  C   UNL     1      -3.237  -1.208  25.961  0.00  0.00    +0.007 C 
ATOM     11  C   UNL     1      -4.297   0.853  24.963  0.00  0.00    +0.029 C 
ATOM     12  C   UNL     1      -1.086  -2.127  25.085  0.00  0.00    +0.009 C 
ATOM     13  C   UNL     1       0.159  -0.998  23.186  0.00  0.00    +0.076 C 
ATOM     14  C   UNL     1      -4.133  -0.002  26.218  0.00  0.00    +0.007 C 
ATOM     15  C   UNL     1       0.264  -1.886  24.425  0.00  0.00    +0.023 C 
ATOM     16  C   UNL     1      -1.076  -0.035  26.498  0.00  0.00    +0.011 C 
ATOM     18  C   UNL     1      -0.730   1.105  22.115  0.00  0.00    +0.010 C 
ENDROOT
BRANCH  13   4
ATOM      3  O   UNL     1       1.884   1.240  23.855  0.00  0.00    -0.276 OA
ATOM      4  N   UNL     1       1.494  -0.739  22.692  0.00  0.00    -0.312 N 
ATOM     21  C   UNL     1       2.240   0.362  23.073  0.00  0.00    +0.216 C 
ATOM     32  H   UNL     1       1.870  -1.377  21.996  0.00  0.00    +0.149 HD
BRANCH  21  22
ATOM     22  C   UNL     1       3.597   0.376  22.432  0.00  0.00    +0.075 C 
ATOM     25  C   UNL     1       4.523   1.378  23.126  0.00  0.00    +0.013 C 
ATOM     26  C   UNL     1       4.178  -1.040  22.398  0.00  0.00    +0.013 C 
ATOM     29  C   UNL     1       5.057   0.883  24.469  0.00  0.00    +0.001 C 
ATOM     30  C   UNL     1       4.699  -1.506  23.756  0.00  0.00    +0.001 C 
ATOM     31  C   UNL     1       5.678  -0.504  24.358  0.00  0.00    +0.000 C 
ENDBRANCH  21  22
ENDBRANCH  13   4
BRANCH   9   1
ATOM      1  O   UNL     1      -3.258   1.834  23.051  0.00  0.00    -0.391 OA
ATOM     33  H   UNL     1      -3.461   2.772  23.205  0.00  0.00    +0.210 HD
ENDBRANCH   9   1
BRANCH  11  17
ATOM     17  C   UNL     1      -5.140   2.092  25.294  0.00  0.00    +0.078 C 
ATOM     19  C   UNL     1      -6.599   1.872  24.936  0.00  0.00    +0.017 C 
BRANCH  17  20
ATOM      2  O   UNL     1      -5.204   3.723  23.559  0.00  0.00    -0.275 OA
ATOM      5  N   UNL     1      -3.383   3.764  24.980  0.00  0.00    -0.301 N 
ATOM     20  C   UNL     1      -4.591   3.268  24.526  0.00  0.00    +0.219 C 
ATOM     23  C   UNL     1      -2.718   4.891  24.344  0.00  0.00    +0.108 C 
ATOM     24  C   UNL     1      -2.610   3.273  26.118  0.00  0.00    +0.108 C 
ATOM     27  C   UNL     1      -1.635   5.300  25.331  0.00  0.00    +0.020 C 
ATOM     28  C   UNL     1      -1.267   3.980  25.996  0.00  0.00    +0.020 C 
ENDBRANCH  17  20
ENDBRANCH  11  17
TORSDOF 5
ENDMDL
