MODEL 1
REMARK VINA RESULT:       2.5      0.000      0.000
REMARK  Name = 26742713
REMARK  3 active torsions:
REMARK  status: ('A' for Active; 'I' for Inactive)
REMARK    1  A    between atoms: N_3  and  C_12
REMARK    2  A    between atoms: N_5  and  C_22
REMARK    3  A    between atoms: C_22  and  C_23
REMARK                            x       y       z     vdW  Elec       q    Type
REMARK                         _______ _______ _______ _____ _____    ______ ____
ROOT
ATOM      1  O   UNL     1      -4.462  -0.029  25.713  0.00  0.00    -0.276 OA
ATOM      2  O   UNL     1       3.206  -1.545  23.471  0.00  0.00    -0.253 OA
ATOM      3  N   UNL     1      -3.432   1.873  24.866  0.00  0.00    -0.298 N 
ATOM      4  N   UNL     1       1.222  -0.358  23.695  0.00  0.00    -0.285 N 
ATOM      5  N   UNL     1       3.176   0.653  22.820  0.00  0.00    -0.296 N 
ATOM      6  C   UNL     1      -0.955   0.721  23.096  0.00  0.00    +0.011 C 
ATOM      7  C   UNL     1      -1.722  -0.453  23.744  0.00  0.00    +0.004 C 
ATOM      8  C   UNL     1      -1.738   2.045  23.066  0.00  0.00    +0.024 C 
ATOM      9  C   UNL     1      -0.849  -1.717  23.633  0.00  0.00    +0.023 C 
ATOM     10  C   UNL     1       0.455   0.900  23.696  0.00  0.00    +0.113 C 
ATOM     11  C   UNL     1      -2.143  -0.207  25.202  0.00  0.00    +0.100 C 
ATOM     13  C   UNL     1      -2.217   2.554  24.422  0.00  0.00    +0.108 C 
ATOM     14  C   UNL     1       0.527  -1.520  24.256  0.00  0.00    +0.109 C 
ATOM     15  C   UNL     1      -3.456   0.548  25.291  0.00  0.00    +0.216 C 
ATOM     21  C   UNL     1       2.577  -0.491  23.336  0.00  0.00    +0.302 C 
ATOM     25  H   UNL     1       2.655   1.502  22.656  0.00  0.00    +0.151 HD
ENDROOT
BRANCH   3  12
ATOM     12  C   UNL     1      -4.651   2.644  24.842  0.00  0.00    +0.076 C 
ATOM     16  C   UNL     1      -5.553   2.271  26.022  0.00  0.00    +0.022 C 
ATOM     17  C   UNL     1      -4.338   4.143  24.833  0.00  0.00    +0.022 C 
ATOM     18  C   UNL     1      -6.824   3.114  26.047  0.00  0.00    +0.002 C 
ATOM     19  C   UNL     1      -5.612   4.984  24.861  0.00  0.00    +0.002 C 
ATOM     20  C   UNL     1      -6.509   4.607  26.035  0.00  0.00    +0.000 C 
ENDBRANCH   3  12
BRANCH   5  22
ATOM     22  C   UNL     1       4.562   0.681  22.413  0.00  0.00    +0.132 C 
BRANCH  22  23
ATOM     23  C   UNL     1       5.428   0.593  23.626  0.00  0.00    -0.016 C 
ATOM     24  C   UNL     1       6.186  -0.468  23.927  0.00  0.00    +0.005 C 
ENDBRANCH  22  23
ENDBRANCH   5  22
TORSDOF 3
ENDMDL
MODEL 2
REMARK VINA RESULT:       4.2      1.303      8.050
REMARK  Name = 26742713
REMARK  3 active torsions:
REMARK  status: ('A' for Active; 'I' for Inactive)
REMARK    1  A    between atoms: N_3  and  C_12
REMARK    2  A    between atoms: N_5  and  C_22
REMARK    3  A    between atoms: C_22  and  C_23
REMARK                            x       y       z     vdW  Elec       q    Type
REMARK                         _______ _______ _______ _____ _____    ______ ____
ROOT
ATOM      1  O   UNL     1       1.444  -2.504  24.432  0.00  0.00    -0.276 OA
ATOM      2  O   UNL     1      -5.862   0.744  25.916  0.00  0.00    -0.253 OA
ATOM      3  N   UNL     1       1.213  -0.430  23.412  0.00  0.00    -0.298 N 
ATOM      4  N   UNL     1      -3.665   0.634  25.169  0.00  0.00    -0.285 N 
ATOM      5  N   UNL     1      -5.037   2.505  24.700  0.00  0.00    -0.296 N 
ATOM      6  C   UNL     1      -1.193   1.011  25.065  0.00  0.00    +0.011 C 
ATOM      7  C   UNL     1      -0.947  -0.404  25.633  0.00  0.00    +0.004 C 
ATOM      8  C   UNL     1      -0.038   1.556  24.208  0.00  0.00    +0.024 C 
ATOM      9  C   UNL     1      -2.146  -0.780  26.523  0.00  0.00    +0.023 C 
ATOM     10  C   UNL     1      -2.550   1.122  24.338  0.00  0.00    +0.113 C 
ATOM     11  C   UNL     1      -0.703  -1.481  24.563  0.00  0.00    +0.100 C 
ATOM     13  C   UNL     1       0.360   0.690  23.017  0.00  0.00    +0.108 C 
ATOM     14  C   UNL     1      -3.469  -0.686  25.773  0.00  0.00    +0.109 C 
ATOM     15  C   UNL     1       0.751  -1.529  24.130  0.00  0.00    +0.216 C 
ATOM     21  C   UNL     1      -4.919   1.259  25.306  0.00  0.00    +0.302 C 
ATOM     25  H   UNL     1      -4.256   2.956  24.247  0.00  0.00    +0.151 HD
ENDROOT
BRANCH   3  12
ATOM     12  C   UNL     1       2.601  -0.352  23.027  0.00  0.00    +0.076 C 
ATOM     16  C   UNL     1       3.072   1.104  22.986  0.00  0.00    +0.022 C 
ATOM     17  C   UNL     1       3.468  -1.192  23.969  0.00  0.00    +0.022 C 
ATOM     18  C   UNL     1       4.553   1.207  22.634  0.00  0.00    +0.002 C 
ATOM     19  C   UNL     1       4.949  -1.085  23.617  0.00  0.00    +0.002 C 
ATOM     20  C   UNL     1       5.414   0.368  23.573  0.00  0.00    +0.000 C 
ENDBRANCH   3  12
BRANCH   5  22
ATOM     22  C   UNL     1      -6.263   3.270  24.743  0.00  0.00    +0.132 C 
BRANCH  22  23
ATOM     23  C   UNL     1      -6.013   4.550  25.470  0.00  0.00    -0.016 C 
ATOM     24  C   UNL     1      -4.804   4.955  25.874  0.00  0.00    +0.005 C 
ENDBRANCH  22  23
ENDBRANCH   5  22
TORSDOF 3
ENDMDL
MODEL 3
REMARK VINA RESULT:       5.9      1.696      2.635
REMARK  Name = 26742713
REMARK  3 active torsions:
REMARK  status: ('A' for Active; 'I' for Inactive)
REMARK    1  A    between atoms: N_3  and  C_12
REMARK    2  A    between atoms: N_5  and  C_22
REMARK    3  A    between atoms: C_22  and  C_23
REMARK                            x       y       z     vdW  Elec       q    Type
REMARK                         _______ _______ _______ _____ _____    ______ ____
ROOT
ATOM      1  O   UNL     1      -3.571   3.786  23.450  0.00  0.00    -0.276 OA
ATOM      2  O   UNL     1       3.996   0.899  22.719  0.00  0.00    -0.253 OA
ATOM      3  N   UNL     1      -3.431   1.579  24.160  0.00  0.00    -0.298 N 
ATOM      4  N   UNL     1       1.761   0.950  23.353  0.00  0.00    -0.285 N 
ATOM      5  N   UNL     1       3.087  -0.989  23.649  0.00  0.00    -0.296 N 
ATOM      6  C   UNL     1      -0.269   1.144  24.802  0.00  0.00    +0.011 C 
ATOM      7  C   UNL     1      -0.503   2.583  24.292  0.00  0.00    +0.004 C 
ATOM      8  C   UNL     1      -1.544   0.431  25.284  0.00  0.00    +0.024 C 
ATOM      9  C   UNL     1       0.862   3.189  23.919  0.00  0.00    +0.023 C 
ATOM     10  C   UNL     1       0.521   0.286  23.792  0.00  0.00    +0.113 C 
ATOM     11  C   UNL     1      -1.486   2.685  23.114  0.00  0.00    +0.100 C 
ATOM     13  C   UNL     1      -2.669   0.335  24.259  0.00  0.00    +0.108 C 
ATOM     14  C   UNL     1       1.609   2.335  22.901  0.00  0.00    +0.109 C 
ATOM     15  C   UNL     1      -2.928   2.742  23.584  0.00  0.00    +0.216 C 
ATOM     21  C   UNL     1       3.017   0.328  23.209  0.00  0.00    +0.302 C 
ATOM     25  H   UNL     1       2.307  -1.445  24.100  0.00  0.00    +0.151 HD
ENDROOT
BRANCH   3  12
ATOM     12  C   UNL     1      -4.766   1.565  24.706  0.00  0.00    +0.076 C 
ATOM     16  C   UNL     1      -4.875   0.547  25.845  0.00  0.00    +0.022 C 
ATOM     17  C   UNL     1      -5.172   2.966  25.170  0.00  0.00    +0.022 C 
ATOM     18  C   UNL     1      -6.266   0.554  26.474  0.00  0.00    +0.002 C 
ATOM     19  C   UNL     1      -6.562   2.970  25.802  0.00  0.00    +0.002 C 
ATOM     20  C   UNL     1      -6.668   1.952  26.934  0.00  0.00    +0.000 C 
ENDBRANCH   3  12
BRANCH   5  22
ATOM     22  C   UNL     1       4.301  -1.768  23.562  0.00  0.00    +0.132 C 
BRANCH  22  23
ATOM     23  C   UNL     1       5.391  -1.054  24.289  0.00  0.00    -0.016 C 
ATOM     24  C   UNL     1       6.320  -0.300  23.689  0.00  0.00    +0.005 C 
ENDBRANCH  22  23
ENDBRANCH   5  22
TORSDOF 3
ENDMDL
