MODEL 1
REMARK VINA RESULT:      -2.5      0.000      0.000
REMARK  Name = 75536923
REMARK  7 active torsions:
REMARK  status: ('A' for Active; 'I' for Inactive)
REMARK    1  A    between atoms: S_1  and  C_22
REMARK    2  A    between atoms: S_1  and  C_25
REMARK    3  A    between atoms: O_3  and  C_10
REMARK    4  A    between atoms: O_3  and  C_16
REMARK    5  A    between atoms: N_6  and  C_13
REMARK    6  A    between atoms: N_7  and  C_20
REMARK    7  A    between atoms: C_13  and  C_15
REMARK                            x       y       z     vdW  Elec       q    Type
REMARK                         _______ _______ _______ _____ _____    ______ ____
ROOT
ATOM      2  O   UNL     1      -5.671   3.726  24.990  0.00  0.00    -0.375 OA
ATOM      6  N   UNL     1      -4.491   0.865  25.379  0.00  0.00    -0.289 NA
ATOM      9  C   UNL     1      -3.256   1.643  25.526  0.00  0.00    +0.131 C 
ATOM     10  C   UNL     1      -3.362   3.176  25.462  0.00  0.00    +0.213 C 
ATOM     11  C   UNL     1      -5.665   1.473  26.007  0.00  0.00    +0.113 C 
ATOM     12  C   UNL     1      -4.360   3.695  24.436  0.00  0.00    +0.205 C 
ATOM     14  C   UNL     1      -6.319   2.462  25.041  0.00  0.00    +0.175 C 
ENDROOT
BRANCH  10   3
ATOM      3  O   UNL     1      -2.074   3.696  25.127  0.00  0.00    -0.485 OA
BRANCH   3  16
ATOM     16  C   UNL     1      -1.186   2.819  24.570  0.00  0.00    +0.121 A 
ATOM     18  C   UNL     1      -1.541   2.098  23.428  0.00  0.00    +0.047 A 
ATOM     19  C   UNL     1       0.074   2.643  25.141  0.00  0.00    +0.047 A 
ATOM     22  C   UNL     1       0.625   1.028  23.431  0.00  0.00    +0.088 A 
ATOM     23  C   UNL     1      -0.636   1.203  22.859  0.00  0.00    +0.030 A 
ATOM     24  C   UNL     1       0.979   1.748  24.572  0.00  0.00    +0.030 A 
BRANCH  22   1
ATOM      1  S   UNL     1       1.759  -0.090  22.715  0.00  0.00    -0.006 S 
ATOM      4  O   UNL     1       1.999  -1.182  23.648  0.00  0.00    -0.170 OA
ATOM      5  O   UNL     1       1.307  -0.381  21.362  0.00  0.00    -0.170 OA
ATOM     25  C   UNL     1       3.276   0.833  22.598  0.00  0.00    +0.200 C 
ENDBRANCH  22   1
ENDBRANCH   3  16
ENDBRANCH  10   3
BRANCH   6  13
ATOM     13  C   UNL     1      -4.281  -0.505  25.850  0.00  0.00    +0.159 C 
BRANCH  13  15
ATOM      7  N   UNL     1      -2.833  -1.989  24.425  0.00  0.00    -0.336 N 
ATOM      8  N   UNL     1      -1.775  -0.708  25.898  0.00  0.00    -0.239 NA
ATOM     15  C   UNL     1      -2.948  -1.050  25.411  0.00  0.00    +0.124 A 
ATOM     17  C   UNL     1      -1.504  -2.264  24.273  0.00  0.00    +0.106 A 
ATOM     20  C   UNL     1      -3.907  -2.592  23.672  0.00  0.00    +0.150 C 
ATOM     21  C   UNL     1      -0.871  -1.461  25.192  0.00  0.00    +0.130 A 
ENDBRANCH  13  15
ENDBRANCH   6  13
TORSDOF 5
ENDMDL
MODEL 2
REMARK VINA RESULT:      -2.2      2.260      5.674
REMARK  Name = 75536923
REMARK  7 active torsions:
REMARK  status: ('A' for Active; 'I' for Inactive)
REMARK    1  A    between atoms: S_1  and  C_22
REMARK    2  A    between atoms: S_1  and  C_25
REMARK    3  A    between atoms: O_3  and  C_10
REMARK    4  A    between atoms: O_3  and  C_16
REMARK    5  A    between atoms: N_6  and  C_13
REMARK    6  A    between atoms: N_7  and  C_20
REMARK    7  A    between atoms: C_13  and  C_15
REMARK                            x       y       z     vdW  Elec       q    Type
REMARK                         _______ _______ _______ _____ _____    ______ ____
ROOT
ATOM      2  O   UNL     1       2.583   1.150  22.790  0.00  0.00    -0.375 OA
ATOM      6  N   UNL     1       0.150  -0.590  23.675  0.00  0.00    -0.289 NA
ATOM      9  C   UNL     1      -0.403   0.738  23.959  0.00  0.00    +0.131 C 
ATOM     10  C   UNL     1       0.458   1.964  23.613  0.00  0.00    +0.213 C 
ATOM     11  C   UNL     1       0.940  -0.664  22.444  0.00  0.00    +0.113 C 
ATOM     12  C   UNL     1       1.944   1.787  23.891  0.00  0.00    +0.205 C 
ATOM     14  C   UNL     1       2.387  -0.256  22.728  0.00  0.00    +0.175 C 
ENDROOT
BRANCH  10   3
ATOM      3  O   UNL     1      -0.008   3.068  24.390  0.00  0.00    -0.485 OA
BRANCH   3  16
ATOM     16  C   UNL     1      -1.335   3.067  24.718  0.00  0.00    +0.121 A 
ATOM     18  C   UNL     1      -2.255   2.400  23.908  0.00  0.00    +0.047 A 
ATOM     19  C   UNL     1      -1.772   3.734  25.863  0.00  0.00    +0.047 A 
ATOM     22  C   UNL     1      -4.044   3.066  25.387  0.00  0.00    +0.088 A 
ATOM     23  C   UNL     1      -3.608   2.399  24.242  0.00  0.00    +0.030 A 
ATOM     24  C   UNL     1      -3.126   3.733  26.198  0.00  0.00    +0.030 A 
BRANCH  22   1
ATOM      1  S   UNL     1      -5.739   3.061  25.807  0.00  0.00    -0.006 S 
ATOM      4  O   UNL     1      -5.897   2.465  27.126  0.00  0.00    -0.170 OA
ATOM      5  O   UNL     1      -6.269   4.392  25.547  0.00  0.00    -0.170 OA
ATOM     25  C   UNL     1      -6.480   1.941  24.640  0.00  0.00    +0.200 C 
ENDBRANCH  22   1
ENDBRANCH   3  16
ENDBRANCH  10   3
BRANCH   6  13
ATOM     13  C   UNL     1      -0.915  -1.593  23.688  0.00  0.00    +0.159 C 
BRANCH  13  15
ATOM      7  N   UNL     1      -3.215  -1.319  24.669  0.00  0.00    -0.336 N 
ATOM      8  N   UNL     1      -1.523  -1.260  26.105  0.00  0.00    -0.239 NA
ATOM     15  C   UNL     1      -1.861  -1.390  24.841  0.00  0.00    +0.124 A 
ATOM     17  C   UNL     1      -3.776  -1.133  25.901  0.00  0.00    +0.106 A 
ATOM     20  C   UNL     1      -3.938  -1.421  23.423  0.00  0.00    +0.150 C 
ATOM     21  C   UNL     1      -2.712  -1.100  26.771  0.00  0.00    +0.130 A 
ENDBRANCH  13  15
ENDBRANCH   6  13
TORSDOF 5
ENDMDL
MODEL 3
REMARK VINA RESULT:      -1.9      2.243      3.855
REMARK  Name = 75536923
REMARK  7 active torsions:
REMARK  status: ('A' for Active; 'I' for Inactive)
REMARK    1  A    between atoms: S_1  and  C_22
REMARK    2  A    between atoms: S_1  and  C_25
REMARK    3  A    between atoms: O_3  and  C_10
REMARK    4  A    between atoms: O_3  and  C_16
REMARK    5  A    between atoms: N_6  and  C_13
REMARK    6  A    between atoms: N_7  and  C_20
REMARK    7  A    between atoms: C_13  and  C_15
REMARK                            x       y       z     vdW  Elec       q    Type
REMARK                         _______ _______ _______ _____ _____    ______ ____
ROOT
ATOM      2  O   UNL     1      -6.328   1.769  24.974  0.00  0.00    -0.375 OA
ATOM      6  N   UNL     1      -3.808   3.165  26.170  0.00  0.00    -0.289 NA
ATOM      9  C   UNL     1      -3.150   2.031  25.512  0.00  0.00    +0.131 C 
ATOM     10  C   UNL     1      -4.029   1.058  24.710  0.00  0.00    +0.213 C 
ATOM     11  C   UNL     1      -4.912   3.748  25.406  0.00  0.00    +0.113 C 
ATOM     12  C   UNL     1      -5.383   0.768  25.342  0.00  0.00    +0.205 C 
ATOM     14  C   UNL     1      -6.206   2.987  25.697  0.00  0.00    +0.175 C 
ENDROOT
BRANCH  10   3
ATOM      3  O   UNL     1      -3.325  -0.179  24.588  0.00  0.00    -0.485 OA
BRANCH   3  16
ATOM     16  C   UNL     1      -2.028  -0.105  24.163  0.00  0.00    +0.121 A 
ATOM     18  C   UNL     1      -1.090  -1.033  24.618  0.00  0.00    +0.047 A 
ATOM     19  C   UNL     1      -1.640   0.899  23.276  0.00  0.00    +0.047 A 
ATOM     22  C   UNL     1       0.620   0.046  23.297  0.00  0.00    +0.088 A 
ATOM     23  C   UNL     1       0.233  -0.959  24.185  0.00  0.00    +0.030 A 
ATOM     24  C   UNL     1      -0.316   0.974  22.843  0.00  0.00    +0.030 A 
BRANCH  22   1
ATOM      1  S   UNL     1       2.277   0.136  22.752  0.00  0.00    -0.006 S 
ATOM      4  O   UNL     1       2.321  -0.153  21.325  0.00  0.00    -0.170 OA
ATOM      5  O   UNL     1       2.846   1.378  23.256  0.00  0.00    -0.170 OA
ATOM     25  C   UNL     1       3.089  -1.213  23.579  0.00  0.00    +0.200 C 
ENDBRANCH  22   1
ENDBRANCH   3  16
ENDBRANCH  10   3
BRANCH   6  13
ATOM     13  C   UNL     1      -2.818   4.178  26.538  0.00  0.00    +0.159 C 
BRANCH  13  15
ATOM      7  N   UNL     1      -0.620   3.507  25.513  0.00  0.00    -0.336 N 
ATOM      8  N   UNL     1      -1.715   5.152  24.499  0.00  0.00    -0.239 NA
ATOM     15  C   UNL     1      -1.732   4.302  25.502  0.00  0.00    +0.124 A 
ATOM     17  C   UNL     1       0.156   3.873  24.450  0.00  0.00    +0.106 A 
ATOM     20  C   UNL     1      -0.306   2.467  26.464  0.00  0.00    +0.150 C 
ATOM     21  C   UNL     1      -0.540   4.889  23.839  0.00  0.00    +0.130 A 
ENDBRANCH  13  15
ENDBRANCH   6  13
TORSDOF 5
ENDMDL
MODEL 4
REMARK VINA RESULT:      -1.8     18.857     20.300
REMARK  Name = 75536923
REMARK  7 active torsions:
REMARK  status: ('A' for Active; 'I' for Inactive)
REMARK    1  A    between atoms: S_1  and  C_22
REMARK    2  A    between atoms: S_1  and  C_25
REMARK    3  A    between atoms: O_3  and  C_10
REMARK    4  A    between atoms: O_3  and  C_16
REMARK    5  A    between atoms: N_6  and  C_13
REMARK    6  A    between atoms: N_7  and  C_20
REMARK    7  A    between atoms: C_13  and  C_15
REMARK                            x       y       z     vdW  Elec       q    Type
REMARK                         _______ _______ _______ _____ _____    ______ ____
ROOT
ATOM      2  O   UNL     1      16.522  -2.642  24.474  0.00  0.00    -0.375 OA
ATOM      6  N   UNL     1      16.978  -3.256  27.498  0.00  0.00    -0.289 NA
ATOM      9  C   UNL     1      17.405  -4.543  26.936  0.00  0.00    +0.131 C 
ATOM     10  C   UNL     1      17.404  -4.694  25.406  0.00  0.00    +0.213 C 
ATOM     11  C   UNL     1      17.397  -2.090  26.718  0.00  0.00    +0.113 C 
ATOM     12  C   UNL     1      16.233  -4.016  24.708  0.00  0.00    +0.205 C 
ATOM     14  C   UNL     1      16.377  -1.807  25.614  0.00  0.00    +0.175 C 
ENDROOT
BRANCH  10   3
ATOM      3  O   UNL     1      17.355  -6.088  25.098  0.00  0.00    -0.485 OA
BRANCH   3  16
ATOM     16  C   UNL     1      16.863  -6.912  26.070  0.00  0.00    +0.121 A 
ATOM     18  C   UNL     1      17.405  -6.878  27.355  0.00  0.00    +0.047 A 
ATOM     19  C   UNL     1      15.818  -7.789  25.780  0.00  0.00    +0.047 A 
ATOM     22  C   UNL     1      15.858  -8.595  28.056  0.00  0.00    +0.088 A 
ATOM     23  C   UNL     1      16.904  -7.718  28.348  0.00  0.00    +0.030 A 
ATOM     24  C   UNL     1      15.315  -8.631  26.772  0.00  0.00    +0.030 A 
BRANCH  22   1
ATOM      1  S   UNL     1      15.228  -9.645  29.301  0.00  0.00    -0.006 S 
ATOM      4  O   UNL     1      14.208 -10.507  28.720  0.00  0.00    -0.170 OA
ATOM      5  O   UNL     1      16.358 -10.234  30.004  0.00  0.00    -0.170 OA
ATOM     25  C   UNL     1      14.397  -8.546  30.427  0.00  0.00    +0.200 C 
ENDBRANCH  22   1
ENDBRANCH   3  16
ENDBRANCH  10   3
BRANCH   6  13
ATOM     13  C   UNL     1      17.405  -3.150  28.893  0.00  0.00    +0.159 C 
BRANCH  13  15
ATOM      7  N   UNL     1      16.058  -3.036  31.014  0.00  0.00    -0.336 N 
ATOM      8  N   UNL     1      15.629  -4.751  29.670  0.00  0.00    -0.239 NA
ATOM     15  C   UNL     1      16.358  -3.670  29.841  0.00  0.00    +0.124 A 
ATOM     17  C   UNL     1      15.076  -3.759  31.631  0.00  0.00    +0.106 A 
ATOM     20  C   UNL     1      16.657  -1.826  31.524  0.00  0.00    +0.150 C 
ATOM     21  C   UNL     1      14.828  -4.812  30.783  0.00  0.00    +0.130 A 
ENDBRANCH  13  15
ENDBRANCH   6  13
TORSDOF 5
ENDMDL
MODEL 5
REMARK VINA RESULT:      -1.4      2.913      4.930
REMARK  Name = 75536923
REMARK  7 active torsions:
REMARK  status: ('A' for Active; 'I' for Inactive)
REMARK    1  A    between atoms: S_1  and  C_22
REMARK    2  A    between atoms: S_1  and  C_25
REMARK    3  A    between atoms: O_3  and  C_10
REMARK    4  A    between atoms: O_3  and  C_16
REMARK    5  A    between atoms: N_6  and  C_13
REMARK    6  A    between atoms: N_7  and  C_20
REMARK    7  A    between atoms: C_13  and  C_15
REMARK                            x       y       z     vdW  Elec       q    Type
REMARK                         _______ _______ _______ _____ _____    ______ ____
ROOT
ATOM      2  O   UNL     1       0.123   4.998  23.802  0.00  0.00    -0.375 OA
ATOM      6  N   UNL     1      -2.417   4.132  25.392  0.00  0.00    -0.289 NA
ATOM      9  C   UNL     1      -1.492   3.091  25.855  0.00  0.00    +0.131 C 
ATOM     10  C   UNL     1      -0.039   3.150  25.356  0.00  0.00    +0.213 C 
ATOM     11  C   UNL     1      -1.814   5.460  25.265  0.00  0.00    +0.113 C 
ATOM     12  C   UNL     1       0.111   3.578  23.903  0.00  0.00    +0.205 C 
ATOM     14  C   UNL     1      -1.158   5.606  23.891  0.00  0.00    +0.175 C 
ENDROOT
BRANCH  10   3
ATOM      3  O   UNL     1       0.531   1.847  25.493  0.00  0.00    -0.485 OA
BRANCH   3  16
ATOM     16  C   UNL     1      -0.299   0.788  25.247  0.00  0.00    +0.121 A 
ATOM     18  C   UNL     1      -1.316   0.475  26.150  0.00  0.00    +0.047 A 
ATOM     19  C   UNL     1      -0.130   0.021  24.095  0.00  0.00    +0.047 A 
ATOM     22  C   UNL     1      -1.993  -1.371  24.747  0.00  0.00    +0.088 A 
ATOM     23  C   UNL     1      -2.163  -0.605  25.900  0.00  0.00    +0.030 A 
ATOM     24  C   UNL     1      -0.976  -1.058  23.844  0.00  0.00    +0.030 A 
BRANCH  22   1
ATOM      1  S   UNL     1      -3.056  -2.720  24.433  0.00  0.00    -0.006 S 
ATOM      4  O   UNL     1      -2.443  -3.583  23.433  0.00  0.00    -0.170 OA
ATOM      5  O   UNL     1      -3.465  -3.276  25.715  0.00  0.00    -0.170 OA
ATOM     25  C   UNL     1      -4.489  -1.987  23.674  0.00  0.00    +0.200 C 
ENDBRANCH  22   1
ENDBRANCH   3  16
ENDBRANCH  10   3
BRANCH   6  13
ATOM     13  C   UNL     1      -3.606   4.163  26.244  0.00  0.00    +0.159 C 
BRANCH  13  15
ATOM      7  N   UNL     1      -4.619   2.586  24.566  0.00  0.00    -0.336 N 
ATOM      8  N   UNL     1      -5.622   2.690  26.544  0.00  0.00    -0.239 NA
ATOM     15  C   UNL     1      -4.630   3.147  25.812  0.00  0.00    +0.124 A 
ATOM     17  C   UNL     1      -5.671   1.716  24.499  0.00  0.00    +0.106 A 
ATOM     20  C   UNL     1      -3.679   2.851  23.503  0.00  0.00    +0.150 C 
ATOM     21  C   UNL     1      -6.274   1.797  25.731  0.00  0.00    +0.130 A 
ENDBRANCH  13  15
ENDBRANCH   6  13
TORSDOF 5
ENDMDL
MODEL 6
REMARK VINA RESULT:      -1.3      2.943      4.619
REMARK  Name = 75536923
REMARK  7 active torsions:
REMARK  status: ('A' for Active; 'I' for Inactive)
REMARK    1  A    between atoms: S_1  and  C_22
REMARK    2  A    between atoms: S_1  and  C_25
REMARK    3  A    between atoms: O_3  and  C_10
REMARK    4  A    between atoms: O_3  and  C_16
REMARK    5  A    between atoms: N_6  and  C_13
REMARK    6  A    between atoms: N_7  and  C_20
REMARK    7  A    between atoms: C_13  and  C_15
REMARK                            x       y       z     vdW  Elec       q    Type
REMARK                         _______ _______ _______ _____ _____    ______ ____
ROOT
ATOM      2  O   UNL     1      -2.225   5.962  24.863  0.00  0.00    -0.375 OA
ATOM      6  N   UNL     1      -0.558   3.338  24.613  0.00  0.00    -0.289 NA
ATOM      9  C   UNL     1      -1.873   2.811  24.228  0.00  0.00    +0.131 C 
ATOM     10  C   UNL     1      -3.047   3.800  24.151  0.00  0.00    +0.213 C 
ATOM     11  C   UNL     1      -0.266   4.672  24.086  0.00  0.00    +0.113 C 
ATOM     12  C   UNL     1      -3.047   4.863  25.241  0.00  0.00    +0.205 C 
ATOM     14  C   UNL     1      -0.831   5.739  25.025  0.00  0.00    +0.175 C 
ENDROOT
BRANCH  10   3
ATOM      3  O   UNL     1      -4.262   3.056  24.260  0.00  0.00    -0.485 OA
BRANCH   3  16
ATOM     16  C   UNL     1      -4.144   1.694  24.292  0.00  0.00    +0.121 A 
ATOM     18  C   UNL     1      -3.620   1.013  23.192  0.00  0.00    +0.047 A 
ATOM     19  C   UNL     1      -4.547   0.985  25.423  0.00  0.00    +0.047 A 
ATOM     22  C   UNL     1      -3.903  -1.084  24.356  0.00  0.00    +0.088 A 
ATOM     23  C   UNL     1      -3.500  -0.376  23.224  0.00  0.00    +0.030 A 
ATOM     24  C   UNL     1      -4.426  -0.404  25.455  0.00  0.00    +0.030 A 
BRANCH  22   1
ATOM      1  S   UNL     1      -3.747  -2.823  24.396  0.00  0.00    -0.006 S 
ATOM      4  O   UNL     1      -3.548  -3.248  25.775  0.00  0.00    -0.170 OA
ATOM      5  O   UNL     1      -4.839  -3.389  23.616  0.00  0.00    -0.170 OA
ATOM     25  C   UNL     1      -2.229  -3.152  23.528  0.00  0.00    +0.200 C 
ENDBRANCH  22   1
ENDBRANCH   3  16
ENDBRANCH  10   3
BRANCH   6  13
ATOM     13  C   UNL     1       0.490   2.381  24.259  0.00  0.00    +0.159 C 
BRANCH  13  15
ATOM      7  N   UNL     1       0.451  -0.093  23.804  0.00  0.00    -0.336 N 
ATOM      8  N   UNL     1      -0.618   0.586  25.628  0.00  0.00    -0.239 NA
ATOM     15  C   UNL     1       0.093   0.967  24.589  0.00  0.00    +0.124 A 
ATOM     17  C   UNL     1      -0.064  -1.221  24.378  0.00  0.00    +0.106 A 
ATOM     20  C   UNL     1       1.229  -0.049  22.589  0.00  0.00    +0.150 C 
ATOM     21  C   UNL     1      -0.719  -0.777  25.502  0.00  0.00    +0.130 A 
ENDBRANCH  13  15
ENDBRANCH   6  13
TORSDOF 5
ENDMDL
MODEL 7
REMARK VINA RESULT:      -0.7      2.899      5.321
REMARK  Name = 75536923
REMARK  7 active torsions:
REMARK  status: ('A' for Active; 'I' for Inactive)
REMARK    1  A    between atoms: S_1  and  C_22
REMARK    2  A    between atoms: S_1  and  C_25
REMARK    3  A    between atoms: O_3  and  C_10
REMARK    4  A    between atoms: O_3  and  C_16
REMARK    5  A    between atoms: N_6  and  C_13
REMARK    6  A    between atoms: N_7  and  C_20
REMARK    7  A    between atoms: C_13  and  C_15
REMARK                            x       y       z     vdW  Elec       q    Type
REMARK                         _______ _______ _______ _____ _____    ______ ____
ROOT
ATOM      2  O   UNL     1      -4.388  -3.280  23.914  0.00  0.00    -0.375 OA
ATOM      6  N   UNL     1      -1.911  -1.571  24.734  0.00  0.00    -0.289 NA
ATOM      9  C   UNL     1      -2.956  -0.556  24.908  0.00  0.00    +0.131 C 
ATOM     10  C   UNL     1      -4.413  -0.978  24.661  0.00  0.00    +0.213 C 
ATOM     11  C   UNL     1      -2.294  -2.913  25.176  0.00  0.00    +0.113 C 
ATOM     12  C   UNL     1      -4.601  -1.936  23.493  0.00  0.00    +0.205 C 
ATOM     14  C   UNL     1      -3.021  -3.645  24.046  0.00  0.00    +0.175 C 
ENDROOT
BRANCH  10   3
ATOM      3  O   UNL     1      -5.177   0.200  24.393  0.00  0.00    -0.485 OA
BRANCH   3  16
ATOM     16  C   UNL     1      -4.520   1.393  24.508  0.00  0.00    +0.121 A 
ATOM     18  C   UNL     1      -4.856   2.279  25.532  0.00  0.00    +0.047 A 
ATOM     19  C   UNL     1      -3.514   1.727  23.601  0.00  0.00    +0.047 A 
ATOM     22  C   UNL     1      -3.180   3.829  24.742  0.00  0.00    +0.088 A 
ATOM     23  C   UNL     1      -4.187   3.497  25.650  0.00  0.00    +0.030 A 
ATOM     24  C   UNL     1      -2.844   2.945  23.718  0.00  0.00    +0.030 A 
BRANCH  22   1
ATOM      1  S   UNL     1      -2.340   5.353  24.893  0.00  0.00    -0.006 S 
ATOM      4  O   UNL     1      -2.662   6.186  23.743  0.00  0.00    -0.170 OA
ATOM      5  O   UNL     1      -2.568   5.858  26.239  0.00  0.00    -0.170 OA
ATOM     25  C   UNL     1      -0.619   4.923  24.756  0.00  0.00    +0.200 C 
ENDBRANCH  22   1
ENDBRANCH   3  16
ENDBRANCH  10   3
BRANCH   6  13
ATOM     13  C   UNL     1      -0.671  -1.131  25.374  0.00  0.00    +0.159 C 
BRANCH  13  15
ATOM      7  N   UNL     1       0.175   1.185  24.877  0.00  0.00    -0.336 N 
ATOM      8  N   UNL     1       0.691  -0.387  23.396  0.00  0.00    -0.239 NA
ATOM     15  C   UNL     1       0.073  -0.132  24.528  0.00  0.00    +0.124 A 
ATOM     17  C   UNL     1       0.905   1.811  23.906  0.00  0.00    +0.106 A 
ATOM     20  C   UNL     1      -0.379   1.818  26.050  0.00  0.00    +0.150 C 
ATOM     21  C   UNL     1       1.212   0.821  23.004  0.00  0.00    +0.130 A 
ENDBRANCH  13  15
ENDBRANCH   6  13
TORSDOF 5
ENDMDL
MODEL 8
REMARK VINA RESULT:       0.2      2.772      4.955
REMARK  Name = 75536923
REMARK  7 active torsions:
REMARK  status: ('A' for Active; 'I' for Inactive)
REMARK    1  A    between atoms: S_1  and  C_22
REMARK    2  A    between atoms: S_1  and  C_25
REMARK    3  A    between atoms: O_3  and  C_10
REMARK    4  A    between atoms: O_3  and  C_16
REMARK    5  A    between atoms: N_6  and  C_13
REMARK    6  A    between atoms: N_7  and  C_20
REMARK    7  A    between atoms: C_13  and  C_15
REMARK                            x       y       z     vdW  Elec       q    Type
REMARK                         _______ _______ _______ _____ _____    ______ ____
ROOT
ATOM      2  O   UNL     1      -0.287   5.283  25.362  0.00  0.00    -0.375 OA
ATOM      6  N   UNL     1      -2.673   3.836  23.968  0.00  0.00    -0.289 NA
ATOM      9  C   UNL     1      -2.060   2.679  24.629  0.00  0.00    +0.131 C 
ATOM     10  C   UNL     1      -0.830   2.929  25.517  0.00  0.00    +0.213 C 
ATOM     11  C   UNL     1      -2.677   5.059  24.774  0.00  0.00    +0.113 C 
ATOM     12  C   UNL     1       0.133   3.978  24.977  0.00  0.00    +0.205 C 
ATOM     14  C   UNL     1      -1.357   5.809  24.589  0.00  0.00    +0.175 C 
ENDROOT
BRANCH  10   3
ATOM      3  O   UNL     1      -0.116   1.698  25.643  0.00  0.00    -0.485 OA
BRANCH   3  16
ATOM     16  C   UNL     1      -0.804   0.558  25.336  0.00  0.00    +0.121 A 
ATOM     18  C   UNL     1      -0.464  -0.179  24.201  0.00  0.00    +0.047 A 
ATOM     19  C   UNL     1      -1.848   0.130  26.156  0.00  0.00    +0.047 A 
ATOM     22  C   UNL     1      -2.209  -1.769  24.709  0.00  0.00    +0.088 A 
ATOM     23  C   UNL     1      -1.166  -1.342  23.887  0.00  0.00    +0.030 A 
ATOM     24  C   UNL     1      -2.551  -1.033  25.843  0.00  0.00    +0.030 A 
BRANCH  22   1
ATOM      1  S   UNL     1      -3.085  -3.229  24.317  0.00  0.00    -0.006 S 
ATOM      4  O   UNL     1      -2.346  -3.966  23.302  0.00  0.00    -0.170 OA
ATOM      5  O   UNL     1      -3.446  -3.883  25.567  0.00  0.00    -0.170 OA
ATOM     25  C   UNL     1      -4.584  -2.653  23.550  0.00  0.00    +0.200 C 
ENDBRANCH  22   1
ENDBRANCH   3  16
ENDBRANCH  10   3
BRANCH   6  13
ATOM     13  C   UNL     1      -4.019   3.496  23.505  0.00  0.00    +0.159 C 
BRANCH  13  15
ATOM      7  N   UNL     1      -5.580   2.995  25.414  0.00  0.00    -0.336 N 
ATOM      8  N   UNL     1      -4.588   1.246  24.474  0.00  0.00    -0.239 NA
ATOM     15  C   UNL     1      -4.716   2.554  24.452  0.00  0.00    +0.124 A 
ATOM     17  C   UNL     1      -6.032   1.899  26.092  0.00  0.00    +0.106 A 
ATOM     20  C   UNL     1      -5.958   4.363  25.679  0.00  0.00    +0.150 C 
ATOM     21  C   UNL     1      -5.407   0.832  25.494  0.00  0.00    +0.130 A 
ENDBRANCH  13  15
ENDBRANCH   6  13
TORSDOF 5
ENDMDL
MODEL 9
REMARK VINA RESULT:       0.3      2.851      5.234
REMARK  Name = 75536923
REMARK  7 active torsions:
REMARK  status: ('A' for Active; 'I' for Inactive)
REMARK    1  A    between atoms: S_1  and  C_22
REMARK    2  A    between atoms: S_1  and  C_25
REMARK    3  A    between atoms: O_3  and  C_10
REMARK    4  A    between atoms: O_3  and  C_16
REMARK    5  A    between atoms: N_6  and  C_13
REMARK    6  A    between atoms: N_7  and  C_20
REMARK    7  A    between atoms: C_13  and  C_15
REMARK                            x       y       z     vdW  Elec       q    Type
REMARK                         _______ _______ _______ _____ _____    ______ ____
ROOT
ATOM      2  O   UNL     1      -4.256  -3.218  23.768  0.00  0.00    -0.375 OA
ATOM      6  N   UNL     1      -1.864  -1.513  24.817  0.00  0.00    -0.289 NA
ATOM      9  C   UNL     1      -2.945  -0.543  25.025  0.00  0.00    +0.131 C 
ATOM     10  C   UNL     1      -4.378  -0.982  24.687  0.00  0.00    +0.213 C 
ATOM     11  C   UNL     1      -2.224  -2.895  25.138  0.00  0.00    +0.113 C 
ATOM     12  C   UNL     1      -4.492  -1.852  23.442  0.00  0.00    +0.205 C 
ATOM     14  C   UNL     1      -2.885  -3.556  23.927  0.00  0.00    +0.175 C 
ENDROOT
BRANCH  10   3
ATOM      3  O   UNL     1      -5.165   0.192  24.478  0.00  0.00    -0.485 OA
BRANCH   3  16
ATOM     16  C   UNL     1      -4.508   1.389  24.551  0.00  0.00    +0.121 A 
ATOM     18  C   UNL     1      -3.566   1.728  23.579  0.00  0.00    +0.047 A 
ATOM     19  C   UNL     1      -4.779   2.271  25.596  0.00  0.00    +0.047 A 
ATOM     22  C   UNL     1      -3.168   3.831  24.698  0.00  0.00    +0.088 A 
ATOM     23  C   UNL     1      -2.896   2.949  23.652  0.00  0.00    +0.030 A 
ATOM     24  C   UNL     1      -4.109   3.492  25.670  0.00  0.00    +0.030 A 
BRANCH  22   1
ATOM      1  S   UNL     1      -2.331   5.361  24.787  0.00  0.00    -0.006 S 
ATOM      4  O   UNL     1      -0.902   5.111  24.917  0.00  0.00    -0.170 OA
ATOM      5  O   UNL     1      -2.823   6.203  23.706  0.00  0.00    -0.170 OA
ATOM     25  C   UNL     1      -2.874   6.073  26.325  0.00  0.00    +0.200 C 
ENDBRANCH  22   1
ENDBRANCH   3  16
ENDBRANCH  10   3
BRANCH   6  13
ATOM     13  C   UNL     1      -0.663  -1.091  25.539  0.00  0.00    +0.159 C 
BRANCH  13  15
ATOM      7  N   UNL     1       0.333   0.676  24.050  0.00  0.00    -0.336 N 
ATOM      8  N   UNL     1      -0.498   1.378  25.986  0.00  0.00    -0.239 NA
ATOM     15  C   UNL     1      -0.287   0.331  25.219  0.00  0.00    +0.124 A 
ATOM     17  C   UNL     1       0.531   2.027  24.074  0.00  0.00    +0.106 A 
ATOM     20  C   UNL     1       0.716  -0.211  22.978  0.00  0.00    +0.150 C 
ATOM     21  C   UNL     1       0.010   2.438  25.277  0.00  0.00    +0.130 A 
ENDBRANCH  13  15
ENDBRANCH   6  13
TORSDOF 5
ENDMDL
MODEL 10
REMARK VINA RESULT:       0.4      2.377      5.134
REMARK  Name = 75536923
REMARK  7 active torsions:
REMARK  status: ('A' for Active; 'I' for Inactive)
REMARK    1  A    between atoms: S_1  and  C_22
REMARK    2  A    between atoms: S_1  and  C_25
REMARK    3  A    between atoms: O_3  and  C_10
REMARK    4  A    between atoms: O_3  and  C_16
REMARK    5  A    between atoms: N_6  and  C_13
REMARK    6  A    between atoms: N_7  and  C_20
REMARK    7  A    between atoms: C_13  and  C_15
REMARK                            x       y       z     vdW  Elec       q    Type
REMARK                         _______ _______ _______ _____ _____    ______ ____
ROOT
ATOM      2  O   UNL     1      -1.971  -3.374  24.987  0.00  0.00    -0.375 OA
ATOM      6  N   UNL     1      -3.882  -0.958  24.494  0.00  0.00    -0.289 NA
ATOM      9  C   UNL     1      -2.604  -0.303  24.194  0.00  0.00    +0.131 C 
ATOM     10  C   UNL     1      -1.328  -1.159  24.253  0.00  0.00    +0.213 C 
ATOM     11  C   UNL     1      -3.984  -2.333  24.001  0.00  0.00    +0.113 C 
ATOM     12  C   UNL     1      -1.306  -2.179  25.384  0.00  0.00    +0.205 C 
ATOM     14  C   UNL     1      -3.389  -3.300  25.027  0.00  0.00    +0.175 C 
ENDROOT
BRANCH  10   3
ATOM      3  O   UNL     1      -0.213  -0.282  24.429  0.00  0.00    -0.485 OA
BRANCH   3  16
ATOM     16  C   UNL     1      -0.498   1.047  24.576  0.00  0.00    +0.121 A 
ATOM     18  C   UNL     1      -0.360   1.914  23.492  0.00  0.00    +0.047 A 
ATOM     19  C   UNL     1      -0.926   1.536  25.810  0.00  0.00    +0.047 A 
ATOM     22  C   UNL     1      -1.078   3.759  24.877  0.00  0.00    +0.088 A 
ATOM     23  C   UNL     1      -0.650   3.270  23.642  0.00  0.00    +0.030 A 
ATOM     24  C   UNL     1      -1.216   2.892  25.961  0.00  0.00    +0.030 A 
BRANCH  22   1
ATOM      1  S   UNL     1      -1.445   5.456  25.062  0.00  0.00    -0.006 S 
ATOM      4  O   UNL     1      -2.308   5.629  26.223  0.00  0.00    -0.170 OA
ATOM      5  O   UNL     1      -0.195   6.197  24.974  0.00  0.00    -0.170 OA
ATOM     25  C   UNL     1      -2.420   5.857  23.628  0.00  0.00    +0.200 C 
ENDBRANCH  22   1
ENDBRANCH   3  16
ENDBRANCH  10   3
BRANCH   6  13
ATOM     13  C   UNL     1      -4.993  -0.134  24.017  0.00  0.00    +0.159 C 
BRANCH  13  15
ATOM      7  N   UNL     1      -4.580   2.334  24.272  0.00  0.00    -0.336 N 
ATOM      8  N   UNL     1      -5.647   1.340  25.946  0.00  0.00    -0.239 NA
ATOM     15  C   UNL     1      -5.088   1.167  24.769  0.00  0.00    +0.124 A 
ATOM     17  C   UNL     1      -4.831   3.314  25.190  0.00  0.00    +0.106 A 
ATOM     20  C   UNL     1      -3.901   2.518  23.012  0.00  0.00    +0.150 C 
ATOM     21  C   UNL     1      -5.490   2.677  26.214  0.00  0.00    +0.130 A 
ENDBRANCH  13  15
ENDBRANCH   6  13
TORSDOF 5
ENDMDL
