MODEL 1
REMARK VINA RESULT:      -3.9      0.000      0.000
REMARK  Name = 51137732
REMARK  3 active torsions:
REMARK  status: ('A' for Active; 'I' for Inactive)
REMARK    1  A    between atoms: C_6  and  C_10
REMARK    2  A    between atoms: C_9  and  C_14
REMARK    3  A    between atoms: C_15  and  C_16
REMARK                            x       y       z     vdW  Elec       q    Type
REMARK                         _______ _______ _______ _____ _____    ______ ____
ROOT
ATOM      2  O   UNL     1      -8.045 -10.431  14.840  0.00  0.00    -0.420 OA
ATOM      4  N   UNL     1      -5.833 -10.107  14.770  0.00  0.00    -0.112 NA
ATOM      5  N   UNL     1      -6.253  -9.908  16.072  0.00  0.00    -0.107 NA
ATOM     14  C   UNL     1      -6.911 -10.410  14.086  0.00  0.00    +0.222 A 
ATOM     15  C   UNL     1      -7.549 -10.108  16.066  0.00  0.00    +0.248 A 
ENDROOT
BRANCH  14   9
ATOM      1  O   UNL     1      -4.480  -7.686  10.201  0.00  0.00    -0.275 OA
ATOM      3  N   UNL     1      -5.658  -9.391  11.234  0.00  0.00    -0.300 N 
ATOM      9  C   UNL     1      -7.063 -10.731  12.609  0.00  0.00    +0.095 C 
ATOM     10  C   UNL     1      -4.545  -8.837  10.624  0.00  0.00    +0.219 C 
ATOM     11  C   UNL     1      -5.775 -10.743  11.775  0.00  0.00    +0.120 C 
ATOM     12  C   UNL     1      -6.885  -8.635  11.434  0.00  0.00    +0.108 C 
ATOM     13  C   UNL     1      -7.907  -9.671  11.885  0.00  0.00    +0.033 C 
BRANCH  10   6
ATOM      6  C   UNL     1      -3.342  -9.715  10.507  0.00  0.00    +0.075 C 
ATOM      7  C   UNL     1      -1.980  -9.113  10.691  0.00  0.00    +0.013 C 
ATOM      8  C   UNL     1      -2.543 -10.029  11.738  0.00  0.00    +0.013 C 
ENDBRANCH  10   6
ENDBRANCH  14   9
BRANCH  15  16
ATOM     16  C   UNL     1      -8.507 -10.040  17.131  0.00  0.00    +0.038 A 
ATOM     17  C   UNL     1      -9.673  -9.290  16.973  0.00  0.00    +0.013 A 
ATOM     18  C   UNL     1      -8.273 -10.722  18.325  0.00  0.00    +0.013 A 
ATOM     19  C   UNL     1     -10.606  -9.224  18.008  0.00  0.00    +0.001 A 
ATOM     20  C   UNL     1      -9.205 -10.656  19.360  0.00  0.00    +0.001 A 
ATOM     21  C   UNL     1     -10.371  -9.906  19.202  0.00  0.00    +0.000 A 
ENDBRANCH  15  16
TORSDOF 3
ENDMDL
MODEL 2
REMARK VINA RESULT:      -3.5     26.023     28.113
REMARK  Name = 51137732
REMARK  3 active torsions:
REMARK  status: ('A' for Active; 'I' for Inactive)
REMARK    1  A    between atoms: C_6  and  C_10
REMARK    2  A    between atoms: C_9  and  C_14
REMARK    3  A    between atoms: C_15  and  C_16
REMARK                            x       y       z     vdW  Elec       q    Type
REMARK                         _______ _______ _______ _____ _____    ______ ____
ROOT
ATOM      2  O   UNL     1      16.425  -6.222  29.599  0.00  0.00    -0.420 OA
ATOM      4  N   UNL     1      17.366  -4.193  29.590  0.00  0.00    -0.112 NA
ATOM      5  N   UNL     1      17.405  -4.687  28.301  0.00  0.00    -0.107 NA
ATOM     14  C   UNL     1      16.785  -5.121  30.315  0.00  0.00    +0.222 A 
ATOM     15  C   UNL     1      16.846  -5.873  28.353  0.00  0.00    +0.248 A 
ENDROOT
BRANCH  14   9
ATOM      1  O   UNL     1      11.869  -4.569  32.303  0.00  0.00    -0.275 OA
ATOM      3  N   UNL     1      14.133  -5.048  32.240  0.00  0.00    -0.300 N 
ATOM      9  C   UNL     1      16.470  -5.134  31.800  0.00  0.00    +0.095 C 
ATOM     10  C   UNL     1      12.791  -5.379  32.326  0.00  0.00    +0.219 C 
ATOM     11  C   UNL     1      15.263  -5.975  32.238  0.00  0.00    +0.120 C 
ATOM     12  C   UNL     1      14.582  -3.670  32.110  0.00  0.00    +0.108 C 
ATOM     13  C   UNL     1      16.090  -3.735  32.309  0.00  0.00    +0.033 C 
BRANCH  10   6
ATOM      6  C   UNL     1      12.469  -6.835  32.428  0.00  0.00    +0.075 C 
ATOM      7  C   UNL     1      11.043  -7.276  32.279  0.00  0.00    +0.013 C 
ATOM      8  C   UNL     1      12.038  -7.576  31.197  0.00  0.00    +0.013 C 
ENDBRANCH  10   6
ENDBRANCH  14   9
BRANCH  15  16
ATOM     16  C   UNL     1      16.613  -6.839  27.319  0.00  0.00    +0.038 A 
ATOM     17  C   UNL     1      15.860  -7.982  27.590  0.00  0.00    +0.013 A 
ATOM     18  C   UNL     1      17.140  -6.637  26.043  0.00  0.00    +0.013 A 
ATOM     19  C   UNL     1      15.634  -8.922  26.585  0.00  0.00    +0.001 A 
ATOM     20  C   UNL     1      16.913  -7.578  25.039  0.00  0.00    +0.001 A 
ATOM     21  C   UNL     1      16.161  -8.721  25.309  0.00  0.00    +0.000 A 
ENDBRANCH  15  16
TORSDOF 3
ENDMDL
MODEL 3
REMARK VINA RESULT:      -3.5     15.276     16.950
REMARK  Name = 51137732
REMARK  3 active torsions:
REMARK  status: ('A' for Active; 'I' for Inactive)
REMARK    1  A    between atoms: C_6  and  C_10
REMARK    2  A    between atoms: C_9  and  C_14
REMARK    3  A    between atoms: C_15  and  C_16
REMARK                            x       y       z     vdW  Elec       q    Type
REMARK                         _______ _______ _______ _____ _____    ______ ____
ROOT
ATOM      2  O   UNL     1      -1.565   0.927  25.076  0.00  0.00    -0.420 OA
ATOM      4  N   UNL     1       0.613   1.033  24.576  0.00  0.00    -0.112 NA
ATOM      5  N   UNL     1       0.145  -0.208  24.188  0.00  0.00    -0.107 NA
ATOM     14  C   UNL     1      -0.420   1.662  25.089  0.00  0.00    +0.222 A 
ATOM     15  C   UNL     1      -1.129  -0.226  24.498  0.00  0.00    +0.248 A 
ENDROOT
BRANCH  14   9
ATOM      1  O   UNL     1      -4.210   5.186  23.807  0.00  0.00    -0.275 OA
ATOM      3  N   UNL     1      -2.457   4.228  24.977  0.00  0.00    -0.300 N 
ATOM      9  C   UNL     1      -0.507   3.059  25.679  0.00  0.00    +0.095 C 
ATOM     10  C   UNL     1      -3.774   4.616  24.803  0.00  0.00    +0.219 C 
ATOM     11  C   UNL     1      -1.897   3.528  26.130  0.00  0.00    +0.120 C 
ATOM     12  C   UNL     1      -1.441   4.467  23.962  0.00  0.00    +0.108 C 
ATOM     13  C   UNL     1      -0.123   4.132  24.648  0.00  0.00    +0.033 C 
BRANCH  10   6
ATOM      6  C   UNL     1      -4.719   4.283  25.913  0.00  0.00    +0.075 C 
ATOM      7  C   UNL     1      -6.191   4.240  25.627  0.00  0.00    +0.013 C 
ATOM      8  C   UNL     1      -5.439   2.968  25.890  0.00  0.00    +0.013 C 
ENDBRANCH  10   6
ENDBRANCH  14   9
BRANCH  15  16
ATOM     16  C   UNL     1      -2.115  -1.253  24.326  0.00  0.00    +0.038 A 
ATOM     17  C   UNL     1      -3.436  -0.909  24.037  0.00  0.00    +0.013 A 
ATOM     18  C   UNL     1      -1.755  -2.594  24.449  0.00  0.00    +0.013 A 
ATOM     19  C   UNL     1      -4.396  -1.907  23.869  0.00  0.00    +0.001 A 
ATOM     20  C   UNL     1      -2.715  -3.592  24.281  0.00  0.00    +0.001 A 
ATOM     21  C   UNL     1      -4.036  -3.249  23.991  0.00  0.00    +0.000 A 
ENDBRANCH  15  16
TORSDOF 3
ENDMDL
MODEL 4
REMARK VINA RESULT:      -3.3     25.102     27.086
REMARK  Name = 51137732
REMARK  3 active torsions:
REMARK  status: ('A' for Active; 'I' for Inactive)
REMARK    1  A    between atoms: C_6  and  C_10
REMARK    2  A    between atoms: C_9  and  C_14
REMARK    3  A    between atoms: C_15  and  C_16
REMARK                            x       y       z     vdW  Elec       q    Type
REMARK                         _______ _______ _______ _____ _____    ______ ____
ROOT
ATOM      2  O   UNL     1      14.690  -7.072  30.355  0.00  0.00    -0.420 OA
ATOM      4  N   UNL     1      15.625  -5.074  30.728  0.00  0.00    -0.112 NA
ATOM      5  N   UNL     1      16.005  -5.495  29.468  0.00  0.00    -0.107 NA
ATOM     14  C   UNL     1      14.859  -6.026  31.209  0.00  0.00    +0.222 A 
ATOM     15  C   UNL     1      15.437  -6.664  29.292  0.00  0.00    +0.248 A 
ENDROOT
BRANCH  14   9
ATOM      1  O   UNL     1       9.947  -7.998  31.849  0.00  0.00    -0.275 OA
ATOM      3  N   UNL     1      12.058  -7.232  32.411  0.00  0.00    -0.300 N 
ATOM      9  C   UNL     1      14.154  -6.115  32.552  0.00  0.00    +0.095 C 
ATOM     10  C   UNL     1      11.088  -8.207  32.251  0.00  0.00    +0.219 C 
ATOM     11  C   UNL     1      13.433  -7.434  32.862  0.00  0.00    +0.120 C 
ATOM     12  C   UNL     1      11.803  -5.832  32.108  0.00  0.00    +0.108 C 
ATOM     13  C   UNL     1      13.014  -5.091  32.661  0.00  0.00    +0.033 C 
BRANCH  10   6
ATOM      6  C   UNL     1      11.492  -9.610  32.572  0.00  0.00    +0.075 C 
ATOM      7  C   UNL     1      10.585 -10.737  32.179  0.00  0.00    +0.013 C 
ATOM      8  C   UNL     1      11.883 -10.532  31.456  0.00  0.00    +0.013 C 
ENDBRANCH  10   6
ENDBRANCH  14   9
BRANCH  15  16
ATOM     16  C   UNL     1      15.479  -7.562  28.174  0.00  0.00    +0.038 A 
ATOM     17  C   UNL     1      15.501  -7.056  26.874  0.00  0.00    +0.013 A 
ATOM     18  C   UNL     1      15.497  -8.940  28.387  0.00  0.00    +0.013 A 
ATOM     19  C   UNL     1      15.542  -7.928  25.787  0.00  0.00    +0.001 A 
ATOM     20  C   UNL     1      15.538  -9.813  27.299  0.00  0.00    +0.001 A 
ATOM     21  C   UNL     1      15.560  -9.307  25.999  0.00  0.00    +0.000 A 
ENDBRANCH  15  16
TORSDOF 3
ENDMDL
MODEL 5
REMARK VINA RESULT:      -3.3     15.162     16.519
REMARK  Name = 51137732
REMARK  3 active torsions:
REMARK  status: ('A' for Active; 'I' for Inactive)
REMARK    1  A    between atoms: C_6  and  C_10
REMARK    2  A    between atoms: C_9  and  C_14
REMARK    3  A    between atoms: C_15  and  C_16
REMARK                            x       y       z     vdW  Elec       q    Type
REMARK                         _______ _______ _______ _____ _____    ______ ____
ROOT
ATOM      2  O   UNL     1      -3.647   1.356  24.747  0.00  0.00    -0.420 OA
ATOM      4  N   UNL     1      -5.618   2.382  25.008  0.00  0.00    -0.112 NA
ATOM      5  N   UNL     1      -5.846   1.019  24.983  0.00  0.00    -0.107 NA
ATOM     14  C   UNL     1      -4.321   2.533  24.867  0.00  0.00    +0.222 A 
ATOM     15  C   UNL     1      -4.669   0.460  24.828  0.00  0.00    +0.248 A 
ENDROOT
BRANCH  14   9
ATOM      1  O   UNL     1       0.729   2.843  26.548  0.00  0.00    -0.275 OA
ATOM      3  N   UNL     1      -1.238   3.454  25.491  0.00  0.00    -0.300 N 
ATOM      9  C   UNL     1      -3.494   3.806  24.822  0.00  0.00    +0.095 C 
ATOM     10  C   UNL     1       0.081   3.035  25.523  0.00  0.00    +0.219 C 
ATOM     11  C   UNL     1      -2.057   3.672  24.300  0.00  0.00    +0.120 C 
ATOM     12  C   UNL     1      -1.995   3.713  26.706  0.00  0.00    +0.108 C 
ATOM     13  C   UNL     1      -3.275   4.387  26.227  0.00  0.00    +0.033 C 
BRANCH  10   6
ATOM      6  C   UNL     1       0.732   2.778  24.202  0.00  0.00    +0.075 C 
ATOM      7  C   UNL     1       1.409   1.461  23.968  0.00  0.00    +0.013 C 
ATOM      8  C   UNL     1       0.120   1.776  23.268  0.00  0.00    +0.013 C 
ENDBRANCH  10   6
ENDBRANCH  14   9
BRANCH  15  16
ATOM     16  C   UNL     1      -4.299  -0.922  24.735  0.00  0.00    +0.038 A 
ATOM     17  C   UNL     1      -3.560  -1.517  25.758  0.00  0.00    +0.013 A 
ATOM     18  C   UNL     1      -4.677  -1.672  23.621  0.00  0.00    +0.013 A 
ATOM     19  C   UNL     1      -3.200  -2.862  25.668  0.00  0.00    +0.001 A 
ATOM     20  C   UNL     1      -4.317  -3.017  23.531  0.00  0.00    +0.001 A 
ATOM     21  C   UNL     1      -3.578  -3.611  24.554  0.00  0.00    +0.000 A 
ENDBRANCH  15  16
TORSDOF 3
ENDMDL
MODEL 6
REMARK VINA RESULT:      -3.3     15.532     16.281
REMARK  Name = 51137732
REMARK  3 active torsions:
REMARK  status: ('A' for Active; 'I' for Inactive)
REMARK    1  A    between atoms: C_6  and  C_10
REMARK    2  A    between atoms: C_9  and  C_14
REMARK    3  A    between atoms: C_15  and  C_16
REMARK                            x       y       z     vdW  Elec       q    Type
REMARK                         _______ _______ _______ _____ _____    ______ ____
ROOT
ATOM      2  O   UNL     1      -1.816   0.732  24.367  0.00  0.00    -0.420 OA
ATOM      4  N   UNL     1      -0.019   2.058  24.237  0.00  0.00    -0.112 NA
ATOM      5  N   UNL     1      -1.106   2.844  24.567  0.00  0.00    -0.107 NA
ATOM     14  C   UNL     1      -0.480   0.833  24.130  0.00  0.00    +0.222 A 
ATOM     15  C   UNL     1      -2.133   2.029  24.632  0.00  0.00    +0.248 A 
ENDROOT
BRANCH  14   9
ATOM      1  O   UNL     1       4.089   0.679  21.386  0.00  0.00    -0.275 OA
ATOM      3  N   UNL     1       2.345  -0.052  22.721  0.00  0.00    -0.300 N 
ATOM      9  C   UNL     1       0.256  -0.452  23.787  0.00  0.00    +0.095 C 
ATOM     10  C   UNL     1       3.654   0.329  22.479  0.00  0.00    +0.219 C 
ATOM     11  C   UNL     1       1.775  -0.452  24.005  0.00  0.00    +0.120 C 
ATOM     12  C   UNL     1       1.340  -0.072  21.669  0.00  0.00    +0.108 C 
ATOM     13  C   UNL     1       0.145  -0.783  22.291  0.00  0.00    +0.033 C 
BRANCH  10   6
ATOM      6  C   UNL     1       4.576   0.331  23.656  0.00  0.00    +0.075 C 
ATOM      7  C   UNL     1       5.200  -0.960  24.094  0.00  0.00    +0.013 C 
ATOM      8  C   UNL     1       6.041   0.095  23.437  0.00  0.00    +0.013 C 
ENDBRANCH  10   6
ENDBRANCH  14   9
BRANCH  15  16
ATOM     16  C   UNL     1      -3.510   2.289  24.934  0.00  0.00    +0.038 A 
ATOM     17  C   UNL     1      -3.907   3.563  25.341  0.00  0.00    +0.013 A 
ATOM     18  C   UNL     1      -4.454   1.268  24.823  0.00  0.00    +0.013 A 
ATOM     19  C   UNL     1      -5.246   3.817  25.635  0.00  0.00    +0.001 A 
ATOM     20  C   UNL     1      -5.794   1.521  25.117  0.00  0.00    +0.001 A 
ATOM     21  C   UNL     1      -6.190   2.796  25.523  0.00  0.00    +0.000 A 
ENDBRANCH  15  16
TORSDOF 3
ENDMDL
MODEL 7
REMARK VINA RESULT:      -2.7     25.544     26.424
REMARK  Name = 51137732
REMARK  3 active torsions:
REMARK  status: ('A' for Active; 'I' for Inactive)
REMARK    1  A    between atoms: C_6  and  C_10
REMARK    2  A    between atoms: C_9  and  C_14
REMARK    3  A    between atoms: C_15  and  C_16
REMARK                            x       y       z     vdW  Elec       q    Type
REMARK                         _______ _______ _______ _____ _____    ______ ____
ROOT
ATOM      2  O   UNL     1      15.456  -6.582  29.261  0.00  0.00    -0.420 OA
ATOM      4  N   UNL     1      15.068  -8.571  28.315  0.00  0.00    -0.112 NA
ATOM      5  N   UNL     1      14.018  -8.292  29.168  0.00  0.00    -0.107 NA
ATOM     14  C   UNL     1      15.884  -7.546  28.401  0.00  0.00    +0.222 A 
ATOM     15  C   UNL     1      14.286  -7.123  29.699  0.00  0.00    +0.248 A 
ENDROOT
BRANCH  14   9
ATOM      1  O   UNL     1      16.289  -5.097  23.682  0.00  0.00    -0.275 OA
ATOM      3  N   UNL     1      16.944  -6.008  25.707  0.00  0.00    -0.300 N 
ATOM      9  C   UNL     1      17.203  -7.296  27.691  0.00  0.00    +0.095 C 
ATOM     10  C   UNL     1      16.697  -4.964  24.832  0.00  0.00    +0.219 C 
ATOM     11  C   UNL     1      17.405  -5.899  27.089  0.00  0.00    +0.120 C 
ATOM     12  C   UNL     1      16.736  -7.398  25.329  0.00  0.00    +0.108 C 
ATOM     13  C   UNL     1      17.362  -8.203  26.460  0.00  0.00    +0.033 C 
BRANCH  10   6
ATOM      6  C   UNL     1      16.925  -3.584  25.359  0.00  0.00    +0.075 C 
ATOM      7  C   UNL     1      17.269  -2.485  24.397  0.00  0.00    +0.013 C 
ATOM      8  C   UNL     1      15.922  -2.510  25.058  0.00  0.00    +0.013 C 
ENDBRANCH  10   6
ENDBRANCH  14   9
BRANCH  15  16
ATOM     16  C   UNL     1      13.551  -6.340  30.650  0.00  0.00    +0.038 A 
ATOM     17  C   UNL     1      12.187  -6.567  30.833  0.00  0.00    +0.013 A 
ATOM     18  C   UNL     1      14.199  -5.353  31.391  0.00  0.00    +0.013 A 
ATOM     19  C   UNL     1      11.471  -5.807  31.758  0.00  0.00    +0.001 A 
ATOM     20  C   UNL     1      13.484  -4.592  32.316  0.00  0.00    +0.001 A 
ATOM     21  C   UNL     1      12.119  -4.819  32.499  0.00  0.00    +0.000 A 
ENDBRANCH  15  16
TORSDOF 3
ENDMDL
MODEL 8
REMARK VINA RESULT:      -2.6     15.679     17.478
REMARK  Name = 51137732
REMARK  3 active torsions:
REMARK  status: ('A' for Active; 'I' for Inactive)
REMARK    1  A    between atoms: C_6  and  C_10
REMARK    2  A    between atoms: C_9  and  C_14
REMARK    3  A    between atoms: C_15  and  C_16
REMARK                            x       y       z     vdW  Elec       q    Type
REMARK                         _______ _______ _______ _____ _____    ______ ____
ROOT
ATOM      2  O   UNL     1       1.078  -0.457  23.968  0.00  0.00    -0.420 OA
ATOM      4  N   UNL     1      -0.064  -0.382  22.046  0.00  0.00    -0.112 NA
ATOM      5  N   UNL     1       1.282  -0.297  21.746  0.00  0.00    -0.107 NA
ATOM     14  C   UNL     1      -0.137  -0.474  23.354  0.00  0.00    +0.222 A 
ATOM     15  C   UNL     1       1.911  -0.344  22.897  0.00  0.00    +0.248 A 
ENDROOT
BRANCH  14   9
ATOM      1  O   UNL     1      -2.130   3.573  26.195  0.00  0.00    -0.275 OA
ATOM      3  N   UNL     1      -2.015   1.495  25.181  0.00  0.00    -0.300 N 
ATOM      9  C   UNL     1      -1.358  -0.593  24.250  0.00  0.00    +0.095 C 
ATOM     10  C   UNL     1      -2.491   2.787  25.324  0.00  0.00    +0.219 C 
ATOM     11  C   UNL     1      -2.395   0.533  24.149  0.00  0.00    +0.120 C 
ATOM     12  C   UNL     1      -1.014   0.938  26.078  0.00  0.00    +0.108 C 
ATOM     13  C   UNL     1      -0.973  -0.546  25.737  0.00  0.00    +0.033 C 
BRANCH  10   6
ATOM      6  C   UNL     1      -3.498   3.242  24.317  0.00  0.00    +0.075 C 
ATOM      7  C   UNL     1      -4.838   2.570  24.272  0.00  0.00    +0.013 C 
ATOM      8  C   UNL     1      -4.720   3.976  24.783  0.00  0.00    +0.013 C 
ENDBRANCH  10   6
ENDBRANCH  14   9
BRANCH  15  16
ATOM     16  C   UNL     1       3.313  -0.297  23.195  0.00  0.00    +0.038 A 
ATOM     17  C   UNL     1       3.948  -1.416  23.735  0.00  0.00    +0.013 A 
ATOM     18  C   UNL     1       4.040   0.866  22.946  0.00  0.00    +0.013 A 
ATOM     19  C   UNL     1       5.312  -1.371  24.025  0.00  0.00    +0.001 A 
ATOM     20  C   UNL     1       5.404   0.911  23.237  0.00  0.00    +0.001 A 
ATOM     21  C   UNL     1       6.040  -0.207  23.777  0.00  0.00    +0.000 A 
ENDBRANCH  15  16
TORSDOF 3
ENDMDL
MODEL 9
REMARK VINA RESULT:      -2.6     15.850     17.380
REMARK  Name = 51137732
REMARK  3 active torsions:
REMARK  status: ('A' for Active; 'I' for Inactive)
REMARK    1  A    between atoms: C_6  and  C_10
REMARK    2  A    between atoms: C_9  and  C_14
REMARK    3  A    between atoms: C_15  and  C_16
REMARK                            x       y       z     vdW  Elec       q    Type
REMARK                         _______ _______ _______ _____ _____    ______ ____
ROOT
ATOM      2  O   UNL     1      -0.056   0.350  23.185  0.00  0.00    -0.420 OA
ATOM      4  N   UNL     1      -1.122  -1.228  24.358  0.00  0.00    -0.112 NA
ATOM      5  N   UNL     1       0.235  -1.471  24.450  0.00  0.00    -0.107 NA
ATOM     14  C   UNL     1      -1.246  -0.155  23.611  0.00  0.00    +0.222 A 
ATOM     15  C   UNL     1       0.818  -0.527  23.750  0.00  0.00    +0.248 A 
ENDROOT
BRANCH  14   9
ATOM      1  O   UNL     1      -3.457   3.848  26.352  0.00  0.00    -0.275 OA
ATOM      3  N   UNL     1      -3.032   2.416  24.584  0.00  0.00    -0.300 N 
ATOM      9  C   UNL     1      -2.501   0.578  23.169  0.00  0.00    +0.095 C 
ATOM     10  C   UNL     1      -2.992   3.636  25.236  0.00  0.00    +0.219 C 
ATOM     11  C   UNL     1      -2.472   2.109  23.269  0.00  0.00    +0.120 C 
ATOM     12  C   UNL     1      -3.648   1.240  25.181  0.00  0.00    +0.108 C 
ATOM     13  C   UNL     1      -3.705   0.219  24.053  0.00  0.00    +0.033 C 
BRANCH  10   6
ATOM      6  C   UNL     1      -2.304   4.753  24.519  0.00  0.00    +0.075 C 
ATOM      7  C   UNL     1      -1.866   5.958  25.298  0.00  0.00    +0.013 C 
ATOM      8  C   UNL     1      -0.845   4.994  24.770  0.00  0.00    +0.013 C 
ENDBRANCH  10   6
ENDBRANCH  14   9
BRANCH  15  16
ATOM     16  C   UNL     1       2.208  -0.280  23.495  0.00  0.00    +0.038 A 
ATOM     17  C   UNL     1       3.156  -1.257  23.798  0.00  0.00    +0.013 A 
ATOM     18  C   UNL     1       2.611   0.937  22.945  0.00  0.00    +0.013 A 
ATOM     19  C   UNL     1       4.508  -1.017  23.550  0.00  0.00    +0.001 A 
ATOM     20  C   UNL     1       3.962   1.176  22.697  0.00  0.00    +0.001 A 
ATOM     21  C   UNL     1       4.911   0.200  23.000  0.00  0.00    +0.000 A 
ENDBRANCH  15  16
TORSDOF 3
ENDMDL
MODEL 10
REMARK VINA RESULT:      -2.0     16.192     18.037
REMARK  Name = 51137732
REMARK  3 active torsions:
REMARK  status: ('A' for Active; 'I' for Inactive)
REMARK    1  A    between atoms: C_6  and  C_10
REMARK    2  A    between atoms: C_9  and  C_14
REMARK    3  A    between atoms: C_15  and  C_16
REMARK                            x       y       z     vdW  Elec       q    Type
REMARK                         _______ _______ _______ _____ _____    ______ ____
ROOT
ATOM      2  O   UNL     1       1.275   1.662  24.642  0.00  0.00    -0.420 OA
ATOM      4  N   UNL     1      -0.662   1.126  23.661  0.00  0.00    -0.112 NA
ATOM      5  N   UNL     1       0.341   0.396  23.053  0.00  0.00    -0.107 NA
ATOM     14  C   UNL     1      -0.071   1.852  24.582  0.00  0.00    +0.222 A 
ATOM     15  C   UNL     1       1.454   0.741  23.656  0.00  0.00    +0.248 A 
ENDROOT
BRANCH  14   9
ATOM      1  O   UNL     1      -4.848   4.132  23.941  0.00  0.00    -0.275 OA
ATOM      3  N   UNL     1      -2.894   3.468  24.990  0.00  0.00    -0.300 N 
ATOM      9  C   UNL     1      -0.670   2.845  25.562  0.00  0.00    +0.095 C 
ATOM     10  C   UNL     1      -4.258   3.433  24.760  0.00  0.00    +0.219 C 
ATOM     11  C   UNL     1      -2.145   2.640  25.933  0.00  0.00    +0.120 C 
ATOM     12  C   UNL     1      -2.011   4.365  24.260  0.00  0.00    +0.108 C 
ATOM     13  C   UNL     1      -0.676   4.271  24.988  0.00  0.00    +0.033 C 
BRANCH  10   6
ATOM      6  C   UNL     1      -5.044   2.444  25.559  0.00  0.00    +0.075 C 
ATOM      7  C   UNL     1      -6.299   1.868  24.974  0.00  0.00    +0.013 C 
ATOM      8  C   UNL     1      -5.077   1.010  25.121  0.00  0.00    +0.013 C 
ENDBRANCH  10   6
ENDBRANCH  14   9
BRANCH  15  16
ATOM     16  C   UNL     1       2.803   0.304  23.443  0.00  0.00    +0.038 A 
ATOM     17  C   UNL     1       3.178  -0.995  23.787  0.00  0.00    +0.013 A 
ATOM     18  C   UNL     1       3.741   1.178  22.894  0.00  0.00    +0.013 A 
ATOM     19  C   UNL     1       4.490  -1.421  23.580  0.00  0.00    +0.001 A 
ATOM     20  C   UNL     1       5.053   0.753  22.687  0.00  0.00    +0.001 A 
ATOM     21  C   UNL     1       5.428  -0.546  23.031  0.00  0.00    +0.000 A 
ENDBRANCH  15  16
TORSDOF 3
ENDMDL
