MODEL 1
REMARK VINA RESULT:       4.1      0.000      0.000
REMARK  Name = 7155441
REMARK  4 active torsions:
REMARK  status: ('A' for Active; 'I' for Inactive)
REMARK    1  A    between atoms: S_1  and  N_5
REMARK    2  A    between atoms: S_1  and  C_19
REMARK    3  A    between atoms: C_15  and  C_20
REMARK    4  A    between atoms: C_21  and  C_31
REMARK                            x       y       z     vdW  Elec       q    Type
REMARK                         _______ _______ _______ _____ _____    ______ ____
ROOT
ATOM      4  O   UNL     1      -2.171   5.369  26.128  0.00  0.00    -0.268 OA
ATOM      5  N   UNL     1      -3.992   1.221  24.126  0.00  0.00    -0.176 NA
ATOM      6  N   UNL     1      -2.121   3.734  24.452  0.00  0.00    -0.311 N 
ATOM      8  C   UNL     1      -4.107   3.370  22.871  0.00  0.00    +0.025 C 
ATOM      9  C   UNL     1      -2.110   1.956  22.673  0.00  0.00    +0.053 C 
ATOM     10  C   UNL     1      -3.053   2.872  21.897  0.00  0.00    +0.017 C 
ATOM     11  C   UNL     1      -4.903   2.196  23.463  0.00  0.00    +0.114 C 
ATOM     12  C   UNL     1      -2.901   0.752  23.222  0.00  0.00    +0.119 C 
ATOM     13  C   UNL     1      -3.419   4.207  23.951  0.00  0.00    +0.130 C 
ATOM     14  C   UNL     1      -1.405   2.704  23.808  0.00  0.00    +0.034 A 
ATOM     15  C   UNL     1      -0.146   2.400  24.218  0.00  0.00    +0.002 A 
ATOM     16  C   UNL     1      -1.596   4.453  25.540  0.00  0.00    +0.252 A 
ATOM     17  C   UNL     1       0.428   3.117  25.339  0.00  0.00    +0.015 A 
ATOM     18  C   UNL     1      -0.235   4.075  25.986  0.00  0.00    +0.071 A 
ENDROOT
BRANCH  15  20
ATOM     20  C   UNL     1       0.653   1.343  23.560  0.00  0.00    -0.016 A 
ATOM     23  C   UNL     1       0.035   0.164  23.149  0.00  0.00    +0.008 A 
ATOM     24  C   UNL     1       2.017   1.533  23.355  0.00  0.00    +0.008 A 
ATOM     27  C   UNL     1       0.788  -0.833  22.529  0.00  0.00    +0.001 A 
ATOM     28  C   UNL     1       2.769   0.535  22.734  0.00  0.00    +0.001 A 
ATOM     30  C   UNL     1       2.155  -0.647  22.322  0.00  0.00    +0.000 A 
ENDBRANCH  15  20
BRANCH   5   1
ATOM      1  S   UNL     1      -4.756   0.006  25.055  0.00  0.00    +0.062 S 
ATOM      2  O   UNL     1      -6.099  -0.201  24.555  0.00  0.00    -0.153 OA
ATOM      3  O   UNL     1      -4.517   0.266  26.460  0.00  0.00    -0.153 OA
BRANCH   1  19
ATOM     19  C   UNL     1      -3.788  -1.396  24.591  0.00  0.00    +0.123 A 
ATOM     21  C   UNL     1      -2.474  -1.541  25.019  0.00  0.00    +0.078 A 
ATOM     22  C   UNL     1      -4.384  -2.352  23.780  0.00  0.00    +0.030 A 
ATOM     25  C   UNL     1      -1.744  -2.663  24.628  0.00  0.00    +0.021 A 
ATOM     26  C   UNL     1      -3.654  -3.475  23.389  0.00  0.00    +0.002 A 
ATOM     29  C   UNL     1      -2.333  -3.629  23.813  0.00  0.00    +0.001 A 
BRANCH  21  31
ATOM      7  N   UNL     1      -1.322   0.221  26.529  0.00  0.00    -0.191 NA
ATOM     31  C   UNL     1      -1.838  -0.568  25.853  0.00  0.00    +0.101 C 
ENDBRANCH  21  31
ENDBRANCH   1  19
ENDBRANCH   5   1
TORSDOF 4
ENDMDL
MODEL 2
REMARK VINA RESULT:       4.3      1.057      1.978
REMARK  Name = 7155441
REMARK  4 active torsions:
REMARK  status: ('A' for Active; 'I' for Inactive)
REMARK    1  A    between atoms: S_1  and  N_5
REMARK    2  A    between atoms: S_1  and  C_19
REMARK    3  A    between atoms: C_15  and  C_20
REMARK    4  A    between atoms: C_21  and  C_31
REMARK                            x       y       z     vdW  Elec       q    Type
REMARK                         _______ _______ _______ _____ _____    ______ ____
ROOT
ATOM      4  O   UNL     1      -2.407   5.210  26.389  0.00  0.00    -0.268 OA
ATOM      5  N   UNL     1      -3.833   1.058  24.096  0.00  0.00    -0.176 NA
ATOM      6  N   UNL     1      -2.190   3.694  24.617  0.00  0.00    -0.311 N 
ATOM      8  C   UNL     1      -4.111   3.265  22.973  0.00  0.00    +0.025 C 
ATOM      9  C   UNL     1      -1.997   2.040  22.733  0.00  0.00    +0.053 C 
ATOM     10  C   UNL     1      -3.002   2.920  21.994  0.00  0.00    +0.017 C 
ATOM     11  C   UNL     1      -4.813   1.993  23.474  0.00  0.00    +0.114 C 
ATOM     12  C   UNL     1      -2.691   0.742  23.189  0.00  0.00    +0.119 C 
ATOM     13  C   UNL     1      -3.515   4.087  24.117  0.00  0.00    +0.130 C 
ATOM     14  C   UNL     1      -1.378   2.772  23.927  0.00  0.00    +0.034 A 
ATOM     15  C   UNL     1      -0.104   2.550  24.344  0.00  0.00    +0.002 A 
ATOM     16  C   UNL     1      -1.746   4.385  25.758  0.00  0.00    +0.252 A 
ATOM     17  C   UNL     1       0.388   3.240  25.521  0.00  0.00    +0.015 A 
ATOM     18  C   UNL     1      -0.366   4.096  26.210  0.00  0.00    +0.071 A 
ENDROOT
BRANCH  15  20
ATOM     20  C   UNL     1       0.793   1.607  23.641  0.00  0.00    -0.016 A 
ATOM     23  C   UNL     1       2.118   1.959  23.403  0.00  0.00    +0.008 A 
ATOM     24  C   UNL     1       0.305   0.372  23.220  0.00  0.00    +0.008 A 
ATOM     27  C   UNL     1       2.964   1.071  22.740  0.00  0.00    +0.001 A 
ATOM     28  C   UNL     1       1.151  -0.517  22.557  0.00  0.00    +0.001 A 
ATOM     30  C   UNL     1       2.480  -0.167  22.317  0.00  0.00    +0.000 A 
ENDBRANCH  15  20
BRANCH   5   1
ATOM      1  S   UNL     1      -4.506  -0.273  24.932  0.00  0.00    +0.062 S 
ATOM      2  O   UNL     1      -5.398  -0.990  24.044  0.00  0.00    -0.153 OA
ATOM      3  O   UNL     1      -4.951   0.167  26.238  0.00  0.00    -0.153 OA
BRANCH   1  19
ATOM     19  C   UNL     1      -3.061  -1.262  25.156  0.00  0.00    +0.123 A 
ATOM     21  C   UNL     1      -2.954  -2.525  24.590  0.00  0.00    +0.078 A 
ATOM     22  C   UNL     1      -2.029  -0.733  25.921  0.00  0.00    +0.030 A 
ATOM     25  C   UNL     1      -1.795  -3.274  24.793  0.00  0.00    +0.021 A 
ATOM     26  C   UNL     1      -0.870  -1.482  26.124  0.00  0.00    +0.002 A 
ATOM     29  C   UNL     1      -0.753  -2.753  25.560  0.00  0.00    +0.001 A 
BRANCH  21  31
ATOM      7  N   UNL     1      -4.855  -3.552  23.160  0.00  0.00    -0.191 NA
ATOM     31  C   UNL     1      -4.004  -3.092  23.800  0.00  0.00    +0.101 C 
ENDBRANCH  21  31
ENDBRANCH   1  19
ENDBRANCH   5   1
TORSDOF 4
ENDMDL
MODEL 3
REMARK VINA RESULT:       4.8      2.039      4.716
REMARK  Name = 7155441
REMARK  4 active torsions:
REMARK  status: ('A' for Active; 'I' for Inactive)
REMARK    1  A    between atoms: S_1  and  N_5
REMARK    2  A    between atoms: S_1  and  C_19
REMARK    3  A    between atoms: C_15  and  C_20
REMARK    4  A    between atoms: C_21  and  C_31
REMARK                            x       y       z     vdW  Elec       q    Type
REMARK                         _______ _______ _______ _____ _____    ______ ____
ROOT
ATOM      4  O   UNL     1      -2.417  -1.411  26.944  0.00  0.00    -0.268 OA
ATOM      5  N   UNL     1      -1.779   2.925  24.637  0.00  0.00    -0.176 NA
ATOM      6  N   UNL     1      -0.998   0.198  26.005  0.00  0.00    -0.311 N 
ATOM      8  C   UNL     1      -0.872   2.585  26.932  0.00  0.00    +0.025 C 
ATOM      9  C   UNL     1       0.486   1.955  24.987  0.00  0.00    +0.053 C 
ATOM     10  C   UNL     1       0.545   2.568  26.383  0.00  0.00    +0.017 C 
ATOM     11  C   UNL     1      -1.794   3.430  26.039  0.00  0.00    +0.114 C 
ATOM     12  C   UNL     1      -0.399   2.832  24.079  0.00  0.00    +0.119 C 
ATOM     13  C   UNL     1      -1.360   1.142  27.070  0.00  0.00    +0.130 C 
ATOM     14  C   UNL     1      -0.036   0.516  25.024  0.00  0.00    +0.034 A 
ATOM     15  C   UNL     1       0.375  -0.438  24.148  0.00  0.00    +0.002 A 
ATOM     16  C   UNL     1      -1.585  -1.076  26.100  0.00  0.00    +0.252 A 
ATOM     17  C   UNL     1      -0.212  -1.762  24.213  0.00  0.00    +0.015 A 
ATOM     18  C   UNL     1      -1.143  -2.084  25.110  0.00  0.00    +0.071 A 
ENDROOT
BRANCH  15  20
ATOM     20  C   UNL     1       1.397  -0.157  23.115  0.00  0.00    -0.016 A 
ATOM     23  C   UNL     1       2.557   0.531  23.458  0.00  0.00    +0.008 A 
ATOM     24  C   UNL     1       1.190  -0.584  21.806  0.00  0.00    +0.008 A 
ATOM     27  C   UNL     1       3.519   0.795  22.484  0.00  0.00    +0.001 A 
ATOM     28  C   UNL     1       2.154  -0.320  20.832  0.00  0.00    +0.001 A 
ATOM     30  C   UNL     1       3.318   0.369  21.172  0.00  0.00    +0.000 A 
ENDBRANCH  15  20
BRANCH   5   1
ATOM      1  S   UNL     1      -2.956   3.598  23.595  0.00  0.00    +0.062 S 
ATOM      2  O   UNL     1      -2.933   2.890  22.332  0.00  0.00    -0.153 OA
ATOM      3  O   UNL     1      -2.856   5.042  23.640  0.00  0.00    -0.153 OA
BRANCH   1  19
ATOM     19  C   UNL     1      -4.430   3.129  24.447  0.00  0.00    +0.123 A 
ATOM     21  C   UNL     1      -4.823   1.801  24.536  0.00  0.00    +0.078 A 
ATOM     22  C   UNL     1      -5.187   4.138  25.029  0.00  0.00    +0.030 A 
ATOM     25  C   UNL     1      -5.995   1.474  25.217  0.00  0.00    +0.021 A 
ATOM     26  C   UNL     1      -6.360   3.812  25.711  0.00  0.00    +0.002 A 
ATOM     29  C   UNL     1      -6.763   2.479  25.804  0.00  0.00    +0.001 A 
BRANCH  21  31
ATOM      7  N   UNL     1      -3.443  -0.111  23.462  0.00  0.00    -0.191 NA
ATOM     31  C   UNL     1      -4.060   0.744  23.943  0.00  0.00    +0.101 C 
ENDBRANCH  21  31
ENDBRANCH   1  19
ENDBRANCH   5   1
TORSDOF 4
ENDMDL
MODEL 4
REMARK VINA RESULT:       6.2      2.594      5.133
REMARK  Name = 7155441
REMARK  4 active torsions:
REMARK  status: ('A' for Active; 'I' for Inactive)
REMARK    1  A    between atoms: S_1  and  N_5
REMARK    2  A    between atoms: S_1  and  C_19
REMARK    3  A    between atoms: C_15  and  C_20
REMARK    4  A    between atoms: C_21  and  C_31
REMARK                            x       y       z     vdW  Elec       q    Type
REMARK                         _______ _______ _______ _____ _____    ______ ____
ROOT
ATOM      4  O   UNL     1      -0.230   5.737  23.575  0.00  0.00    -0.268 OA
ATOM      5  N   UNL     1      -0.450   0.976  24.922  0.00  0.00    -0.176 NA
ATOM      6  N   UNL     1      -1.078   4.062  24.976  0.00  0.00    -0.311 N 
ATOM      8  C   UNL     1       0.456   2.680  26.497  0.00  0.00    +0.025 C 
ATOM      9  C   UNL     1      -1.957   2.229  26.456  0.00  0.00    +0.053 C 
ATOM     10  C   UNL     1      -0.778   2.544  27.373  0.00  0.00    +0.017 C 
ATOM     11  C   UNL     1       0.733   1.374  25.737  0.00  0.00    +0.114 C 
ATOM     12  C   UNL     1      -1.700   0.892  25.732  0.00  0.00    +0.119 C 
ATOM     13  C   UNL     1       0.259   3.869  25.556  0.00  0.00    +0.130 C 
ATOM     14  C   UNL     1      -2.202   3.353  25.445  0.00  0.00    +0.034 A 
ATOM     15  C   UNL     1      -3.440   3.668  24.983  0.00  0.00    +0.002 A 
ATOM     16  C   UNL     1      -1.176   5.078  24.009  0.00  0.00    +0.252 A 
ATOM     17  C   UNL     1      -3.580   4.708  23.982  0.00  0.00    +0.015 A 
ATOM     18  C   UNL     1      -2.533   5.375  23.498  0.00  0.00    +0.071 A 
ENDROOT
BRANCH  15  20
ATOM     20  C   UNL     1      -4.652   2.967  25.461  0.00  0.00    -0.016 A 
ATOM     23  C   UNL     1      -5.083   3.147  26.772  0.00  0.00    +0.008 A 
ATOM     24  C   UNL     1      -5.352   2.130  24.596  0.00  0.00    +0.008 A 
ATOM     27  C   UNL     1      -6.225   2.486  27.223  0.00  0.00    +0.001 A 
ATOM     28  C   UNL     1      -6.495   1.469  25.047  0.00  0.00    +0.001 A 
ATOM     30  C   UNL     1      -6.931   1.647  26.360  0.00  0.00    +0.000 A 
ENDBRANCH  15  20
BRANCH   5   1
ATOM      1  S   UNL     1      -0.194  -0.307  23.821  0.00  0.00    +0.062 S 
ATOM      2  O   UNL     1       0.771  -1.229  24.382  0.00  0.00    -0.153 OA
ATOM      3  O   UNL     1      -0.014   0.241  22.492  0.00  0.00    -0.153 OA
BRANCH   1  19
ATOM     19  C   UNL     1      -1.778  -1.085  23.877  0.00  0.00    +0.123 A 
ATOM     21  C   UNL     1      -2.903  -0.475  23.340  0.00  0.00    +0.078 A 
ATOM     22  C   UNL     1      -1.862  -2.334  24.479  0.00  0.00    +0.030 A 
ATOM     25  C   UNL     1      -4.136  -1.123  23.407  0.00  0.00    +0.021 A 
ATOM     26  C   UNL     1      -3.095  -2.983  24.546  0.00  0.00    +0.002 A 
ATOM     29  C   UNL     1      -4.232  -2.377  24.010  0.00  0.00    +0.001 A 
BRANCH  21  31
ATOM      7  N   UNL     1      -2.792   1.855  22.212  0.00  0.00    -0.191 NA
ATOM     31  C   UNL     1      -2.841   0.812  22.717  0.00  0.00    +0.101 C 
ENDBRANCH  21  31
ENDBRANCH   1  19
ENDBRANCH   5   1
TORSDOF 4
ENDMDL
MODEL 5
REMARK VINA RESULT:       7.1      2.133      4.755
REMARK  Name = 7155441
REMARK  4 active torsions:
REMARK  status: ('A' for Active; 'I' for Inactive)
REMARK    1  A    between atoms: S_1  and  N_5
REMARK    2  A    between atoms: S_1  and  C_19
REMARK    3  A    between atoms: C_15  and  C_20
REMARK    4  A    between atoms: C_21  and  C_31
REMARK                            x       y       z     vdW  Elec       q    Type
REMARK                         _______ _______ _______ _____ _____    ______ ____
ROOT
ATOM      4  O   UNL     1       0.363   2.203  27.661  0.00  0.00    -0.268 OA
ATOM      5  N   UNL     1      -2.240   2.851  23.497  0.00  0.00    -0.176 NA
ATOM      6  N   UNL     1      -0.370   1.410  25.582  0.00  0.00    -0.311 N 
ATOM      8  C   UNL     1       0.237   2.609  23.398  0.00  0.00    +0.025 C 
ATOM      9  C   UNL     1      -1.179   0.605  23.341  0.00  0.00    +0.053 C 
ATOM     10  C   UNL     1       0.091   1.232  22.772  0.00  0.00    +0.017 C 
ATOM     11  C   UNL     1      -0.970   3.496  23.058  0.00  0.00    +0.114 C 
ATOM     12  C   UNL     1      -2.395   1.469  22.955  0.00  0.00    +0.119 C 
ATOM     13  C   UNL     1       0.429   2.443  24.906  0.00  0.00    +0.130 C 
ATOM     14  C   UNL     1      -1.093   0.439  24.861  0.00  0.00    +0.034 A 
ATOM     15  C   UNL     1      -1.696  -0.583  25.523  0.00  0.00    +0.002 A 
ATOM     16  C   UNL     1      -0.267   1.389  26.984  0.00  0.00    +0.252 A 
ATOM     17  C   UNL     1      -1.616  -0.636  26.970  0.00  0.00    +0.015 A 
ATOM     18  C   UNL     1      -0.964   0.284  27.681  0.00  0.00    +0.071 A 
ENDROOT
BRANCH  15  20
ATOM     20  C   UNL     1      -2.449  -1.637  24.809  0.00  0.00    -0.016 A 
ATOM     23  C   UNL     1      -1.788  -2.778  24.364  0.00  0.00    +0.008 A 
ATOM     24  C   UNL     1      -3.815  -1.481  24.587  0.00  0.00    +0.008 A 
ATOM     27  C   UNL     1      -2.498  -3.772  23.690  0.00  0.00    +0.001 A 
ATOM     28  C   UNL     1      -4.525  -2.476  23.914  0.00  0.00    +0.001 A 
ATOM     30  C   UNL     1      -3.866  -3.621  23.466  0.00  0.00    +0.000 A 
ENDBRANCH  15  20
BRANCH   5   1
ATOM      1  S   UNL     1      -3.636   3.836  23.425  0.00  0.00    +0.062 S 
ATOM      2  O   UNL     1      -4.229   3.723  22.110  0.00  0.00    -0.153 OA
ATOM      3  O   UNL     1      -3.328   5.132  23.994  0.00  0.00    -0.153 OA
BRANCH   1  19
ATOM     19  C   UNL     1      -4.680   2.979  24.562  0.00  0.00    +0.123 A 
ATOM     21  C   UNL     1      -4.466   3.046  25.933  0.00  0.00    +0.078 A 
ATOM     22  C   UNL     1      -5.726   2.230  24.039  0.00  0.00    +0.030 A 
ATOM     25  C   UNL     1      -5.314   2.352  26.796  0.00  0.00    +0.021 A 
ATOM     26  C   UNL     1      -6.574   1.536  24.902  0.00  0.00    +0.002 A 
ATOM     29  C   UNL     1      -6.367   1.598  26.281  0.00  0.00    +0.001 A 
BRANCH  21  31
ATOM      7  N   UNL     1      -2.524   4.427  26.950  0.00  0.00    -0.191 NA
ATOM     31  C   UNL     1      -3.393   3.809  26.495  0.00  0.00    +0.101 C 
ENDBRANCH  21  31
ENDBRANCH   1  19
ENDBRANCH   5   1
TORSDOF 4
ENDMDL
MODEL 6
REMARK VINA RESULT:       7.7      2.373      5.150
REMARK  Name = 7155441
REMARK  4 active torsions:
REMARK  status: ('A' for Active; 'I' for Inactive)
REMARK    1  A    between atoms: S_1  and  N_5
REMARK    2  A    between atoms: S_1  and  C_19
REMARK    3  A    between atoms: C_15  and  C_20
REMARK    4  A    between atoms: C_21  and  C_31
REMARK                            x       y       z     vdW  Elec       q    Type
REMARK                         _______ _______ _______ _____ _____    ______ ____
ROOT
ATOM      4  O   UNL     1       1.398  -0.279  21.832  0.00  0.00    -0.268 OA
ATOM      5  N   UNL     1      -2.755  -1.116  24.398  0.00  0.00    -0.176 NA
ATOM      6  N   UNL     1       0.274  -0.421  23.882  0.00  0.00    -0.311 N 
ATOM      8  C   UNL     1      -0.785  -2.615  24.683  0.00  0.00    +0.025 C 
ATOM      9  C   UNL     1      -0.976  -0.590  26.058  0.00  0.00    +0.053 C 
ATOM     10  C   UNL     1      -0.544  -2.054  26.074  0.00  0.00    +0.017 C 
ATOM     11  C   UNL     1      -2.272  -2.523  24.307  0.00  0.00    +0.114 C 
ATOM     12  C   UNL     1      -2.480  -0.504  25.731  0.00  0.00    +0.119 C 
ATOM     13  C   UNL     1       0.111  -1.870  23.692  0.00  0.00    +0.130 C 
ATOM     14  C   UNL     1      -0.156   0.229  25.057  0.00  0.00    +0.034 A 
ATOM     15  C   UNL     1       0.147   1.539  25.253  0.00  0.00    +0.002 A 
ATOM     16  C   UNL     1       0.988   0.243  22.870  0.00  0.00    +0.252 A 
ATOM     17  C   UNL     1       0.877   2.259  24.228  0.00  0.00    +0.015 A 
ATOM     18  C   UNL     1       1.272   1.679  23.095  0.00  0.00    +0.071 A 
ENDROOT
BRANCH  15  20
ATOM     20  C   UNL     1      -0.264   2.258  26.478  0.00  0.00    -0.016 A 
ATOM     23  C   UNL     1      -1.436   3.009  26.479  0.00  0.00    +0.008 A 
ATOM     24  C   UNL     1       0.524   2.178  27.623  0.00  0.00    +0.008 A 
ATOM     27  C   UNL     1      -1.824   3.687  27.634  0.00  0.00    +0.001 A 
ATOM     28  C   UNL     1       0.135   2.857  28.779  0.00  0.00    +0.001 A 
ATOM     30  C   UNL     1      -1.038   3.610  28.784  0.00  0.00    +0.000 A 
ENDBRANCH  15  20
BRANCH   5   1
ATOM      1  S   UNL     1      -4.311  -0.822  23.755  0.00  0.00    +0.062 S 
ATOM      2  O   UNL     1      -5.252  -1.751  24.345  0.00  0.00    -0.153 OA
ATOM      3  O   UNL     1      -4.209  -0.680  22.318  0.00  0.00    -0.153 OA
BRANCH   1  19
ATOM     19  C   UNL     1      -4.633   0.775  24.436  0.00  0.00    +0.123 A 
ATOM     21  C   UNL     1      -3.951   1.901  23.993  0.00  0.00    +0.078 A 
ATOM     22  C   UNL     1      -5.593   0.869  25.435  0.00  0.00    +0.030 A 
ATOM     25  C   UNL     1      -4.235   3.143  24.559  0.00  0.00    +0.021 A 
ATOM     26  C   UNL     1      -5.876   2.112  26.002  0.00  0.00    +0.002 A 
ATOM     29  C   UNL     1      -5.197   3.249  25.563  0.00  0.00    +0.001 A 
BRANCH  21  31
ATOM      7  N   UNL     1      -2.151   1.769  22.134  0.00  0.00    -0.191 NA
ATOM     31  C   UNL     1      -2.957   1.828  22.966  0.00  0.00    +0.101 C 
ENDBRANCH  21  31
ENDBRANCH   1  19
ENDBRANCH   5   1
TORSDOF 4
ENDMDL
