MODEL 1
REMARK VINA RESULT:       1.2      0.000      0.000
REMARK  Name = 51137813
REMARK  4 active torsions:
REMARK  status: ('A' for Active; 'I' for Inactive)
REMARK    1  A    between atoms: C_7  and  C_11
REMARK    2  A    between atoms: C_12  and  C_13
REMARK    3  A    between atoms: C_14  and  C_15
REMARK    4  A    between atoms: C_20  and  C_25
REMARK                            x       y       z     vdW  Elec       q    Type
REMARK                         _______ _______ _______ _____ _____    ______ ____
ROOT
ATOM      2  O   UNL     1      -4.315   4.528  23.444  0.00  0.00    -0.268 OA
ATOM      3  N   UNL     1      -2.572   3.743  24.762  0.00  0.00    -0.296 N 
ATOM      7  C   UNL     1      -0.481   2.904  25.530  0.00  0.00    +0.095 C 
ATOM      8  C   UNL     1      -0.301   4.337  25.006  0.00  0.00    +0.033 C 
ATOM      9  C   UNL     1      -1.998   2.837  25.758  0.00  0.00    +0.121 C 
ATOM     10  C   UNL     1      -1.543   4.576  24.157  0.00  0.00    +0.109 C 
ATOM     12  C   UNL     1      -3.890   3.800  24.339  0.00  0.00    +0.265 C 
ENDROOT
BRANCH  12  13
ATOM      6  N   UNL     1      -5.512   3.435  26.058  0.00  0.00    -0.250 NA
ATOM     13  C   UNL     1      -4.855   2.908  24.999  0.00  0.00    +0.126 A 
ATOM     16  C   UNL     1      -5.046   1.617  24.533  0.00  0.00    +0.033 A 
ATOM     19  C   UNL     1      -5.971   0.817  25.195  0.00  0.00    +0.004 A 
ATOM     23  C   UNL     1      -6.402   2.627  26.675  0.00  0.00    +0.111 A 
ATOM     24  C   UNL     1      -6.666   1.324  26.287  0.00  0.00    +0.020 A 
ENDBRANCH  12  13
BRANCH   7  11
ATOM      1  O   UNL     1       1.456   1.702  24.615  0.00  0.00    -0.420 OA
ATOM      4  N   UNL     1      -0.495   1.119  23.689  0.00  0.00    -0.112 NA
ATOM      5  N   UNL     1       0.502   0.374  23.089  0.00  0.00    -0.107 NA
ATOM     11  C   UNL     1       0.107   1.880  24.574  0.00  0.00    +0.222 A 
ATOM     14  C   UNL     1       1.624   0.747  23.661  0.00  0.00    +0.248 A 
BRANCH  14  15
ATOM     15  C   UNL     1       2.972   0.311  23.439  0.00  0.00    +0.038 A 
ATOM     17  C   UNL     1       3.912   1.197  22.913  0.00  0.00    +0.013 A 
ATOM     18  C   UNL     1       3.343  -0.997  23.750  0.00  0.00    +0.013 A 
ATOM     20  C   UNL     1       5.595  -0.535  23.009  0.00  0.00    -0.050 A 
ATOM     21  C   UNL     1       5.224   0.774  22.698  0.00  0.00    +0.004 A 
ATOM     22  C   UNL     1       4.654  -1.420  23.535  0.00  0.00    +0.004 A 
ATOM     25  C   UNL     1       6.997  -0.986  22.778  0.00  0.00    +0.044 C 
ENDBRANCH  14  15
ENDBRANCH   7  11
TORSDOF 3
ENDMDL
MODEL 2
REMARK VINA RESULT:       1.4     15.833     17.544
REMARK  Name = 51137813
REMARK  4 active torsions:
REMARK  status: ('A' for Active; 'I' for Inactive)
REMARK    1  A    between atoms: C_7  and  C_11
REMARK    2  A    between atoms: C_12  and  C_13
REMARK    3  A    between atoms: C_14  and  C_15
REMARK    4  A    between atoms: C_20  and  C_25
REMARK                            x       y       z     vdW  Elec       q    Type
REMARK                         _______ _______ _______ _____ _____    ______ ____
ROOT
ATOM      2  O   UNL     1      -6.832  -7.826  17.659  0.00  0.00    -0.268 OA
ATOM      3  N   UNL     1      -5.894  -9.536  16.398  0.00  0.00    -0.296 N 
ATOM      7  C   UNL     1      -4.699 -10.781  14.759  0.00  0.00    +0.095 C 
ATOM      8  C   UNL     1      -3.708 -10.016  15.650  0.00  0.00    +0.033 C 
ATOM      9  C   UNL     1      -5.972 -10.773  15.618  0.00  0.00    +0.121 C 
ATOM     10  C   UNL     1      -4.565  -8.949  16.319  0.00  0.00    +0.109 C 
ATOM     12  C   UNL     1      -6.925  -8.905  17.076  0.00  0.00    +0.265 C 
ENDROOT
BRANCH  12  13
ATOM      6  N   UNL     1      -8.898  -9.583  15.908  0.00  0.00    -0.250 NA
ATOM     13  C   UNL     1      -8.237  -9.568  17.088  0.00  0.00    +0.126 A 
ATOM     16  C   UNL     1      -8.727 -10.127  18.258  0.00  0.00    +0.033 A 
ATOM     19  C   UNL     1      -9.973 -10.742  18.213  0.00  0.00    +0.004 A 
ATOM     23  C   UNL     1     -10.106 -10.189  15.904  0.00  0.00    +0.111 A 
ATOM     24  C   UNL     1     -10.683 -10.778  17.017  0.00  0.00    +0.020 A 
ENDBRANCH  12  13
BRANCH   7  11
ATOM      1  O   UNL     1      -6.064  -9.912  12.912  0.00  0.00    -0.420 OA
ATOM      4  N   UNL     1      -3.861  -9.805  12.542  0.00  0.00    -0.112 NA
ATOM      5  N   UNL     1      -4.506  -9.288  11.434  0.00  0.00    -0.107 NA
ATOM     11  C   UNL     1      -4.809 -10.156  13.379  0.00  0.00    +0.222 A 
ATOM     14  C   UNL     1      -5.790  -9.370  11.694  0.00  0.00    +0.248 A 
BRANCH  14  15
ATOM     15  C   UNL     1      -6.926  -8.985  10.908  0.00  0.00    +0.038 A 
ATOM     17  C   UNL     1      -8.195  -9.462  11.237  0.00  0.00    +0.013 A 
ATOM     18  C   UNL     1      -6.763  -8.132   9.816  0.00  0.00    +0.013 A 
ATOM     20  C   UNL     1      -9.137  -8.234   9.381  0.00  0.00    -0.050 A 
ATOM     21  C   UNL     1      -9.300  -9.086  10.473  0.00  0.00    +0.004 A 
ATOM     22  C   UNL     1      -7.868  -7.757   9.053  0.00  0.00    +0.004 A 
ATOM     25  C   UNL     1     -10.319  -7.834   8.564  0.00  0.00    +0.044 C 
ENDBRANCH  14  15
ENDBRANCH   7  11
TORSDOF 3
ENDMDL
MODEL 3
REMARK VINA RESULT:       1.5     15.559     17.063
REMARK  Name = 51137813
REMARK  4 active torsions:
REMARK  status: ('A' for Active; 'I' for Inactive)
REMARK    1  A    between atoms: C_7  and  C_11
REMARK    2  A    between atoms: C_12  and  C_13
REMARK    3  A    between atoms: C_14  and  C_15
REMARK    4  A    between atoms: C_20  and  C_25
REMARK                            x       y       z     vdW  Elec       q    Type
REMARK                         _______ _______ _______ _____ _____    ______ ____
ROOT
ATOM      2  O   UNL     1      -3.996  -7.832  17.177  0.00  0.00    -0.268 OA
ATOM      3  N   UNL     1      -3.155  -9.540  15.847  0.00  0.00    -0.296 N 
ATOM      7  C   UNL     1      -2.068 -10.781  14.130  0.00  0.00    +0.095 C 
ATOM      8  C   UNL     1      -1.019 -10.043  14.978  0.00  0.00    +0.033 C 
ATOM      9  C   UNL     1      -3.293 -10.764  15.056  0.00  0.00    +0.121 C 
ATOM     10  C   UNL     1      -1.822  -8.973  15.704  0.00  0.00    +0.109 C 
ATOM     12  C   UNL     1      -4.137  -8.901  16.586  0.00  0.00    +0.265 C 
ENDROOT
BRANCH  12  13
ATOM      6  N   UNL     1      -6.204  -9.481  15.533  0.00  0.00    -0.250 NA
ATOM     13  C   UNL     1      -5.458  -9.544  16.659  0.00  0.00    +0.126 A 
ATOM     16  C   UNL     1      -5.871 -10.162  17.829  0.00  0.00    +0.033 A 
ATOM     19  C   UNL     1      -7.129 -10.754  17.843  0.00  0.00    +0.004 A 
ATOM     23  C   UNL     1      -7.421 -10.067  15.585  0.00  0.00    +0.111 A 
ATOM     24  C   UNL     1      -7.925 -10.711  16.704  0.00  0.00    +0.020 A 
ENDBRANCH  12  13
BRANCH   7  11
ATOM      1  O   UNL     1      -3.517  -9.916  12.346  0.00  0.00    -0.420 OA
ATOM      4  N   UNL     1      -1.331  -9.746  11.904  0.00  0.00    -0.112 NA
ATOM      5  N   UNL     1      -2.026  -9.228  10.828  0.00  0.00    -0.107 NA
ATOM     11  C   UNL     1      -2.241 -10.136  12.766  0.00  0.00    +0.222 A 
ATOM     14  C   UNL     1      -3.298  -9.347  11.129  0.00  0.00    +0.248 A 
BRANCH  14  15
ATOM     15  C   UNL     1      -4.469  -8.977  10.389  0.00  0.00    +0.038 A 
ATOM     17  C   UNL     1      -4.385  -8.760   9.014  0.00  0.00    +0.013 A 
ATOM     18  C   UNL     1      -5.693  -8.837  11.044  0.00  0.00    +0.013 A 
ATOM     20  C   UNL     1      -6.748  -8.260   8.948  0.00  0.00    -0.050 A 
ATOM     21  C   UNL     1      -5.524  -8.402   8.294  0.00  0.00    +0.004 A 
ATOM     22  C   UNL     1      -6.832  -8.478  10.323  0.00  0.00    +0.004 A 
ATOM     25  C   UNL     1      -7.965  -7.876   8.178  0.00  0.00    +0.044 C 
ENDBRANCH  14  15
ENDBRANCH   7  11
TORSDOF 3
ENDMDL
MODEL 4
REMARK VINA RESULT:       2.1      2.180      8.762
REMARK  Name = 51137813
REMARK  4 active torsions:
REMARK  status: ('A' for Active; 'I' for Inactive)
REMARK    1  A    between atoms: C_7  and  C_11
REMARK    2  A    between atoms: C_12  and  C_13
REMARK    3  A    between atoms: C_14  and  C_15
REMARK    4  A    between atoms: C_20  and  C_25
REMARK                            x       y       z     vdW  Elec       q    Type
REMARK                         _______ _______ _______ _____ _____    ______ ____
ROOT
ATOM      2  O   UNL     1       2.082  -0.010  21.098  0.00  0.00    -0.268 OA
ATOM      3  N   UNL     1       1.041  -0.588  23.092  0.00  0.00    -0.296 N 
ATOM      7  C   UNL     1      -0.412  -0.672  24.975  0.00  0.00    +0.095 C 
ATOM      8  C   UNL     1      -1.189  -1.053  23.705  0.00  0.00    +0.033 C 
ATOM      9  C   UNL     1       1.043  -0.871  24.529  0.00  0.00    +0.121 C 
ATOM     10  C   UNL     1      -0.317  -0.532  22.572  0.00  0.00    +0.109 C 
ATOM     12  C   UNL     1       2.137  -0.316  22.288  0.00  0.00    +0.265 C 
ENDROOT
BRANCH  12  13
ATOM      6  N   UNL     1       3.803  -1.573  23.455  0.00  0.00    -0.250 NA
ATOM     13  C   UNL     1       3.468  -0.382  22.909  0.00  0.00    +0.126 A 
ATOM     16  C   UNL     1       4.294   0.731  22.911  0.00  0.00    +0.033 A 
ATOM     19  C   UNL     1       5.543   0.614  23.511  0.00  0.00    +0.004 A 
ATOM     23  C   UNL     1       5.025  -1.648  24.029  0.00  0.00    +0.111 A 
ATOM     24  C   UNL     1       5.923  -0.595  24.083  0.00  0.00    +0.020 A 
ENDBRANCH  12  13
BRANCH   7  11
ATOM      1  O   UNL     1      -2.052   1.143  25.200  0.00  0.00    -0.420 OA
ATOM      4  N   UNL     1      -0.066   1.594  26.125  0.00  0.00    -0.112 NA
ATOM      5  N   UNL     1      -0.887   2.688  26.321  0.00  0.00    -0.107 NA
ATOM     11  C   UNL     1      -0.787   0.716  25.466  0.00  0.00    +0.222 A 
ATOM     14  C   UNL     1      -2.036   2.380  25.765  0.00  0.00    +0.248 A 
BRANCH  14  15
ATOM     15  C   UNL     1      -3.253   3.132  25.665  0.00  0.00    +0.038 A 
ATOM     17  C   UNL     1      -3.234   4.516  25.841  0.00  0.00    +0.013 A 
ATOM     18  C   UNL     1      -4.455   2.481  25.388  0.00  0.00    +0.013 A 
ATOM     20  C   UNL     1      -5.620   4.596  25.467  0.00  0.00    -0.050 A 
ATOM     21  C   UNL     1      -4.417   5.248  25.743  0.00  0.00    +0.004 A 
ATOM     22  C   UNL     1      -5.638   3.213  25.289  0.00  0.00    +0.004 A 
ATOM     25  C   UNL     1      -6.884   5.380  25.362  0.00  0.00    +0.044 C 
ENDBRANCH  14  15
ENDBRANCH   7  11
TORSDOF 3
ENDMDL
MODEL 5
REMARK VINA RESULT:       2.1      2.565      3.631
REMARK  Name = 51137813
REMARK  4 active torsions:
REMARK  status: ('A' for Active; 'I' for Inactive)
REMARK    1  A    between atoms: C_7  and  C_11
REMARK    2  A    between atoms: C_12  and  C_13
REMARK    3  A    between atoms: C_14  and  C_15
REMARK    4  A    between atoms: C_20  and  C_25
REMARK                            x       y       z     vdW  Elec       q    Type
REMARK                         _______ _______ _______ _____ _____    ______ ____
ROOT
ATOM      2  O   UNL     1      -0.338   2.266  27.492  0.00  0.00    -0.268 OA
ATOM      3  N   UNL     1      -1.192   1.149  25.643  0.00  0.00    -0.296 N 
ATOM      7  C   UNL     1      -1.474  -0.283  23.763  0.00  0.00    +0.095 C 
ATOM      8  C   UNL     1      -1.387  -1.126  25.045  0.00  0.00    +0.033 C 
ATOM      9  C   UNL     1      -1.814   1.107  24.319  0.00  0.00    +0.121 C 
ATOM     10  C   UNL     1      -0.769  -0.179  26.065  0.00  0.00    +0.109 C 
ATOM     12  C   UNL     1      -0.931   2.270  26.414  0.00  0.00    +0.265 C 
ENDROOT
BRANCH  12  13
ATOM      6  N   UNL     1      -2.642   3.930  26.235  0.00  0.00    -0.250 NA
ATOM     13  C   UNL     1      -1.383   3.570  25.898  0.00  0.00    +0.126 A 
ATOM     16  C   UNL     1      -0.539   4.344  25.117  0.00  0.00    +0.033 A 
ATOM     19  C   UNL     1      -1.017   5.565  24.655  0.00  0.00    +0.004 A 
ATOM     23  C   UNL     1      -3.072   5.124  25.767  0.00  0.00    +0.111 A 
ATOM     24  C   UNL     1      -2.307   5.970  24.982  0.00  0.00    +0.020 A 
ENDBRANCH  12  13
BRANCH   7  11
ATOM      1  O   UNL     1       0.976  -0.257  23.598  0.00  0.00    -0.420 OA
ATOM      4  N   UNL     1      -0.062  -0.597  21.646  0.00  0.00    -0.112 NA
ATOM      5  N   UNL     1       1.300  -0.606  21.413  0.00  0.00    -0.107 NA
ATOM     11  C   UNL     1      -0.205  -0.391  22.935  0.00  0.00    +0.222 A 
ATOM     14  C   UNL     1       1.867  -0.404  22.580  0.00  0.00    +0.248 A 
BRANCH  14  15
ATOM     15  C   UNL     1       3.252  -0.317  22.939  0.00  0.00    +0.038 A 
ATOM     17  C   UNL     1       3.972   0.845  22.662  0.00  0.00    +0.013 A 
ATOM     18  C   UNL     1       3.879  -1.392  23.568  0.00  0.00    +0.013 A 
ATOM     20  C   UNL     1       5.947  -0.145  23.641  0.00  0.00    -0.050 A 
ATOM     21  C   UNL     1       5.319   0.931  23.013  0.00  0.00    +0.004 A 
ATOM     22  C   UNL     1       5.226  -1.307  23.919  0.00  0.00    +0.004 A 
ATOM     25  C   UNL     1       7.387  -0.053  24.015  0.00  0.00    +0.044 C 
ENDBRANCH  14  15
ENDBRANCH   7  11
TORSDOF 3
ENDMDL
MODEL 6
REMARK VINA RESULT:       2.2      2.063      3.654
REMARK  Name = 51137813
REMARK  4 active torsions:
REMARK  status: ('A' for Active; 'I' for Inactive)
REMARK    1  A    between atoms: C_7  and  C_11
REMARK    2  A    between atoms: C_12  and  C_13
REMARK    3  A    between atoms: C_14  and  C_15
REMARK    4  A    between atoms: C_20  and  C_25
REMARK                            x       y       z     vdW  Elec       q    Type
REMARK                         _______ _______ _______ _____ _____    ______ ____
ROOT
ATOM      2  O   UNL     1      -4.588   2.656  26.533  0.00  0.00    -0.268 OA
ATOM      3  N   UNL     1      -3.817   1.543  24.645  0.00  0.00    -0.296 N 
ATOM      7  C   UNL     1      -2.835  -0.037  23.161  0.00  0.00    +0.095 C 
ATOM      8  C   UNL     1      -4.094  -0.642  23.800  0.00  0.00    +0.033 C 
ATOM      9  C   UNL     1      -3.046   1.465  23.403  0.00  0.00    +0.121 C 
ATOM     10  C   UNL     1      -4.349   0.240  25.014  0.00  0.00    +0.109 C 
ATOM     12  C   UNL     1      -3.991   2.653  25.457  0.00  0.00    +0.265 C 
ENDROOT
BRANCH  12  13
ATOM      6  N   UNL     1      -4.105   4.594  24.066  0.00  0.00    -0.250 NA
ATOM     13  C   UNL     1      -3.403   3.923  25.007  0.00  0.00    +0.126 A 
ATOM     16  C   UNL     1      -2.204   4.366  25.542  0.00  0.00    +0.033 A 
ATOM     19  C   UNL     1      -1.692   5.574  25.081  0.00  0.00    +0.004 A 
ATOM     23  C   UNL     1      -3.576   5.764  23.642  0.00  0.00    +0.111 A 
ATOM     24  C   UNL     1      -2.386   6.293  24.114  0.00  0.00    +0.020 A 
ENDBRANCH  12  13
BRANCH   7  11
ATOM      1  O   UNL     1      -0.384  -0.163  23.264  0.00  0.00    -0.420 OA
ATOM      4  N   UNL     1      -1.426  -1.587  24.639  0.00  0.00    -0.112 NA
ATOM      5  N   UNL     1      -0.064  -1.761  24.796  0.00  0.00    -0.107 NA
ATOM     11  C   UNL     1      -1.567  -0.645  23.736  0.00  0.00    +0.222 A 
ATOM     14  C   UNL     1       0.504  -0.909  23.975  0.00  0.00    +0.248 A 
BRANCH  14  15
ATOM     15  C   UNL     1       1.891  -0.649  23.716  0.00  0.00    +0.038 A 
ATOM     17  C   UNL     1       2.854  -1.597  24.059  0.00  0.00    +0.013 A 
ATOM     18  C   UNL     1       2.276   0.552  23.119  0.00  0.00    +0.013 A 
ATOM     20  C   UNL     1       4.588  -0.143  23.211  0.00  0.00    -0.050 A 
ATOM     21  C   UNL     1       4.202  -1.345  23.807  0.00  0.00    +0.004 A 
ATOM     22  C   UNL     1       3.624   0.804  22.867  0.00  0.00    +0.004 A 
ATOM     25  C   UNL     1       6.029   0.126  22.942  0.00  0.00    +0.044 C 
ENDBRANCH  14  15
ENDBRANCH   7  11
TORSDOF 3
ENDMDL
MODEL 7
REMARK VINA RESULT:       4.0      2.274      2.965
REMARK  Name = 51137813
REMARK  4 active torsions:
REMARK  status: ('A' for Active; 'I' for Inactive)
REMARK    1  A    between atoms: C_7  and  C_11
REMARK    2  A    between atoms: C_12  and  C_13
REMARK    3  A    between atoms: C_14  and  C_15
REMARK    4  A    between atoms: C_20  and  C_25
REMARK                            x       y       z     vdW  Elec       q    Type
REMARK                         _______ _______ _______ _____ _____    ______ ____
ROOT
ATOM      2  O   UNL     1      -3.978  -0.721  26.713  0.00  0.00    -0.268 OA
ATOM      3  N   UNL     1      -2.976  -0.424  24.639  0.00  0.00    -0.296 N 
ATOM      7  C   UNL     1      -1.404  -0.242  22.862  0.00  0.00    +0.095 C 
ATOM      8  C   UNL     1      -1.468  -1.698  23.347  0.00  0.00    +0.033 C 
ATOM      9  C   UNL     1      -2.714   0.336  23.416  0.00  0.00    +0.121 C 
ATOM     10  C   UNL     1      -2.121  -1.599  24.719  0.00  0.00    +0.109 C 
ATOM     12  C   UNL     1      -3.843  -0.089  25.667  0.00  0.00    +0.265 C 
ENDROOT
BRANCH  12  13
ATOM      6  N   UNL     1      -4.009   2.296  25.705  0.00  0.00    -0.250 NA
ATOM     13  C   UNL     1      -4.655   1.126  25.502  0.00  0.00    +0.126 A 
ATOM     16  C   UNL     1      -5.995   1.030  25.160  0.00  0.00    +0.033 A 
ATOM     19  C   UNL     1      -6.716   2.210  25.016  0.00  0.00    +0.004 A 
ATOM     23  C   UNL     1      -4.743   3.421  25.557  0.00  0.00    +0.111 A 
ATOM     24  C   UNL     1      -6.086   3.433  25.217  0.00  0.00    +0.020 A 
ENDBRANCH  12  13
BRANCH   7  11
ATOM      1  O   UNL     1       1.046  -0.204  23.029  0.00  0.00    -0.420 OA
ATOM      4  N   UNL     1       0.046   1.583  23.929  0.00  0.00    -0.112 NA
ATOM      5  N   UNL     1       1.411   1.731  24.090  0.00  0.00    -0.107 NA
ATOM     11  C   UNL     1      -0.121   0.441  23.305  0.00  0.00    +0.222 A 
ATOM     14  C   UNL     1       1.955   0.665  23.549  0.00  0.00    +0.248 A 
BRANCH  14  15
ATOM     15  C   UNL     1       3.331   0.283  23.425  0.00  0.00    +0.038 A 
ATOM     17  C   UNL     1       4.263   1.189  22.919  0.00  0.00    +0.013 A 
ATOM     18  C   UNL     1       3.739  -0.993  23.814  0.00  0.00    +0.013 A 
ATOM     20  C   UNL     1       6.010  -0.459  23.186  0.00  0.00    -0.050 A 
ATOM     21  C   UNL     1       5.602   0.818  22.799  0.00  0.00    +0.004 A 
ATOM     22  C   UNL     1       5.079  -1.364  23.694  0.00  0.00    +0.004 A 
ATOM     25  C   UNL     1       7.442  -0.855  23.057  0.00  0.00    +0.044 C 
ENDBRANCH  14  15
ENDBRANCH   7  11
TORSDOF 3
ENDMDL
MODEL 8
REMARK VINA RESULT:       4.7      2.511      7.875
REMARK  Name = 51137813
REMARK  4 active torsions:
REMARK  status: ('A' for Active; 'I' for Inactive)
REMARK    1  A    between atoms: C_7  and  C_11
REMARK    2  A    between atoms: C_12  and  C_13
REMARK    3  A    between atoms: C_14  and  C_15
REMARK    4  A    between atoms: C_20  and  C_25
REMARK                            x       y       z     vdW  Elec       q    Type
REMARK                         _______ _______ _______ _____ _____    ______ ____
ROOT
ATOM      2  O   UNL     1       1.319  -0.619  20.984  0.00  0.00    -0.268 OA
ATOM      3  N   UNL     1       0.606  -1.376  23.061  0.00  0.00    -0.296 N 
ATOM      7  C   UNL     1      -0.680  -1.850  25.006  0.00  0.00    +0.095 C 
ATOM      8  C   UNL     1      -1.259  -2.615  23.805  0.00  0.00    +0.033 C 
ATOM      9  C   UNL     1       0.733  -1.507  24.513  0.00  0.00    +0.121 C 
ATOM     10  C   UNL     1      -0.670  -1.900  22.597  0.00  0.00    +0.109 C 
ATOM     12  C   UNL     1       1.500  -0.772  22.190  0.00  0.00    +0.265 C 
ENDROOT
BRANCH  12  13
ATOM      6  N   UNL     1       3.537  -1.173  23.376  0.00  0.00    -0.250 NA
ATOM     13  C   UNL     1       2.757  -0.260  22.755  0.00  0.00    +0.126 A 
ATOM     16  C   UNL     1       3.081   1.082  22.635  0.00  0.00    +0.033 A 
ATOM     19  C   UNL     1       4.282   1.514  23.186  0.00  0.00    +0.004 A 
ATOM     23  C   UNL     1       4.696  -0.716  23.900  0.00  0.00    +0.111 A 
ATOM     24  C   UNL     1       5.112   0.604  23.833  0.00  0.00    +0.020 A 
ENDBRANCH  12  13
BRANCH   7  11
ATOM      1  O   UNL     1      -1.116   0.565  25.083  0.00  0.00    -0.420 OA
ATOM      4  N   UNL     1      -2.720  -0.678  26.024  0.00  0.00    -0.112 NA
ATOM      5  N   UNL     1      -3.088   0.650  26.135  0.00  0.00    -0.107 NA
ATOM     11  C   UNL     1      -1.563  -0.680  25.403  0.00  0.00    +0.222 A 
ATOM     14  C   UNL     1      -2.123   1.339  25.572  0.00  0.00    +0.248 A 
BRANCH  14  15
ATOM     15  C   UNL     1      -1.969   2.754  25.396  0.00  0.00    +0.038 A 
ATOM     17  C   UNL     1      -3.044   3.608  25.642  0.00  0.00    +0.013 A 
ATOM     18  C   UNL     1      -0.743   3.277  24.981  0.00  0.00    +0.013 A 
ATOM     20  C   UNL     1      -1.669   5.507  25.056  0.00  0.00    -0.050 A 
ATOM     21  C   UNL     1      -2.894   4.984  25.472  0.00  0.00    +0.004 A 
ATOM     22  C   UNL     1      -0.594   4.653  24.811  0.00  0.00    +0.004 A 
ATOM     25  C   UNL     1      -1.510   6.978  24.874  0.00  0.00    +0.044 C 
ENDBRANCH  14  15
ENDBRANCH   7  11
TORSDOF 3
ENDMDL
