MODEL 1
REMARK VINA RESULT:      -3.7      0.000      0.000
REMARK  Name = 56774725
REMARK  9 active torsions:
REMARK  status: ('A' for Active; 'I' for Inactive)
REMARK    1  A    between atoms: O_3  and  C_9
REMARK    2  A    between atoms: N_6  and  C_10
REMARK    3  A    between atoms: N_7  and  C_22
REMARK    4  A    between atoms: C_8  and  C_9
REMARK    5  A    between atoms: C_9  and  C_15
REMARK    6  A    between atoms: C_10  and  C_12
REMARK    7  A    between atoms: C_12  and  C_16
REMARK    8  A    between atoms: C_12  and  C_17
REMARK    9  A    between atoms: C_23  and  C_24
REMARK                            x       y       z     vdW  Elec       q    Type
REMARK                         _______ _______ _______ _____ _____    ______ ____
ROOT
ATOM     15  C   UNL     1      -2.881   0.377  24.317  0.00  0.00    -0.017 A 
ATOM     18  C   UNL     1      -2.160  -0.300  25.299  0.00  0.00    +0.008 A 
ATOM     19  C   UNL     1      -2.213   0.957  23.238  0.00  0.00    +0.008 A 
ATOM     20  C   UNL     1      -0.771  -0.396  25.206  0.00  0.00    +0.023 A 
ATOM     21  C   UNL     1      -0.825   0.861  23.144  0.00  0.00    +0.023 A 
ATOM     22  C   UNL     1      -0.104   0.185  24.127  0.00  0.00    +0.034 A 
ENDROOT
BRANCH  22   7
ATOM      5  O   UNL     1       1.653  -0.216  21.731  0.00  0.00    -0.269 OA
ATOM      7  N   UNL     1       1.285   0.089  24.033  0.00  0.00    -0.281 N 
ATOM     23  C   UNL     1       2.060  -0.099  22.881  0.00  0.00    +0.255 C 
ATOM     29  H   UNL     1       1.786   0.172  24.916  0.00  0.00    +0.155 HD
BRANCH  23  24
ATOM      1  S   UNL     1       4.238  -1.523  23.805  0.00  0.00    -0.092 S 
ATOM     24  C   UNL     1       3.530  -0.131  23.102  0.00  0.00    +0.074 A 
ATOM     25  C   UNL     1       4.468   0.836  22.815  0.00  0.00    +0.021 A 
ATOM     26  C   UNL     1       5.784   0.429  23.176  0.00  0.00    +0.008 A 
ATOM     27  C   UNL     1       5.803  -0.833  23.727  0.00  0.00    +0.046 A 
ENDBRANCH  23  24
ENDBRANCH  22   7
BRANCH  15   9
ATOM      9  C   UNL     1      -4.381   0.481  24.419  0.00  0.00    +0.167 C 
BRANCH   9   8
ATOM      2  O   UNL     1      -6.616   1.839  25.753  0.00  0.00    -0.369 OA
ATOM      4  O   UNL     1      -3.967   3.966  26.978  0.00  0.00    -0.273 OA
ATOM      6  N   UNL     1      -4.150   2.885  24.925  0.00  0.00    -0.291 N 
ATOM      8  C   UNL     1      -4.875   1.899  24.115  0.00  0.00    +0.135 C 
ATOM     11  C   UNL     1      -6.374   2.023  24.362  0.00  0.00    +0.185 C 
ATOM     13  C   UNL     1      -4.608   3.281  26.180  0.00  0.00    +0.242 C 
ATOM     14  C   UNL     1      -6.043   2.884  26.507  0.00  0.00    +0.255 C 
BRANCH   6  10
ATOM     10  C   UNL     1      -2.834   3.302  24.459  0.00  0.00    +0.111 C 
BRANCH  10  12
ATOM     12  C   UNL     1      -2.009   3.971  25.563  0.00  0.00    +0.000 C 
ATOM     16  C   UNL     1      -1.426   5.290  25.057  0.00  0.00    +0.009 C 
ATOM     17  C   UNL     1      -0.884   3.059  26.058  0.00  0.00    +0.009 C 
ENDBRANCH  10  12
ENDBRANCH   6  10
ENDBRANCH   9   8
BRANCH   9   3
ATOM      3  O   UNL     1      -4.796   0.109  25.729  0.00  0.00    -0.385 OA
ATOM     28  H   UNL     1      -5.424   0.773  26.060  0.00  0.00    +0.210 HD
ENDBRANCH   9   3
ENDBRANCH  15   9
TORSDOF 7
ENDMDL
MODEL 2
REMARK VINA RESULT:      -3.4     16.210     19.780
REMARK  Name = 56774725
REMARK  9 active torsions:
REMARK  status: ('A' for Active; 'I' for Inactive)
REMARK    1  A    between atoms: O_3  and  C_9
REMARK    2  A    between atoms: N_6  and  C_10
REMARK    3  A    between atoms: N_7  and  C_22
REMARK    4  A    between atoms: C_8  and  C_9
REMARK    5  A    between atoms: C_9  and  C_15
REMARK    6  A    between atoms: C_10  and  C_12
REMARK    7  A    between atoms: C_12  and  C_16
REMARK    8  A    between atoms: C_12  and  C_17
REMARK    9  A    between atoms: C_23  and  C_24
REMARK                            x       y       z     vdW  Elec       q    Type
REMARK                         _______ _______ _______ _____ _____    ______ ____
ROOT
ATOM     15  C   UNL     1      14.533  -5.872  31.161  0.00  0.00    -0.017 A 
ATOM     18  C   UNL     1      13.979  -5.751  32.435  0.00  0.00    +0.008 A 
ATOM     19  C   UNL     1      13.791  -6.451  30.131  0.00  0.00    +0.008 A 
ATOM     20  C   UNL     1      12.685  -6.211  32.681  0.00  0.00    +0.023 A 
ATOM     21  C   UNL     1      12.498  -6.910  30.376  0.00  0.00    +0.023 A 
ATOM     22  C   UNL     1      11.945  -6.790  31.651  0.00  0.00    +0.034 A 
ENDROOT
BRANCH  22   7
ATOM      5  O   UNL     1      10.938  -9.569  32.157  0.00  0.00    -0.269 OA
ATOM      7  N   UNL     1      10.650  -7.251  31.896  0.00  0.00    -0.281 N 
ATOM     23  C   UNL     1      10.232  -8.568  32.128  0.00  0.00    +0.255 C 
ATOM     29  H   UNL     1       9.929  -6.531  31.910  0.00  0.00    +0.155 HD
BRANCH  23  24
ATOM      1  S   UNL     1       8.097 -10.307  32.315  0.00  0.00    -0.092 S 
ATOM     24  C   UNL     1       8.778  -8.738  32.388  0.00  0.00    +0.074 A 
ATOM     25  C   UNL     1       7.838  -7.780  32.695  0.00  0.00    +0.021 A 
ATOM     26  C   UNL     1       6.541  -8.341  32.873  0.00  0.00    +0.008 A 
ATOM     27  C   UNL     1       6.538  -9.707  32.695  0.00  0.00    +0.046 A 
ENDBRANCH  23  24
ENDBRANCH  22   7
BRANCH  15   9
ATOM      9  C   UNL     1      15.932  -5.376  30.897  0.00  0.00    +0.167 C 
BRANCH   9   8
ATOM      2  O   UNL     1      15.691  -7.725  32.641  0.00  0.00    -0.369 OA
ATOM      4  O   UNL     1      15.530  -9.462  29.478  0.00  0.00    -0.273 OA
ATOM      6  N   UNL     1      16.730  -7.548  30.043  0.00  0.00    -0.291 N 
ATOM      8  C   UNL     1      16.968  -6.495  31.037  0.00  0.00    +0.135 C 
ATOM     11  C   UNL     1      16.949  -7.089  32.441  0.00  0.00    +0.185 C 
ATOM     13  C   UNL     1      15.908  -8.640  30.315  0.00  0.00    +0.242 C 
ATOM     14  C   UNL     1      15.544  -8.834  31.783  0.00  0.00    +0.255 C 
BRANCH   6  10
ATOM     10  C   UNL     1      17.232  -7.326  28.693  0.00  0.00    +0.111 C 
BRANCH  10  12
ATOM     12  C   UNL     1      16.379  -6.322  27.912  0.00  0.00    +0.000 C 
ATOM     16  C   UNL     1      15.539  -7.049  26.863  0.00  0.00    +0.009 C 
ATOM     17  C   UNL     1      17.242  -5.252  27.239  0.00  0.00    +0.009 C 
ENDBRANCH  10  12
ENDBRANCH   6  10
ENDBRANCH   9   8
BRANCH   9   3
ATOM      3  O   UNL     1      16.245  -4.328  31.807  0.00  0.00    -0.385 OA
ATOM     28  H   UNL     1      16.484  -4.717  32.665  0.00  0.00    +0.210 HD
ENDBRANCH   9   3
ENDBRANCH  15   9
TORSDOF 7
ENDMDL
MODEL 3
REMARK VINA RESULT:      -2.4      1.362      3.087
REMARK  Name = 56774725
REMARK  9 active torsions:
REMARK  status: ('A' for Active; 'I' for Inactive)
REMARK    1  A    between atoms: O_3  and  C_9
REMARK    2  A    between atoms: N_6  and  C_10
REMARK    3  A    between atoms: N_7  and  C_22
REMARK    4  A    between atoms: C_8  and  C_9
REMARK    5  A    between atoms: C_9  and  C_15
REMARK    6  A    between atoms: C_10  and  C_12
REMARK    7  A    between atoms: C_12  and  C_16
REMARK    8  A    between atoms: C_12  and  C_17
REMARK    9  A    between atoms: C_23  and  C_24
REMARK                            x       y       z     vdW  Elec       q    Type
REMARK                         _______ _______ _______ _____ _____    ______ ____
ROOT
ATOM     15  C   UNL     1      -2.101   2.732  24.658  0.00  0.00    -0.017 A 
ATOM     18  C   UNL     1      -1.719   2.180  23.435  0.00  0.00    +0.008 A 
ATOM     19  C   UNL     1      -1.183   2.807  25.706  0.00  0.00    +0.008 A 
ATOM     20  C   UNL     1      -0.421   1.701  23.260  0.00  0.00    +0.023 A 
ATOM     21  C   UNL     1       0.115   2.328  25.531  0.00  0.00    +0.023 A 
ATOM     22  C   UNL     1       0.496   1.775  24.309  0.00  0.00    +0.034 A 
ENDROOT
BRANCH  22   7
ATOM      5  O   UNL     1       1.581  -0.214  22.345  0.00  0.00    -0.269 OA
ATOM      7  N   UNL     1       1.795   1.295  24.134  0.00  0.00    -0.281 N 
ATOM     23  C   UNL     1       2.251   0.361  23.195  0.00  0.00    +0.255 C 
ATOM     29  H   UNL     1       2.489   1.683  24.771  0.00  0.00    +0.155 HD
BRANCH  23  24
ATOM      1  S   UNL     1       4.239  -1.455  23.804  0.00  0.00    -0.092 S 
ATOM     24  C   UNL     1       3.709   0.072  23.240  0.00  0.00    +0.074 A 
ATOM     25  C   UNL     1       4.761   0.885  22.880  0.00  0.00    +0.021 A 
ATOM     26  C   UNL     1       6.020   0.245  23.069  0.00  0.00    +0.008 A 
ATOM     27  C   UNL     1       5.882  -1.032  23.568  0.00  0.00    +0.046 A 
ENDBRANCH  23  24
ENDBRANCH  22   7
BRANCH  15   9
ATOM      9  C   UNL     1      -3.505   3.248  24.846  0.00  0.00    +0.167 C 
BRANCH   9   8
ATOM      2  O   UNL     1      -6.379   2.673  24.697  0.00  0.00    -0.369 OA
ATOM      4  O   UNL     1      -5.189  -0.685  24.099  0.00  0.00    -0.273 OA
ATOM      6  N   UNL     1      -4.271   0.981  25.442  0.00  0.00    -0.291 N 
ATOM      8  C   UNL     1      -4.297   2.394  25.839  0.00  0.00    +0.135 C 
ATOM     11  C   UNL     1      -5.738   2.876  25.952  0.00  0.00    +0.185 C 
ATOM     13  C   UNL     1      -5.245   0.437  24.606  0.00  0.00    +0.242 C 
ATOM     14  C   UNL     1      -6.487   1.298  24.403  0.00  0.00    +0.255 C 
BRANCH   6  10
ATOM     10  C   UNL     1      -3.091   0.203  25.797  0.00  0.00    +0.111 C 
BRANCH  10  12
ATOM     12  C   UNL     1      -2.969  -1.081  24.970  0.00  0.00    +0.000 C 
ATOM     16  C   UNL     1      -3.354  -2.292  25.820  0.00  0.00    +0.009 C 
ATOM     17  C   UNL     1      -1.554  -1.262  24.415  0.00  0.00    +0.009 C 
ENDBRANCH  10  12
ENDBRANCH   6  10
ENDBRANCH   9   8
BRANCH   9   3
ATOM      3  O   UNL     1      -4.179   3.261  23.593  0.00  0.00    -0.385 OA
ATOM     28  H   UNL     1      -4.121   2.376  23.196  0.00  0.00    +0.210 HD
ENDBRANCH   9   3
ENDBRANCH  15   9
TORSDOF 7
ENDMDL
MODEL 4
REMARK VINA RESULT:      -2.3     16.281     20.436
REMARK  Name = 56774725
REMARK  9 active torsions:
REMARK  status: ('A' for Active; 'I' for Inactive)
REMARK    1  A    between atoms: O_3  and  C_9
REMARK    2  A    between atoms: N_6  and  C_10
REMARK    3  A    between atoms: N_7  and  C_22
REMARK    4  A    between atoms: C_8  and  C_9
REMARK    5  A    between atoms: C_9  and  C_15
REMARK    6  A    between atoms: C_10  and  C_12
REMARK    7  A    between atoms: C_12  and  C_16
REMARK    8  A    between atoms: C_12  and  C_17
REMARK    9  A    between atoms: C_23  and  C_24
REMARK                            x       y       z     vdW  Elec       q    Type
REMARK                         _______ _______ _______ _____ _____    ______ ____
ROOT
ATOM     15  C   UNL     1      15.205  -8.009  31.409  0.00  0.00    -0.017 A 
ATOM     18  C   UNL     1      14.823  -8.620  32.603  0.00  0.00    +0.008 A 
ATOM     19  C   UNL     1      14.243  -7.697  30.448  0.00  0.00    +0.008 A 
ATOM     20  C   UNL     1      13.481  -8.921  32.836  0.00  0.00    +0.023 A 
ATOM     21  C   UNL     1      12.902  -7.997  30.681  0.00  0.00    +0.023 A 
ATOM     22  C   UNL     1      12.521  -8.610  31.874  0.00  0.00    +0.034 A 
ENDROOT
BRANCH  22   7
ATOM      5  O   UNL     1      10.271  -6.854  32.793  0.00  0.00    -0.269 OA
ATOM      7  N   UNL     1      11.177  -8.911  32.106  0.00  0.00    -0.281 N 
ATOM     23  C   UNL     1      10.162  -8.047  32.537  0.00  0.00    +0.255 C 
ATOM     29  H   UNL     1      10.914  -9.879  31.934  0.00  0.00    +0.155 HD
BRANCH  23  24
ATOM      1  S   UNL     1       7.438  -7.648  32.744  0.00  0.00    -0.092 S 
ATOM     24  C   UNL     1       8.815  -8.663  32.666  0.00  0.00    +0.074 A 
ATOM     25  C   UNL     1       8.478  -9.997  32.737  0.00  0.00    +0.021 A 
ATOM     26  C   UNL     1       7.072 -10.188  32.856  0.00  0.00    +0.008 A 
ATOM     27  C   UNL     1       6.386  -8.993  32.873  0.00  0.00    +0.046 A 
ENDBRANCH  23  24
ENDBRANCH  22   7
BRANCH  15   9
ATOM      9  C   UNL     1      16.655  -7.685  31.158  0.00  0.00    +0.167 C 
BRANCH   9   8
ATOM      2  O   UNL     1      15.777 -10.477  30.950  0.00  0.00    -0.369 OA
ATOM      4  O   UNL     1      15.186  -9.535  27.514  0.00  0.00    -0.273 OA
ATOM      6  N   UNL     1      16.849  -8.807  28.970  0.00  0.00    -0.291 N 
ATOM      8  C   UNL     1      17.352  -8.782  30.349  0.00  0.00    +0.135 C 
ATOM     11  C   UNL     1      17.161 -10.148  30.998  0.00  0.00    +0.185 C 
ATOM     13  C   UNL     1      15.762  -9.596  28.601  0.00  0.00    +0.242 C 
ATOM     14  C   UNL     1      15.345 -10.653  29.619  0.00  0.00    +0.255 C 
BRANCH   6  10
ATOM     10  C   UNL     1      17.405  -7.839  28.034  0.00  0.00    +0.111 C 
BRANCH  10  12
ATOM     12  C   UNL     1      16.363  -6.822  27.558  0.00  0.00    +0.000 C 
ATOM     16  C   UNL     1      16.517  -6.573  26.058  0.00  0.00    +0.009 C 
ATOM     17  C   UNL     1      16.475  -5.500  28.321  0.00  0.00    +0.009 C 
ENDBRANCH  10  12
ENDBRANCH   6  10
ENDBRANCH   9   8
BRANCH   9   3
ATOM      3  O   UNL     1      17.328  -7.517  32.401  0.00  0.00    -0.385 OA
ATOM     28  H   UNL     1      18.187  -7.093  32.239  0.00  0.00    +0.210 HD
ENDBRANCH   9   3
ENDBRANCH  15   9
TORSDOF 7
ENDMDL
