MODEL 1
REMARK VINA RESULT:       2.4      0.000      0.000
REMARK  Name = 11882607
REMARK  14 active torsions:
REMARK  status: ('A' for Active; 'I' for Inactive)
REMARK    1  A    between atoms: O_6  and  C_35
REMARK    2  A    between atoms: O_6  and  C_37
REMARK    3  A    between atoms: N_8  and  C_12
REMARK    4  A    between atoms: N_9  and  C_21
REMARK    5  A    between atoms: N_10  and  C_19
REMARK    6  A    between atoms: N_10  and  C_27
REMARK    7  A    between atoms: C_13  and  C_17
REMARK    8  A    between atoms: C_18  and  C_19
REMARK    9  A    between atoms: C_19  and  C_22
REMARK   10  A    between atoms: C_20  and  C_24
REMARK   11  A    between atoms: C_21  and  C_23
REMARK   12  A    between atoms: C_21  and  C_25
REMARK   13  A    between atoms: C_23  and  C_26
REMARK   14  A    between atoms: C_24  and  C_28
REMARK                            x       y       z     vdW  Elec       q    Type
REMARK                         _______ _______ _______ _____ _____    ______ ____
ROOT
ATOM      3  O   UNL     1      -2.286   3.927  27.315  0.00  0.00    -0.274 OA
ATOM      7  N   UNL     1      -1.710   2.892  25.311  0.00  0.00    -0.289 N 
ATOM     12  C   UNL     1       0.190   1.258  23.813  0.00  0.00    +0.077 C 
ATOM     13  C   UNL     1      -1.914   2.712  23.863  0.00  0.00    +0.164 C 
ATOM     14  C   UNL     1      -0.630   2.346  23.115  0.00  0.00    +0.054 C 
ATOM     15  C   UNL     1       0.423   1.627  25.277  0.00  0.00    +0.041 C 
ATOM     16  C   UNL     1      -0.899   1.876  25.991  0.00  0.00    +0.110 C 
ATOM     18  C   UNL     1      -2.355   3.864  26.084  0.00  0.00    +0.233 C 
ENDROOT
BRANCH  13  17
ATOM      2  O   UNL     1      -2.918   0.812  22.820  0.00  0.00    -0.274 OA
ATOM      9  N   UNL     1      -4.002   1.813  24.620  0.00  0.00    -0.302 N 
ATOM     17  C   UNL     1      -2.979   1.667  23.699  0.00  0.00    +0.234 C 
ATOM     39  H   UNL     1      -3.946   2.540  25.327  0.00  0.00    +0.150 HD
BRANCH   9  21
ATOM     21  C   UNL     1      -5.159   0.947  24.659  0.00  0.00    +0.163 C 
BRANCH  21  25
ATOM      5  O   UNL     1      -7.322   2.003  24.318  0.00  0.00    -0.274 OA
ATOM     11  N   UNL     1      -6.251   2.316  26.326  0.00  0.00    -0.328 N 
ATOM     25  C   UNL     1      -6.351   1.811  25.046  0.00  0.00    +0.231 C 
ATOM     41  H   UNL     1      -6.986   2.896  26.715  0.00  0.00    +0.145 HD
ATOM     42  H   UNL     1      -5.445   2.146  26.919  0.00  0.00    +0.145 HD
ENDBRANCH  21  25
BRANCH  21  23
ATOM     23  C   UNL     1      -4.988  -0.202  25.658  0.00  0.00    +0.067 C 
BRANCH  23  26
ATOM     26  C   UNL     1      -3.731  -1.003  25.417  0.00  0.00    -0.045 A 
ATOM     29  C   UNL     1      -3.727  -2.030  24.473  0.00  0.00    +0.007 A 
ATOM     30  C   UNL     1      -2.573  -0.716  26.139  0.00  0.00    +0.007 A 
ATOM     32  C   UNL     1      -2.565  -2.768  24.250  0.00  0.00    +0.046 A 
ATOM     33  C   UNL     1      -1.411  -1.455  25.916  0.00  0.00    +0.046 A 
ATOM     35  C   UNL     1      -1.407  -2.481  24.973  0.00  0.00    +0.120 A 
BRANCH  35   6
ATOM      6  O   UNL     1      -0.273  -3.202  24.755  0.00  0.00    -0.495 OA
ATOM     37  C   UNL     1       0.915  -2.753  25.403  0.00  0.00    +0.277 C 
ENDBRANCH  35   6
ENDBRANCH  23  26
ENDBRANCH  21  23
ENDBRANCH   9  21
ENDBRANCH  13  17
BRANCH  12   8
ATOM      4  O   UNL     1       0.805  -0.828  21.929  0.00  0.00    -0.275 OA
ATOM      8  N   UNL     1       1.448   1.049  23.135  0.00  0.00    -0.312 N 
ATOM     20  C   UNL     1       1.650   0.011  22.240  0.00  0.00    +0.218 C 
ATOM     38  H   UNL     1       2.184   1.733  23.279  0.00  0.00    +0.149 HD
BRANCH  20  24
ATOM     24  C   UNL     1       3.043   0.004  21.642  0.00  0.00    +0.138 C 
BRANCH  24  28
ATOM      1  S   UNL     1       4.244  -1.443  23.689  0.00  0.00    -0.101 S 
ATOM     28  C   UNL     1       4.055  -0.021  22.754  0.00  0.00    -0.001 A 
ATOM     31  C   UNL     1       4.905   0.983  23.162  0.00  0.00    +0.011 A 
ATOM     34  C   UNL     1       5.722   0.579  24.257  0.00  0.00    +0.008 A 
ATOM     36  C   UNL     1       5.466  -0.718  24.644  0.00  0.00    +0.045 A 
ENDBRANCH  24  28
ENDBRANCH  20  24
ENDBRANCH  12   8
BRANCH  18  19
ATOM     19  C   UNL     1      -3.169   4.895  25.340  0.00  0.00    +0.137 C 
ATOM     22  C   UNL     1      -2.349   6.152  25.136  0.00  0.00    +0.034 C 
BRANCH  19  10
ATOM     10  N   UNL     1      -4.346   5.163  26.148  0.00  0.00    -0.309 NA
ATOM     27  C   UNL     1      -5.564   5.052  25.355  0.00  0.00    +0.101 C 
ATOM     40  H   UNL     1      -4.294   6.112  26.520  0.00  0.00    +0.122 HD
ENDBRANCH  19  10
ENDBRANCH  18  19
TORSDOF 11
ENDMDL
