MODEL 1
REMARK VINA RESULT:      -3.6      0.000      0.000
REMARK  Name = 45783565
REMARK  10 active torsions:
REMARK  status: ('A' for Active; 'I' for Inactive)
REMARK    1  A    between atoms: O_2  and  C_26
REMARK    2  A    between atoms: O_2  and  C_27
REMARK    3  A    between atoms: O_3  and  C_28
REMARK    4  A    between atoms: O_3  and  C_29
REMARK    5  A    between atoms: N_4  and  C_12
REMARK    6  A    between atoms: C_8  and  C_13
REMARK    7  A    between atoms: C_12  and  C_14
REMARK    8  A    between atoms: C_15  and  C_19
REMARK    9  A    between atoms: C_17  and  C_22
REMARK   10  A    between atoms: C_27  and  C_28
REMARK                            x       y       z     vdW  Elec       q    Type
REMARK                         _______ _______ _______ _____ _____    ______ ____
ROOT
ATOM      1  O   UNL     1      -2.028   2.978  25.227  0.00  0.00    -0.336 OA
ATOM      5  N   UNL     1      -1.817   1.477  23.578  0.00  0.00    -0.190 NA
ATOM      6  N   UNL     1      -0.653   2.784  25.052  0.00  0.00    -0.056 NA
ATOM     13  C   UNL     1      -2.642   2.172  24.321  0.00  0.00    +0.245 A 
ATOM     17  C   UNL     1      -0.609   1.885  24.063  0.00  0.00    +0.204 A 
ENDROOT
BRANCH  17  22
ATOM      7  N   UNL     1       2.984   1.700  23.122  0.00  0.00    -0.221 NA
ATOM     22  C   UNL     1       0.625   1.376  23.538  0.00  0.00    +0.041 A 
ATOM     23  C   UNL     1       0.687   0.116  22.953  0.00  0.00    +0.018 A 
ATOM     24  C   UNL     1       1.791   2.121  23.598  0.00  0.00    +0.126 A 
ATOM     25  C   UNL     1       1.897  -0.353  22.452  0.00  0.00    +0.068 A 
ATOM     26  C   UNL     1       3.006   0.471  22.560  0.00  0.00    +0.215 A 
BRANCH  26   2
ATOM      2  O   UNL     1       4.210   0.032  22.074  0.00  0.00    -0.474 OA
BRANCH   2  27
ATOM     27  C   UNL     1       5.374   0.450  22.776  0.00  0.00    +0.258 C 
BRANCH  27  28
ATOM     28  C   UNL     1       5.203   0.139  24.250  0.00  0.00    +0.200 C 
BRANCH  28   3
ATOM      3  O   UNL     1       5.612  -1.202  24.493  0.00  0.00    -0.380 OA
ATOM     29  C   UNL     1       4.653  -2.134  24.014  0.00  0.00    +0.194 C 
ENDBRANCH  28   3
ENDBRANCH  27  28
ENDBRANCH   2  27
ENDBRANCH  26   2
ENDBRANCH  17  22
BRANCH  13   8
ATOM      4  N   UNL     1      -4.748   1.364  25.370  0.00  0.00    -0.287 NA
ATOM      8  C   UNL     1      -4.155   2.201  24.308  0.00  0.00    +0.146 C 
ATOM      9  C   UNL     1      -4.726   3.609  24.554  0.00  0.00    +0.030 C 
ATOM     10  C   UNL     1      -5.674   3.453  25.735  0.00  0.00    +0.017 C 
ATOM     11  C   UNL     1      -6.030   1.981  25.715  0.00  0.00    +0.085 C 
BRANCH   4  12
ATOM     12  C   UNL     1      -4.898  -0.033  24.985  0.00  0.00    +0.120 C 
BRANCH  12  14
ATOM     14  C   UNL     1      -3.601  -0.789  25.100  0.00  0.00    -0.030 A 
ATOM     15  C   UNL     1      -3.358  -1.920  24.321  0.00  0.00    -0.046 A 
ATOM     16  C   UNL     1      -2.633  -0.342  26.000  0.00  0.00    +0.005 A 
ATOM     18  C   UNL     1      -2.149  -2.605  24.442  0.00  0.00    +0.003 A 
ATOM     19  C   UNL     1      -4.378  -2.418  23.350  0.00  0.00    +0.044 C 
ATOM     20  C   UNL     1      -1.424  -1.026  26.121  0.00  0.00    +0.000 A 
ATOM     21  C   UNL     1      -1.182  -2.157  25.343  0.00  0.00    +0.000 A 
ENDBRANCH  12  14
ENDBRANCH   4  12
ENDBRANCH  13   8
TORSDOF 8
ENDMDL
MODEL 2
REMARK VINA RESULT:      -1.9      1.918      3.682
REMARK  Name = 45783565
REMARK  10 active torsions:
REMARK  status: ('A' for Active; 'I' for Inactive)
REMARK    1  A    between atoms: O_2  and  C_26
REMARK    2  A    between atoms: O_2  and  C_27
REMARK    3  A    between atoms: O_3  and  C_28
REMARK    4  A    between atoms: O_3  and  C_29
REMARK    5  A    between atoms: N_4  and  C_12
REMARK    6  A    between atoms: C_8  and  C_13
REMARK    7  A    between atoms: C_12  and  C_14
REMARK    8  A    between atoms: C_15  and  C_19
REMARK    9  A    between atoms: C_17  and  C_22
REMARK   10  A    between atoms: C_27  and  C_28
REMARK                            x       y       z     vdW  Elec       q    Type
REMARK                         _______ _______ _______ _____ _____    ______ ____
ROOT
ATOM      1  O   UNL     1      -2.820  -1.021  24.809  0.00  0.00    -0.336 OA
ATOM      5  N   UNL     1      -1.844   0.973  24.514  0.00  0.00    -0.190 NA
ATOM      6  N   UNL     1      -1.571  -1.281  24.231  0.00  0.00    -0.056 NA
ATOM     13  C   UNL     1      -2.901   0.329  24.941  0.00  0.00    +0.245 A 
ATOM     17  C   UNL     1      -1.056  -0.055  24.088  0.00  0.00    +0.204 A 
ENDROOT
BRANCH  17  22
ATOM      7  N   UNL     1       2.286   1.463  23.494  0.00  0.00    -0.221 NA
ATOM     22  C   UNL     1       0.242   0.174  23.522  0.00  0.00    +0.041 A 
ATOM     23  C   UNL     1       0.722  -0.625  22.489  0.00  0.00    +0.018 A 
ATOM     24  C   UNL     1       1.056   1.195  23.985  0.00  0.00    +0.126 A 
ATOM     25  C   UNL     1       1.984  -0.379  21.958  0.00  0.00    +0.068 A 
ATOM     26  C   UNL     1       2.720   0.667  22.491  0.00  0.00    +0.215 A 
BRANCH  26   2
ATOM      2  O   UNL     1       3.966   0.928  21.986  0.00  0.00    -0.474 OA
BRANCH   2  27
ATOM     27  C   UNL     1       5.022   0.075  22.412  0.00  0.00    +0.258 C 
BRANCH  27  28
ATOM     28  C   UNL     1       5.452   0.479  23.809  0.00  0.00    +0.200 C 
BRANCH  28   3
ATOM      3  O   UNL     1       5.443  -0.669  24.649  0.00  0.00    -0.380 OA
ATOM     29  C   UNL     1       4.823  -1.776  24.011  0.00  0.00    +0.194 C 
ENDBRANCH  28   3
ENDBRANCH  27  28
ENDBRANCH   2  27
ENDBRANCH  26   2
ENDBRANCH  17  22
BRANCH  13   8
ATOM      4  N   UNL     1      -4.340   2.321  25.328  0.00  0.00    -0.287 NA
ATOM      8  C   UNL     1      -4.175   0.871  25.552  0.00  0.00    +0.146 C 
ATOM      9  C   UNL     1      -5.442   0.237  24.950  0.00  0.00    +0.030 C 
ATOM     10  C   UNL     1      -6.284   1.409  24.467  0.00  0.00    +0.017 C 
ATOM     11  C   UNL     1      -5.781   2.574  25.294  0.00  0.00    +0.085 C 
BRANCH   4  12
ATOM     12  C   UNL     1      -3.663   3.138  26.326  0.00  0.00    +0.120 C 
BRANCH  12  14
ATOM     14  C   UNL     1      -2.567   3.973  25.719  0.00  0.00    -0.030 A 
ATOM     15  C   UNL     1      -1.225   3.643  25.910  0.00  0.00    -0.046 A 
ATOM     16  C   UNL     1      -2.909   5.089  24.957  0.00  0.00    +0.005 A 
ATOM     18  C   UNL     1      -0.225   4.431  25.337  0.00  0.00    +0.003 A 
ATOM     19  C   UNL     1      -0.833   2.453  26.722  0.00  0.00    +0.044 C 
ATOM     20  C   UNL     1      -1.910   5.876  24.385  0.00  0.00    +0.000 A 
ATOM     21  C   UNL     1      -0.568   5.547  24.574  0.00  0.00    +0.000 A 
ENDBRANCH  12  14
ENDBRANCH   4  12
ENDBRANCH  13   8
TORSDOF 8
ENDMDL
