MODEL 1
REMARK VINA RESULT:       3.9      0.000      0.000
REMARK  Name = 26743428
REMARK  11 active torsions:
REMARK  status: ('A' for Active; 'I' for Inactive)
REMARK    1  A    between atoms: S_1  and  C_23
REMARK    2  A    between atoms: S_1  and  C_30
REMARK    3  A    between atoms: O_6  and  C_31
REMARK    4  A    between atoms: N_8  and  C_13
REMARK    5  A    between atoms: N_9  and  C_21
REMARK    6  A    between atoms: C_11  and  C_14
REMARK    7  A    between atoms: C_17  and  C_19
REMARK    8  A    between atoms: C_18  and  C_20
REMARK    9  A    between atoms: C_22  and  C_23
REMARK   10  A    between atoms: C_28  and  C_29
REMARK   11  A    between atoms: C_30  and  C_31
REMARK                            x       y       z     vdW  Elec       q    Type
REMARK                         _______ _______ _______ _____ _____    ______ ____
ROOT
ATOM      9  N   UNL     1       0.837  -0.535  23.947  0.00  0.00    -0.236 N 
ATOM     10  N   UNL     1       0.205  -1.710  23.779  0.00  0.00    -0.171 NA
ATOM     14  C   UNL     1      -1.245  -0.057  24.401  0.00  0.00    +0.003 A 
ATOM     17  C   UNL     1       0.014   0.485  24.321  0.00  0.00    +0.046 A 
ATOM     18  C   UNL     1      -1.067  -1.411  24.057  0.00  0.00    +0.064 A 
ATOM     19  C   UNL     1       0.488   1.862  24.564  0.00  0.00    +0.066 C 
ATOM     20  C   UNL     1      -2.092  -2.467  23.981  0.00  0.00    +0.068 C 
ENDROOT
BRANCH   9  21
ATOM     21  C   UNL     1       2.215  -0.456  23.740  0.00  0.00    +0.066 A 
ATOM     24  C   UNL     1       3.037  -1.526  24.093  0.00  0.00    +0.028 A 
ATOM     25  C   UNL     1       2.769   0.696  23.181  0.00  0.00    +0.028 A 
ATOM     26  C   UNL     1       4.414  -1.444  23.887  0.00  0.00    +0.014 A 
ATOM     27  C   UNL     1       4.147   0.777  22.976  0.00  0.00    +0.014 A 
ATOM     28  C   UNL     1       4.969  -0.292  23.329  0.00  0.00    +0.055 A 
BRANCH  28  29
ATOM      2  F   UNL     1       7.148  -0.984  23.981  0.00  0.00    -0.166 F 
ATOM      3  F   UNL     1       6.835  -0.602  21.864  0.00  0.00    -0.166 F 
ATOM      4  F   UNL     1       6.943   1.056  23.257  0.00  0.00    -0.166 F 
ATOM     29  C   UNL     1       6.441  -0.206  23.111  0.00  0.00    +0.417 C 
ENDBRANCH  28  29
ENDBRANCH   9  21
BRANCH  14  11
ATOM     11  C   UNL     1      -2.531   0.643  24.776  0.00  0.00    +0.047 C 
ATOM     12  C   UNL     1      -3.453   0.911  23.569  0.00  0.00    +0.039 C 
ATOM     13  C   UNL     1      -4.886   0.768  24.096  0.00  0.00    +0.097 C 
ATOM     15  C   UNL     1      -3.424  -0.137  25.697  0.00  0.00    -0.021 C 
ATOM     16  C   UNL     1      -4.706  -0.062  25.324  0.00  0.00    -0.009 C 
BRANCH  13   8
ATOM      5  O   UNL     1      -6.219   1.429  26.580  0.00  0.00    -0.275 OA
ATOM      8  N   UNL     1      -5.473   2.030  24.461  0.00  0.00    -0.308 N 
ATOM     22  C   UNL     1      -6.096   2.260  25.682  0.00  0.00    +0.223 C 
ATOM     32  H   UNL     1      -5.466   2.776  23.771  0.00  0.00    +0.149 HD
BRANCH  22  23
ATOM     23  C   UNL     1      -6.646   3.661  25.816  0.00  0.00    +0.165 C 
BRANCH  23   1
ATOM      1  S   UNL     1      -5.336   4.845  25.425  0.00  0.00    -0.140 S 
BRANCH   1  30
ATOM     30  C   UNL     1      -4.014   4.124  26.426  0.00  0.00    +0.189 C 
BRANCH  30  31
ATOM      7  O   UNL     1      -1.647   3.839  26.070  0.00  0.00    -0.250 OA
ATOM     31  C   UNL     1      -2.762   4.024  25.602  0.00  0.00    +0.315 C 
BRANCH  31   6
ATOM      6  O   UNL     1      -3.000   4.149  24.271  0.00  0.00    -0.480 OA
ATOM     33  H   UNL     1      -3.623   3.466  23.945  0.00  0.00    +0.295 HD
ENDBRANCH  31   6
ENDBRANCH  30  31
ENDBRANCH   1  30
ENDBRANCH  23   1
ENDBRANCH  22  23
ENDBRANCH  13   8
ENDBRANCH  14  11
TORSDOF 9
ENDMDL
MODEL 2
REMARK VINA RESULT:       4.2      1.404      2.351
REMARK  Name = 26743428
REMARK  11 active torsions:
REMARK  status: ('A' for Active; 'I' for Inactive)
REMARK    1  A    between atoms: S_1  and  C_23
REMARK    2  A    between atoms: S_1  and  C_30
REMARK    3  A    between atoms: O_6  and  C_31
REMARK    4  A    between atoms: N_8  and  C_13
REMARK    5  A    between atoms: N_9  and  C_21
REMARK    6  A    between atoms: C_11  and  C_14
REMARK    7  A    between atoms: C_17  and  C_19
REMARK    8  A    between atoms: C_18  and  C_20
REMARK    9  A    between atoms: C_22  and  C_23
REMARK   10  A    between atoms: C_28  and  C_29
REMARK   11  A    between atoms: C_30  and  C_31
REMARK                            x       y       z     vdW  Elec       q    Type
REMARK                         _______ _______ _______ _____ _____    ______ ____
ROOT
ATOM      9  N   UNL     1       1.205  -0.283  23.650  0.00  0.00    -0.236 N 
ATOM     10  N   UNL     1       0.539  -1.441  23.800  0.00  0.00    -0.171 NA
ATOM     14  C   UNL     1      -0.888   0.341  23.714  0.00  0.00    +0.003 A 
ATOM     17  C   UNL     1       0.396   0.813  23.594  0.00  0.00    +0.046 A 
ATOM     18  C   UNL     1      -0.739  -1.054  23.838  0.00  0.00    +0.064 A 
ATOM     19  C   UNL     1       0.906   2.191  23.435  0.00  0.00    +0.066 C 
ATOM     20  C   UNL     1      -1.797  -2.066  23.997  0.00  0.00    +0.068 C 
ENDROOT
BRANCH   9  21
ATOM     21  C   UNL     1       2.598  -0.291  23.570  0.00  0.00    +0.066 A 
ATOM     24  C   UNL     1       3.316  -1.405  24.003  0.00  0.00    +0.028 A 
ATOM     25  C   UNL     1       3.272   0.818  23.057  0.00  0.00    +0.028 A 
ATOM     26  C   UNL     1       4.708  -1.410  23.925  0.00  0.00    +0.014 A 
ATOM     27  C   UNL     1       4.665   0.812  22.979  0.00  0.00    +0.014 A 
ATOM     28  C   UNL     1       5.383  -0.302  23.413  0.00  0.00    +0.055 A 
BRANCH  28  29
ATOM      2  F   UNL     1       7.452  -0.990  24.360  0.00  0.00    -0.166 F 
ATOM      3  F   UNL     1       7.355  -0.887  22.191  0.00  0.00    -0.166 F 
ATOM      4  F   UNL     1       7.427   0.939  23.358  0.00  0.00    -0.166 F 
ATOM     29  C   UNL     1       6.871  -0.309  23.330  0.00  0.00    +0.417 C 
ENDBRANCH  28  29
ENDBRANCH   9  21
BRANCH  14  11
ATOM     11  C   UNL     1      -2.171   1.139  23.714  0.00  0.00    +0.047 C 
ATOM     12  C   UNL     1      -2.062   2.467  24.492  0.00  0.00    +0.039 C 
ATOM     13  C   UNL     1      -2.953   3.466  23.743  0.00  0.00    +0.097 C 
ATOM     15  C   UNL     1      -2.625   1.596  22.357  0.00  0.00    -0.021 C 
ATOM     16  C   UNL     1      -3.054   2.863  22.380  0.00  0.00    -0.009 C 
BRANCH  13   8
ATOM      5  O   UNL     1      -3.633   3.938  26.517  0.00  0.00    -0.275 OA
ATOM      8  N   UNL     1      -4.271   3.571  24.311  0.00  0.00    -0.308 N 
ATOM     22  C   UNL     1      -4.505   3.800  25.661  0.00  0.00    +0.223 C 
ATOM     32  H   UNL     1      -5.068   3.427  23.697  0.00  0.00    +0.149 HD
BRANCH  22  23
ATOM     23  C   UNL     1      -5.974   3.851  26.011  0.00  0.00    +0.165 C 
BRANCH  23   1
ATOM      1  S   UNL     1      -6.558   2.170  26.339  0.00  0.00    -0.140 S 
BRANCH   1  30
ATOM     30  C   UNL     1      -6.051   1.401  24.783  0.00  0.00    +0.189 C 
BRANCH  30  31
ATOM      7  O   UNL     1      -4.390   0.244  26.092  0.00  0.00    -0.250 OA
ATOM     31  C   UNL     1      -5.054   0.314  25.066  0.00  0.00    +0.315 C 
BRANCH  31   6
ATOM      6  O   UNL     1      -4.976  -0.598  24.064  0.00  0.00    -0.480 OA
ATOM     33  H   UNL     1      -4.535  -0.231  23.268  0.00  0.00    +0.295 HD
ENDBRANCH  31   6
ENDBRANCH  30  31
ENDBRANCH   1  30
ENDBRANCH  23   1
ENDBRANCH  22  23
ENDBRANCH  13   8
ENDBRANCH  14  11
TORSDOF 9
ENDMDL
MODEL 3
REMARK VINA RESULT:       7.6      1.602      2.348
REMARK  Name = 26743428
REMARK  11 active torsions:
REMARK  status: ('A' for Active; 'I' for Inactive)
REMARK    1  A    between atoms: S_1  and  C_23
REMARK    2  A    between atoms: S_1  and  C_30
REMARK    3  A    between atoms: O_6  and  C_31
REMARK    4  A    between atoms: N_8  and  C_13
REMARK    5  A    between atoms: N_9  and  C_21
REMARK    6  A    between atoms: C_11  and  C_14
REMARK    7  A    between atoms: C_17  and  C_19
REMARK    8  A    between atoms: C_18  and  C_20
REMARK    9  A    between atoms: C_22  and  C_23
REMARK   10  A    between atoms: C_28  and  C_29
REMARK   11  A    between atoms: C_30  and  C_31
REMARK                            x       y       z     vdW  Elec       q    Type
REMARK                         _______ _______ _______ _____ _____    ______ ____
ROOT
ATOM      9  N   UNL     1       1.374   1.025  23.916  0.00  0.00    -0.236 N 
ATOM     10  N   UNL     1       1.115   2.344  23.883  0.00  0.00    -0.171 NA
ATOM     14  C   UNL     1      -0.748   1.136  24.422  0.00  0.00    +0.003 A 
ATOM     17  C   UNL     1       0.292   0.259  24.233  0.00  0.00    +0.046 A 
ATOM     18  C   UNL     1      -0.183   2.405  24.193  0.00  0.00    +0.064 A 
ATOM     19  C   UNL     1       0.340  -1.214  24.326  0.00  0.00    +0.066 C 
ATOM     20  C   UNL     1      -0.850   3.717  24.259  0.00  0.00    +0.068 C 
ENDROOT
BRANCH   9  21
ATOM     21  C   UNL     1       2.662   0.566  23.637  0.00  0.00    +0.066 A 
ATOM     24  C   UNL     1       3.009  -0.754  23.919  0.00  0.00    +0.028 A 
ATOM     25  C   UNL     1       3.603   1.432  23.077  0.00  0.00    +0.028 A 
ATOM     26  C   UNL     1       4.298  -1.210  23.642  0.00  0.00    +0.014 A 
ATOM     27  C   UNL     1       4.892   0.974  22.801  0.00  0.00    +0.014 A 
ATOM     28  C   UNL     1       5.239  -0.346  23.084  0.00  0.00    +0.055 A 
BRANCH  28  29
ATOM      2  F   UNL     1       6.795  -2.143  23.134  0.00  0.00    -0.166 F 
ATOM      3  F   UNL     1       6.955  -0.757  21.468  0.00  0.00    -0.166 F 
ATOM      4  F   UNL     1       7.595  -0.146  23.448  0.00  0.00    -0.166 F 
ATOM     29  C   UNL     1       6.616  -0.835  22.789  0.00  0.00    +0.417 C 
ENDBRANCH  28  29
ENDBRANCH   9  21
BRANCH  14  11
ATOM     11  C   UNL     1      -2.177   0.810  24.791  0.00  0.00    +0.047 C 
ATOM     12  C   UNL     1      -3.065   0.496  23.569  0.00  0.00    +0.039 C 
ATOM     13  C   UNL     1      -4.058  -0.575  24.037  0.00  0.00    +0.097 C 
ATOM     15  C   UNL     1      -2.341  -0.421  25.635  0.00  0.00    -0.021 C 
ATOM     16  C   UNL     1      -3.370  -1.170  25.222  0.00  0.00    -0.009 C 
BRANCH  13   8
ATOM      5  O   UNL     1      -4.965   2.155  23.712  0.00  0.00    -0.275 OA
ATOM      8  N   UNL     1      -5.319  -0.021  24.453  0.00  0.00    -0.308 N 
ATOM     22  C   UNL     1      -5.673   1.308  24.255  0.00  0.00    +0.223 C 
ATOM     32  H   UNL     1      -5.964  -0.626  24.954  0.00  0.00    +0.149 HD
BRANCH  22  23
ATOM     23  C   UNL     1      -7.042   1.648  24.797  0.00  0.00    +0.165 C 
BRANCH  23   1
ATOM      1  S   UNL     1      -6.887   2.106  26.540  0.00  0.00    -0.140 S 
BRANCH   1  30
ATOM     30  C   UNL     1      -5.240   2.849  26.476  0.00  0.00    +0.189 C 
BRANCH  30  31
ATOM      7  O   UNL     1      -6.266   4.902  25.736  0.00  0.00    -0.250 OA
ATOM     31  C   UNL     1      -5.305   4.143  25.715  0.00  0.00    +0.315 C 
BRANCH  31   6
ATOM      6  O   UNL     1      -4.174   4.392  25.008  0.00  0.00    -0.480 OA
ATOM     33  H   UNL     1      -3.483   3.715  25.171  0.00  0.00    +0.295 HD
ENDBRANCH  31   6
ENDBRANCH  30  31
ENDBRANCH   1  30
ENDBRANCH  23   1
ENDBRANCH  22  23
ENDBRANCH  13   8
ENDBRANCH  14  11
TORSDOF 9
ENDMDL
