MODEL 1
REMARK VINA RESULT:      -1.1      0.000      0.000
REMARK  Name = 51137436
REMARK  4 active torsions:
REMARK  status: ('A' for Active; 'I' for Inactive)
REMARK    1  A    between atoms: N_3  and  C_6
REMARK    2  A    between atoms: C_7  and  C_15
REMARK    3  A    between atoms: C_16  and  C_17
REMARK    4  A    between atoms: C_22  and  C_23
REMARK                            x       y       z     vdW  Elec       q    Type
REMARK                         _______ _______ _______ _____ _____    ______ ____
ROOT
ATOM      2  O   UNL     1      -5.236 -10.180  13.067  0.00  0.00    -0.420 OA
ATOM      4  N   UNL     1      -6.255  -9.133  11.375  0.00  0.00    -0.112 NA
ATOM      5  N   UNL     1      -7.100  -9.099  12.468  0.00  0.00    -0.107 NA
ATOM     15  C   UNL     1      -5.180  -9.774  11.771  0.00  0.00    +0.222 A 
ATOM     16  C   UNL     1      -6.464  -9.722  13.432  0.00  0.00    +0.248 A 
ENDROOT
BRANCH  16  17
ATOM     17  C   UNL     1      -6.857  -9.988  14.786  0.00  0.00    +0.038 A 
ATOM     18  C   UNL     1      -5.886 -10.145  15.775  0.00  0.00    +0.013 A 
ATOM     19  C   UNL     1      -8.209 -10.088  15.114  0.00  0.00    +0.013 A 
ATOM     20  C   UNL     1      -6.268 -10.404  17.092  0.00  0.00    +0.004 A 
ATOM     21  C   UNL     1      -8.590 -10.346  16.430  0.00  0.00    +0.004 A 
ATOM     22  C   UNL     1      -7.619 -10.504  17.419  0.00  0.00    -0.050 A 
ATOM     23  C   UNL     1      -8.026 -10.781  18.827  0.00  0.00    +0.044 C 
ENDBRANCH  16  17
BRANCH  15   7
ATOM      3  N   UNL     1      -1.627  -9.646  10.884  0.00  0.00    -0.298 NA
ATOM      7  C   UNL     1      -3.922 -10.111  11.002  0.00  0.00    +0.092 C 
ATOM      8  C   UNL     1      -2.654 -10.015  11.860  0.00  0.00    +0.097 C 
ATOM      9  C   UNL     1      -2.255  -8.629  10.042  0.00  0.00    +0.085 C 
ATOM     10  C   UNL     1      -3.642  -9.205   9.791  0.00  0.00    +0.029 C 
BRANCH   3   6
ATOM      1  O   UNL     1       1.486  -7.033  11.935  0.00  0.00    -0.380 OA
ATOM      6  C   UNL     1      -0.401  -9.166  11.518  0.00  0.00    +0.061 C 
ATOM     11  C   UNL     1      -0.689  -7.986  12.450  0.00  0.00    +0.047 C 
ATOM     12  C   UNL     1       0.623  -8.757  10.455  0.00  0.00    +0.047 C 
ATOM     13  C   UNL     1       0.613  -7.413  12.999  0.00  0.00    +0.161 C 
ATOM     14  C   UNL     1       1.853  -8.142  11.114  0.00  0.00    +0.161 C 
ENDBRANCH   3   6
ENDBRANCH  15   7
TORSDOF 3
ENDMDL
MODEL 2
REMARK VINA RESULT:      -0.0     14.311     15.682
REMARK  Name = 51137436
REMARK  4 active torsions:
REMARK  status: ('A' for Active; 'I' for Inactive)
REMARK    1  A    between atoms: N_3  and  C_6
REMARK    2  A    between atoms: C_7  and  C_15
REMARK    3  A    between atoms: C_16  and  C_17
REMARK    4  A    between atoms: C_22  and  C_23
REMARK                            x       y       z     vdW  Elec       q    Type
REMARK                         _______ _______ _______ _____ _____    ______ ____
ROOT
ATOM      2  O   UNL     1      -2.010   0.336  24.143  0.00  0.00    -0.420 OA
ATOM      4  N   UNL     1      -2.107  -1.655  25.157  0.00  0.00    -0.112 NA
ATOM      5  N   UNL     1      -3.123  -0.866  25.665  0.00  0.00    -0.107 NA
ATOM     15  C   UNL     1      -1.484  -0.912  24.272  0.00  0.00    +0.222 A 
ATOM     16  C   UNL     1      -3.028   0.285  25.044  0.00  0.00    +0.248 A 
ENDROOT
BRANCH  16  17
ATOM     17  C   UNL     1      -3.817   1.477  25.167  0.00  0.00    +0.038 A 
ATOM     18  C   UNL     1      -3.201   2.728  25.132  0.00  0.00    +0.013 A 
ATOM     19  C   UNL     1      -5.201   1.385  25.320  0.00  0.00    +0.013 A 
ATOM     20  C   UNL     1      -3.968   3.887  25.251  0.00  0.00    +0.004 A 
ATOM     21  C   UNL     1      -5.967   2.544  25.439  0.00  0.00    +0.004 A 
ATOM     22  C   UNL     1      -5.351   3.795  25.404  0.00  0.00    -0.050 A 
ATOM     23  C   UNL     1      -6.171   5.034  25.532  0.00  0.00    +0.044 C 
ENDBRANCH  16  17
BRANCH  15   7
ATOM      3  N   UNL     1       1.991  -0.806  23.114  0.00  0.00    -0.298 NA
ATOM      7  C   UNL     1      -0.295  -1.246  23.401  0.00  0.00    +0.092 C 
ATOM      8  C   UNL     1       1.038  -1.184  24.160  0.00  0.00    +0.097 C 
ATOM      9  C   UNL     1       1.312   0.237  22.345  0.00  0.00    +0.085 C 
ATOM     10  C   UNL     1      -0.098  -0.318  22.191  0.00  0.00    +0.029 C 
BRANCH   3   6
ATOM      1  O   UNL     1       6.115  -0.064  23.356  0.00  0.00    -0.380 OA
ATOM      6  C   UNL     1       3.268  -0.353  23.661  0.00  0.00    +0.061 C 
ATOM     11  C   UNL     1       3.893   0.729  22.776  0.00  0.00    +0.047 C 
ATOM     12  C   UNL     1       4.233  -1.534  23.806  0.00  0.00    +0.047 C 
ATOM     13  C   UNL     1       5.283   1.093  23.286  0.00  0.00    +0.161 C 
ATOM     14  C   UNL     1       5.604  -1.044  24.260  0.00  0.00    +0.161 C 
ENDBRANCH   3   6
ENDBRANCH  15   7
TORSDOF 3
ENDMDL
MODEL 3
REMARK VINA RESULT:       0.5     15.172     17.441
REMARK  Name = 51137436
REMARK  4 active torsions:
REMARK  status: ('A' for Active; 'I' for Inactive)
REMARK    1  A    between atoms: N_3  and  C_6
REMARK    2  A    between atoms: C_7  and  C_15
REMARK    3  A    between atoms: C_16  and  C_17
REMARK    4  A    between atoms: C_22  and  C_23
REMARK                            x       y       z     vdW  Elec       q    Type
REMARK                         _______ _______ _______ _____ _____    ______ ____
ROOT
ATOM      2  O   UNL     1       0.882   1.233  23.332  0.00  0.00    -0.420 OA
ATOM      4  N   UNL     1      -0.734  -0.254  23.753  0.00  0.00    -0.112 NA
ATOM      5  N   UNL     1       0.477  -0.920  23.781  0.00  0.00    -0.107 NA
ATOM     15  C   UNL     1      -0.449   1.000  23.487  0.00  0.00    +0.222 A 
ATOM     16  C   UNL     1       1.391  -0.013  23.530  0.00  0.00    +0.248 A 
ENDROOT
BRANCH  16  17
ATOM     17  C   UNL     1       2.818  -0.131  23.435  0.00  0.00    +0.038 A 
ATOM     18  C   UNL     1       3.573   0.932  22.940  0.00  0.00    +0.013 A 
ATOM     19  C   UNL     1       3.449  -1.308  23.840  0.00  0.00    +0.013 A 
ATOM     20  C   UNL     1       4.961   0.817  22.848  0.00  0.00    +0.004 A 
ATOM     21  C   UNL     1       4.836  -1.421  23.748  0.00  0.00    +0.004 A 
ATOM     22  C   UNL     1       5.592  -0.359  23.252  0.00  0.00    -0.050 A 
ATOM     23  C   UNL     1       7.075  -0.481  23.152  0.00  0.00    +0.044 C 
ENDBRANCH  16  17
BRANCH  15   7
ATOM      3  N   UNL     1      -3.574   2.899  23.721  0.00  0.00    -0.298 NA
ATOM      7  C   UNL     1      -1.373   2.186  23.335  0.00  0.00    +0.092 C 
ATOM      8  C   UNL     1      -2.467   2.233  24.411  0.00  0.00    +0.097 C 
ATOM      9  C   UNL     1      -3.608   2.292  22.391  0.00  0.00    +0.085 C 
ATOM     10  C   UNL     1      -2.136   2.245  22.001  0.00  0.00    +0.029 C 
BRANCH   3   6
ATOM      1  O   UNL     1      -6.243   2.296  26.905  0.00  0.00    -0.380 OA
ATOM      6  C   UNL     1      -4.842   2.753  24.432  0.00  0.00    +0.061 C 
ATOM     11  C   UNL     1      -5.004   3.842  25.497  0.00  0.00    +0.047 C 
ATOM     12  C   UNL     1      -4.933   1.368  25.080  0.00  0.00    +0.047 C 
ATOM     13  C   UNL     1      -6.266   3.597  26.318  0.00  0.00    +0.161 C 
ATOM     14  C   UNL     1      -6.199   1.260  25.923  0.00  0.00    +0.161 C 
ENDBRANCH   3   6
ENDBRANCH  15   7
TORSDOF 3
ENDMDL
MODEL 4
REMARK VINA RESULT:       0.9     14.481     17.317
REMARK  Name = 51137436
REMARK  4 active torsions:
REMARK  status: ('A' for Active; 'I' for Inactive)
REMARK    1  A    between atoms: N_3  and  C_6
REMARK    2  A    between atoms: C_7  and  C_15
REMARK    3  A    between atoms: C_16  and  C_17
REMARK    4  A    between atoms: C_22  and  C_23
REMARK                            x       y       z     vdW  Elec       q    Type
REMARK                         _______ _______ _______ _____ _____    ______ ____
ROOT
ATOM      2  O   UNL     1       1.049  -0.457  23.891  0.00  0.00    -0.420 OA
ATOM      4  N   UNL     1      -0.111  -0.445  21.979  0.00  0.00    -0.112 NA
ATOM      5  N   UNL     1       1.233  -0.354  21.664  0.00  0.00    -0.107 NA
ATOM     15  C   UNL     1      -0.170  -0.502  23.289  0.00  0.00    +0.222 A 
ATOM     16  C   UNL     1       1.871  -0.365  22.811  0.00  0.00    +0.248 A 
ENDROOT
BRANCH  16  17
ATOM     17  C   UNL     1       3.275  -0.296  23.095  0.00  0.00    +0.038 A 
ATOM     18  C   UNL     1       3.991   0.863  22.795  0.00  0.00    +0.013 A 
ATOM     19  C   UNL     1       3.925  -1.388  23.672  0.00  0.00    +0.013 A 
ATOM     20  C   UNL     1       5.357   0.929  23.072  0.00  0.00    +0.004 A 
ATOM     21  C   UNL     1       5.289  -1.320  23.949  0.00  0.00    +0.004 A 
ATOM     22  C   UNL     1       6.006  -0.162  23.649  0.00  0.00    -0.050 A 
ATOM     23  C   UNL     1       7.466  -0.089  23.944  0.00  0.00    +0.044 C 
ENDBRANCH  16  17
BRANCH  15   7
ATOM      3  N   UNL     1      -3.258   0.571  24.944  0.00  0.00    -0.298 NA
ATOM      7  C   UNL     1      -1.376  -0.610  24.194  0.00  0.00    +0.092 C 
ATOM      8  C   UNL     1      -2.570   0.219  23.701  0.00  0.00    +0.097 C 
ATOM      9  C   UNL     1      -2.192   0.944  25.873  0.00  0.00    +0.085 C 
ATOM     10  C   UNL     1      -1.145  -0.138  25.639  0.00  0.00    +0.029 C 
BRANCH   3   6
ATOM      1  O   UNL     1      -5.837   3.743  25.899  0.00  0.00    -0.380 OA
ATOM      6  C   UNL     1      -4.233   1.643  24.757  0.00  0.00    +0.061 C 
ATOM     11  C   UNL     1      -3.646   2.999  25.159  0.00  0.00    +0.047 C 
ATOM     12  C   UNL     1      -5.499   1.359  25.571  0.00  0.00    +0.047 C 
ATOM     13  C   UNL     1      -4.715   4.084  25.085  0.00  0.00    +0.161 C 
ATOM     14  C   UNL     1      -6.466   2.534  25.475  0.00  0.00    +0.161 C 
ENDBRANCH   3   6
ENDBRANCH  15   7
TORSDOF 3
ENDMDL
MODEL 5
REMARK VINA RESULT:       1.5     14.413     17.062
REMARK  Name = 51137436
REMARK  4 active torsions:
REMARK  status: ('A' for Active; 'I' for Inactive)
REMARK    1  A    between atoms: N_3  and  C_6
REMARK    2  A    between atoms: C_7  and  C_15
REMARK    3  A    between atoms: C_16  and  C_17
REMARK    4  A    between atoms: C_22  and  C_23
REMARK                            x       y       z     vdW  Elec       q    Type
REMARK                         _______ _______ _______ _____ _____    ______ ____
ROOT
ATOM      2  O   UNL     1      -0.294  -0.521  23.571  0.00  0.00    -0.420 OA
ATOM      4  N   UNL     1      -1.119  -2.097  24.925  0.00  0.00    -0.112 NA
ATOM      5  N   UNL     1       0.260  -2.175  24.969  0.00  0.00    -0.107 NA
ATOM     15  C   UNL     1      -1.398  -1.118  24.096  0.00  0.00    +0.222 A 
ATOM     16  C   UNL     1       0.699  -1.237  24.164  0.00  0.00    +0.248 A 
ENDROOT
BRANCH  16  17
ATOM     17  C   UNL     1       2.038  -0.857  23.819  0.00  0.00    +0.038 A 
ATOM     18  C   UNL     1       2.275   0.359  23.179  0.00  0.00    +0.013 A 
ATOM     19  C   UNL     1       3.105  -1.703  24.126  0.00  0.00    +0.013 A 
ATOM     20  C   UNL     1       3.578   0.729  22.844  0.00  0.00    +0.004 A 
ATOM     21  C   UNL     1       4.407  -1.333  23.792  0.00  0.00    +0.004 A 
ATOM     22  C   UNL     1       4.643  -0.117  23.150  0.00  0.00    -0.050 A 
ATOM     23  C   UNL     1       6.036   0.279  22.792  0.00  0.00    +0.044 C 
ENDBRANCH  16  17
BRANCH  15   7
ATOM      3  N   UNL     1      -4.216   1.221  23.958  0.00  0.00    -0.298 NA
ATOM      7  C   UNL     1      -2.741  -0.578  23.660  0.00  0.00    +0.092 C 
ATOM      8  C   UNL     1      -2.803   0.955  23.677  0.00  0.00    +0.097 C 
ATOM      9  C   UNL     1      -4.577   0.267  25.006  0.00  0.00    +0.085 C 
ATOM     10  C   UNL     1      -3.930  -1.026  24.527  0.00  0.00    +0.029 C 
BRANCH   3   6
ATOM      1  O   UNL     1      -4.668   4.561  26.460  0.00  0.00    -0.380 OA
ATOM      6  C   UNL     1      -4.454   2.605  24.359  0.00  0.00    +0.061 C 
ATOM     11  C   UNL     1      -3.226   3.195  25.060  0.00  0.00    +0.047 C 
ATOM     12  C   UNL     1      -5.675   2.691  25.280  0.00  0.00    +0.047 C 
ATOM     13  C   UNL     1      -3.537   4.591  25.589  0.00  0.00    +0.161 C 
ATOM     14  C   UNL     1      -5.850   4.115  25.796  0.00  0.00    +0.161 C 
ENDBRANCH   3   6
ENDBRANCH  15   7
TORSDOF 3
ENDMDL
MODEL 6
REMARK VINA RESULT:       2.3      0.952      1.434
REMARK  Name = 51137436
REMARK  4 active torsions:
REMARK  status: ('A' for Active; 'I' for Inactive)
REMARK    1  A    between atoms: N_3  and  C_6
REMARK    2  A    between atoms: C_7  and  C_15
REMARK    3  A    between atoms: C_16  and  C_17
REMARK    4  A    between atoms: C_22  and  C_23
REMARK                            x       y       z     vdW  Elec       q    Type
REMARK                         _______ _______ _______ _____ _____    ______ ____
ROOT
ATOM      2  O   UNL     1      -4.870 -10.073  12.672  0.00  0.00    -0.420 OA
ATOM      4  N   UNL     1      -5.211  -8.663  10.970  0.00  0.00    -0.112 NA
ATOM      5  N   UNL     1      -6.307  -8.592  11.810  0.00  0.00    -0.107 NA
ATOM     15  C   UNL     1      -4.399  -9.540  11.513  0.00  0.00    +0.222 A 
ATOM     16  C   UNL     1      -6.064  -9.431  12.788  0.00  0.00    +0.248 A 
ENDROOT
BRANCH  16  17
ATOM     17  C   UNL     1      -6.849  -9.770  13.941  0.00  0.00    +0.038 A 
ATOM     18  C   UNL     1      -8.220  -9.514  13.950  0.00  0.00    +0.013 A 
ATOM     19  C   UNL     1      -6.240 -10.355  15.052  0.00  0.00    +0.013 A 
ATOM     20  C   UNL     1      -8.983  -9.844  15.070  0.00  0.00    +0.004 A 
ATOM     21  C   UNL     1      -7.004 -10.685  16.171  0.00  0.00    +0.004 A 
ATOM     22  C   UNL     1      -8.375 -10.429  16.181  0.00  0.00    -0.050 A 
ATOM     23  C   UNL     1      -9.191 -10.780  17.379  0.00  0.00    +0.044 C 
ENDBRANCH  16  17
BRANCH  15   7
ATOM      3  N   UNL     1      -0.759  -9.512  11.088  0.00  0.00    -0.298 NA
ATOM      7  C   UNL     1      -3.047 -10.023  11.038  0.00  0.00    +0.092 C 
ATOM      8  C   UNL     1      -1.906  -9.638  11.989  0.00  0.00    +0.097 C 
ATOM      9  C   UNL     1      -1.273  -8.797   9.920  0.00  0.00    +0.085 C 
ATOM     10  C   UNL     1      -2.611  -9.479   9.666  0.00  0.00    +0.029 C 
BRANCH   3   6
ATOM      1  O   UNL     1       2.113  -6.536  11.803  0.00  0.00    -0.380 OA
ATOM      6  C   UNL     1       0.367  -8.822  11.712  0.00  0.00    +0.061 C 
ATOM     11  C   UNL     1      -0.069  -7.479  12.304  0.00  0.00    +0.047 C 
ATOM     12  C   UNL     1       1.490  -8.605  10.694  0.00  0.00    +0.047 C 
ATOM     13  C   UNL     1       1.139  -6.713  12.832  0.00  0.00    +0.161 C 
ATOM     14  C   UNL     1       2.613  -7.778  11.311  0.00  0.00    +0.161 C 
ENDBRANCH   3   6
ENDBRANCH  15   7
TORSDOF 3
ENDMDL
