MODEL 1
REMARK VINA RESULT:      -5.6      0.000      0.000
REMARK  Name = 71694382
REMARK  8 active torsions:
REMARK  status: ('A' for Active; 'I' for Inactive)
REMARK    1  A    between atoms: O_3  and  C_21
REMARK    2  A    between atoms: N_4  and  C_7
REMARK    3  A    between atoms: N_4  and  C_8
REMARK    4  A    between atoms: N_5  and  C_17
REMARK    5  A    between atoms: C_7  and  C_11
REMARK    6  A    between atoms: C_11  and  C_16
REMARK    7  A    between atoms: C_19  and  C_20
REMARK    8  A    between atoms: C_20  and  C_21
REMARK                            x       y       z     vdW  Elec       q    Type
REMARK                         _______ _______ _______ _____ _____    ______ ____
ROOT
ATOM      1  O   UNL     1      -3.298  -2.905  25.235  0.00  0.00    -0.376 OA
ATOM      7  C   UNL     1      -2.577  -0.911  24.975  0.00  0.00    +0.072 C 
ATOM      9  C   UNL     1      -2.445  -2.260  24.253  0.00  0.00    +0.184 C 
ATOM     10  C   UNL     1      -3.681  -1.613  25.777  0.00  0.00    +0.184 C 
ENDROOT
BRANCH   7   4
ATOM      4  N   UNL     1      -3.202   0.046  24.057  0.00  0.00    -0.304 NA
ATOM     22  H   UNL     1      -2.569   0.347  23.315  0.00  0.00    +0.123 HD
BRANCH   4   8
ATOM      5  N   UNL     1      -5.313   3.617  24.983  0.00  0.00    -0.305 NA
ATOM      8  C   UNL     1      -3.645   1.218  24.808  0.00  0.00    +0.057 C 
ATOM     12  C   UNL     1      -3.299   2.510  24.062  0.00  0.00    +0.034 C 
ATOM     13  C   UNL     1      -5.154   1.148  25.058  0.00  0.00    +0.034 C 
ATOM     14  C   UNL     1      -3.859   3.733  24.793  0.00  0.00    +0.085 C 
ATOM     15  C   UNL     1      -5.654   2.415  25.757  0.00  0.00    +0.085 C 
ATOM     17  C   UNL     1      -5.840   4.814  25.637  0.00  0.00    +0.104 C 
ENDBRANCH   4   8
ENDBRANCH   7   4
BRANCH   7  11
ATOM     11  C   UNL     1      -1.381  -0.347  25.698  0.00  0.00    +0.085 C 
BRANCH  11  16
ATOM      2  O   UNL     1       0.996   1.413  23.628  0.00  0.00    -0.359 OA
ATOM      6  N   UNL     1       0.006   1.372  24.602  0.00  0.00    -0.083 NA
ATOM     16  C   UNL     1      -0.318   0.080  24.712  0.00  0.00    +0.086 A 
ATOM     18  C   UNL     1       0.427  -0.733  23.841  0.00  0.00    +0.071 A 
ATOM     19  C   UNL     1       1.237   0.154  23.182  0.00  0.00    +0.140 A 
BRANCH  19  20
ATOM     20  C   UNL     1       2.264   0.012  22.142  0.00  0.00    +0.105 C 
BRANCH  20  21
ATOM     21  C   UNL     1       3.529   0.854  22.400  0.00  0.00    +0.163 C 
BRANCH  21   3
ATOM      3  O   UNL     1       4.036   0.558  23.695  0.00  0.00    -0.395 OA
ATOM     23  H   UNL     1       4.894   0.119  23.570  0.00  0.00    +0.209 HD
ENDBRANCH  21   3
ENDBRANCH  20  21
ENDBRANCH  19  20
ENDBRANCH  11  16
ENDBRANCH   7  11
TORSDOF 7
ENDMDL
MODEL 2
REMARK VINA RESULT:      -4.9      1.389      2.126
REMARK  Name = 71694382
REMARK  8 active torsions:
REMARK  status: ('A' for Active; 'I' for Inactive)
REMARK    1  A    between atoms: O_3  and  C_21
REMARK    2  A    between atoms: N_4  and  C_7
REMARK    3  A    between atoms: N_4  and  C_8
REMARK    4  A    between atoms: N_5  and  C_17
REMARK    5  A    between atoms: C_7  and  C_11
REMARK    6  A    between atoms: C_11  and  C_16
REMARK    7  A    between atoms: C_19  and  C_20
REMARK    8  A    between atoms: C_20  and  C_21
REMARK                            x       y       z     vdW  Elec       q    Type
REMARK                         _______ _______ _______ _____ _____    ______ ____
ROOT
ATOM      1  O   UNL     1      -1.406  -2.582  24.967  0.00  0.00    -0.376 OA
ATOM      7  C   UNL     1      -1.080  -0.516  24.531  0.00  0.00    +0.072 C 
ATOM      9  C   UNL     1      -2.279  -1.468  24.641  0.00  0.00    +0.184 C 
ATOM     10  C   UNL     1      -0.290  -1.673  25.156  0.00  0.00    +0.184 C 
ENDROOT
BRANCH   7   4
ATOM      4  N   UNL     1      -1.234   0.541  25.535  0.00  0.00    -0.304 NA
ATOM     22  H   UNL     1      -1.527   0.178  26.442  0.00  0.00    +0.123 HD
BRANCH   4   8
ATOM      5  N   UNL     1      -4.457   3.310  25.651  0.00  0.00    -0.305 NA
ATOM      8  C   UNL     1      -2.223   1.510  25.069  0.00  0.00    +0.057 C 
ATOM     12  C   UNL     1      -3.647   0.997  25.304  0.00  0.00    +0.034 C 
ATOM     13  C   UNL     1      -2.028   2.851  25.782  0.00  0.00    +0.034 C 
ATOM     14  C   UNL     1      -4.683   2.056  24.918  0.00  0.00    +0.085 C 
ATOM     15  C   UNL     1      -3.117   3.849  25.381  0.00  0.00    +0.085 C 
ATOM     17  C   UNL     1      -5.484   4.294  25.310  0.00  0.00    +0.104 C 
ENDBRANCH   4   8
ENDBRANCH   7   4
BRANCH   7  11
ATOM     11  C   UNL     1      -0.681   0.006  23.174  0.00  0.00    +0.085 C 
BRANCH  11  16
ATOM      2  O   UNL     1       2.553   1.546  23.629  0.00  0.00    -0.359 OA
ATOM      6  N   UNL     1       1.182   1.477  23.845  0.00  0.00    -0.083 NA
ATOM     16  C   UNL     1       0.779   0.398  23.166  0.00  0.00    +0.086 A 
ATOM     18  C   UNL     1       1.841  -0.246  22.508  0.00  0.00    +0.071 A 
ATOM     19  C   UNL     1       2.933   0.515  22.832  0.00  0.00    +0.140 A 
BRANCH  19  20
ATOM     20  C   UNL     1       4.361   0.435  22.500  0.00  0.00    +0.105 C 
BRANCH  20  21
ATOM     21  C   UNL     1       5.261   0.111  23.708  0.00  0.00    +0.163 C 
BRANCH  21   3
ATOM      3  O   UNL     1       4.933  -1.180  24.205  0.00  0.00    -0.395 OA
ATOM     23  H   UNL     1       5.772  -1.648  24.357  0.00  0.00    +0.209 HD
ENDBRANCH  21   3
ENDBRANCH  20  21
ENDBRANCH  19  20
ENDBRANCH  11  16
ENDBRANCH   7  11
TORSDOF 7
ENDMDL
MODEL 3
REMARK VINA RESULT:      -4.6      1.838      2.697
REMARK  Name = 71694382
REMARK  8 active torsions:
REMARK  status: ('A' for Active; 'I' for Inactive)
REMARK    1  A    between atoms: O_3  and  C_21
REMARK    2  A    between atoms: N_4  and  C_7
REMARK    3  A    between atoms: N_4  and  C_8
REMARK    4  A    between atoms: N_5  and  C_17
REMARK    5  A    between atoms: C_7  and  C_11
REMARK    6  A    between atoms: C_11  and  C_16
REMARK    7  A    between atoms: C_19  and  C_20
REMARK    8  A    between atoms: C_20  and  C_21
REMARK                            x       y       z     vdW  Elec       q    Type
REMARK                         _______ _______ _______ _____ _____    ______ ____
ROOT
ATOM      1  O   UNL     1      -3.598  -2.950  25.638  0.00  0.00    -0.376 OA
ATOM      7  C   UNL     1      -2.478  -1.489  24.551  0.00  0.00    +0.072 C 
ATOM      9  C   UNL     1      -3.098  -2.867  24.276  0.00  0.00    +0.184 C 
ATOM     10  C   UNL     1      -3.285  -1.548  25.855  0.00  0.00    +0.184 C 
ENDROOT
BRANCH   7   4
ATOM      4  N   UNL     1      -3.106  -0.513  23.656  0.00  0.00    -0.304 NA
ATOM     22  H   UNL     1      -2.487  -0.222  22.899  0.00  0.00    +0.123 HD
BRANCH   4   8
ATOM      5  N   UNL     1      -5.302   2.940  24.806  0.00  0.00    -0.305 NA
ATOM      8  C   UNL     1      -3.500   0.665  24.426  0.00  0.00    +0.057 C 
ATOM     12  C   UNL     1      -3.405   1.934  23.574  0.00  0.00    +0.034 C 
ATOM     13  C   UNL     1      -4.927   0.497  24.956  0.00  0.00    +0.034 C 
ATOM     14  C   UNL     1      -3.923   3.151  24.344  0.00  0.00    +0.085 C 
ATOM     15  C   UNL     1      -5.395   1.762  25.680  0.00  0.00    +0.085 C 
ATOM     17  C   UNL     1      -5.799   4.130  25.495  0.00  0.00    +0.104 C 
ENDBRANCH   4   8
ENDBRANCH   7   4
BRANCH   7  11
ATOM     11  C   UNL     1      -0.978  -1.361  24.614  0.00  0.00    +0.085 C 
BRANCH  11  16
ATOM      2  O   UNL     1       0.247   1.958  23.898  0.00  0.00    -0.359 OA
ATOM      6  N   UNL     1       0.010   0.634  23.553  0.00  0.00    -0.083 NA
ATOM     16  C   UNL     1      -0.570   0.094  24.629  0.00  0.00    +0.086 A 
ATOM     18  C   UNL     1      -0.723   1.021  25.675  0.00  0.00    +0.071 A 
ATOM     19  C   UNL     1      -0.193   2.176  25.164  0.00  0.00    +0.140 A 
BRANCH  19  20
ATOM     20  C   UNL     1      -0.019   3.535  25.693  0.00  0.00    +0.105 C 
BRANCH  20  21
ATOM     21  C   UNL     1      -0.540   4.639  24.753  0.00  0.00    +0.163 C 
BRANCH  21   3
ATOM      3  O   UNL     1      -1.615   5.324  25.382  0.00  0.00    -0.395 OA
ATOM     23  H   UNL     1      -2.425   5.085  24.901  0.00  0.00    +0.209 HD
ENDBRANCH  21   3
ENDBRANCH  20  21
ENDBRANCH  19  20
ENDBRANCH  11  16
ENDBRANCH   7  11
TORSDOF 7
ENDMDL
MODEL 4
REMARK VINA RESULT:      -4.4      2.143      4.509
REMARK  Name = 71694382
REMARK  8 active torsions:
REMARK  status: ('A' for Active; 'I' for Inactive)
REMARK    1  A    between atoms: O_3  and  C_21
REMARK    2  A    between atoms: N_4  and  C_7
REMARK    3  A    between atoms: N_4  and  C_8
REMARK    4  A    between atoms: N_5  and  C_17
REMARK    5  A    between atoms: C_7  and  C_11
REMARK    6  A    between atoms: C_11  and  C_16
REMARK    7  A    between atoms: C_19  and  C_20
REMARK    8  A    between atoms: C_20  and  C_21
REMARK                            x       y       z     vdW  Elec       q    Type
REMARK                         _______ _______ _______ _____ _____    ______ ____
ROOT
ATOM      1  O   UNL     1      -0.465   5.592  24.623  0.00  0.00    -0.376 OA
ATOM      7  C   UNL     1      -0.814   3.484  24.647  0.00  0.00    +0.072 C 
ATOM      9  C   UNL     1      -1.366   4.725  25.362  0.00  0.00    +0.184 C 
ATOM     10  C   UNL     1      -0.123   4.500  23.729  0.00  0.00    +0.184 C 
ENDROOT
BRANCH   7   4
ATOM      4  N   UNL     1      -1.909   2.853  23.905  0.00  0.00    -0.304 NA
ATOM     22  H   UNL     1      -2.305   3.468  23.194  0.00  0.00    +0.123 HD
BRANCH   4   8
ATOM      5  N   UNL     1      -5.808   2.048  25.395  0.00  0.00    -0.305 NA
ATOM      8  C   UNL     1      -2.965   2.465  24.837  0.00  0.00    +0.057 C 
ATOM     12  C   UNL     1      -3.927   3.628  25.092  0.00  0.00    +0.034 C 
ATOM     13  C   UNL     1      -3.737   1.259  24.292  0.00  0.00    +0.034 C 
ATOM     14  C   UNL     1      -5.094   3.191  25.981  0.00  0.00    +0.085 C 
ATOM     15  C   UNL     1      -4.910   0.900  25.207  0.00  0.00    +0.085 C 
ATOM     17  C   UNL     1      -6.949   1.675  26.230  0.00  0.00    +0.104 C 
ENDBRANCH   4   8
ENDBRANCH   7   4
BRANCH   7  11
ATOM     11  C   UNL     1       0.022   2.501  25.426  0.00  0.00    +0.085 C 
BRANCH  11  16
ATOM      2  O   UNL     1      -0.152  -0.604  23.591  0.00  0.00    -0.359 OA
ATOM      6  N   UNL     1       0.228   0.726  23.726  0.00  0.00    -0.083 NA
ATOM     16  C   UNL     1      -0.218   1.093  24.932  0.00  0.00    +0.086 A 
ATOM     18  C   UNL     1      -0.882   0.047  25.596  0.00  0.00    +0.071 A 
ATOM     19  C   UNL     1      -0.813  -0.996  24.711  0.00  0.00    +0.140 A 
BRANCH  19  20
ATOM     20  C   UNL     1      -1.290  -2.384  24.737  0.00  0.00    +0.105 C 
BRANCH  20  21
ATOM     21  C   UNL     1      -2.781  -2.536  24.380  0.00  0.00    +0.163 C 
BRANCH  21   3
ATOM      3  O   UNL     1      -3.569  -2.296  25.539  0.00  0.00    -0.395 OA
ATOM     23  H   UNL     1      -4.002  -1.435  25.415  0.00  0.00    +0.209 HD
ENDBRANCH  21   3
ENDBRANCH  20  21
ENDBRANCH  19  20
ENDBRANCH  11  16
ENDBRANCH   7  11
TORSDOF 7
ENDMDL
MODEL 5
REMARK VINA RESULT:      -4.2      2.455      6.141
REMARK  Name = 71694382
REMARK  8 active torsions:
REMARK  status: ('A' for Active; 'I' for Inactive)
REMARK    1  A    between atoms: O_3  and  C_21
REMARK    2  A    between atoms: N_4  and  C_7
REMARK    3  A    between atoms: N_4  and  C_8
REMARK    4  A    between atoms: N_5  and  C_17
REMARK    5  A    between atoms: C_7  and  C_11
REMARK    6  A    between atoms: C_11  and  C_16
REMARK    7  A    between atoms: C_19  and  C_20
REMARK    8  A    between atoms: C_20  and  C_21
REMARK                            x       y       z     vdW  Elec       q    Type
REMARK                         _______ _______ _______ _____ _____    ______ ____
ROOT
ATOM      1  O   UNL     1       1.313   0.937  23.121  0.00  0.00    -0.376 OA
ATOM      7  C   UNL     1      -0.229   1.824  24.304  0.00  0.00    +0.072 C 
ATOM      9  C   UNL     1      -0.135   0.981  23.025  0.00  0.00    +0.184 C 
ATOM     10  C   UNL     1       1.256   1.477  24.468  0.00  0.00    +0.184 C 
ENDROOT
BRANCH   7   4
ATOM      4  N   UNL     1      -0.998   1.070  25.299  0.00  0.00    -0.304 NA
ATOM     22  H   UNL     1      -0.410   0.686  26.039  0.00  0.00    +0.123 HD
BRANCH   4   8
ATOM      5  N   UNL     1      -3.362  -2.430  24.820  0.00  0.00    -0.305 NA
ATOM      8  C   UNL     1      -1.705  -0.024  24.637  0.00  0.00    +0.057 C 
ATOM     12  C   UNL     1      -1.132  -1.380  25.059  0.00  0.00    +0.034 C 
ATOM     13  C   UNL     1      -3.200   0.036  24.964  0.00  0.00    +0.034 C 
ATOM     14  C   UNL     1      -1.942  -2.530  24.453  0.00  0.00    +0.085 C 
ATOM     15  C   UNL     1      -3.941  -1.159  24.361  0.00  0.00    +0.085 C 
ATOM     17  C   UNL     1      -4.112  -3.561  24.276  0.00  0.00    +0.104 C 
ENDBRANCH   4   8
ENDBRANCH   7   4
BRANCH   7  11
ATOM     11  C   UNL     1      -0.645   3.269  24.200  0.00  0.00    +0.085 C 
BRANCH  11  16
ATOM      2  O   UNL     1      -3.390   3.989  26.431  0.00  0.00    -0.359 OA
ATOM      6  N   UNL     1      -2.035   3.890  26.140  0.00  0.00    -0.083 NA
ATOM     16  C   UNL     1      -1.984   3.484  24.867  0.00  0.00    +0.086 A 
ATOM     18  C   UNL     1      -3.263   3.312  24.310  0.00  0.00    +0.071 A 
ATOM     19  C   UNL     1      -4.110   3.642  25.334  0.00  0.00    +0.140 A 
BRANCH  19  20
ATOM     20  C   UNL     1      -5.572   3.691  25.468  0.00  0.00    +0.105 C 
BRANCH  20  21
ATOM     21  C   UNL     1      -6.236   2.302  25.536  0.00  0.00    +0.163 C 
BRANCH  21   3
ATOM      3  O   UNL     1      -6.564   2.003  26.887  0.00  0.00    -0.395 OA
ATOM     23  H   UNL     1      -7.428   1.559  26.878  0.00  0.00    +0.209 HD
ENDBRANCH  21   3
ENDBRANCH  20  21
ENDBRANCH  19  20
ENDBRANCH  11  16
ENDBRANCH   7  11
TORSDOF 7
ENDMDL
MODEL 6
REMARK VINA RESULT:      -4.1      2.486      6.089
REMARK  Name = 71694382
REMARK  8 active torsions:
REMARK  status: ('A' for Active; 'I' for Inactive)
REMARK    1  A    between atoms: O_3  and  C_21
REMARK    2  A    between atoms: N_4  and  C_7
REMARK    3  A    between atoms: N_4  and  C_8
REMARK    4  A    between atoms: N_5  and  C_17
REMARK    5  A    between atoms: C_7  and  C_11
REMARK    6  A    between atoms: C_11  and  C_16
REMARK    7  A    between atoms: C_19  and  C_20
REMARK    8  A    between atoms: C_20  and  C_21
REMARK                            x       y       z     vdW  Elec       q    Type
REMARK                         _______ _______ _______ _____ _____    ______ ____
ROOT
ATOM      1  O   UNL     1      -2.355   5.365  25.788  0.00  0.00    -0.376 OA
ATOM      7  C   UNL     1      -2.432   3.356  25.066  0.00  0.00    +0.072 C 
ATOM      9  C   UNL     1      -1.577   4.608  24.825  0.00  0.00    +0.184 C 
ATOM     10  C   UNL     1      -2.994   4.147  26.254  0.00  0.00    +0.184 C 
ENDROOT
BRANCH   7   4
ATOM      4  N   UNL     1      -1.562   2.294  25.581  0.00  0.00    -0.304 NA
ATOM     22  H   UNL     1      -0.926   2.626  26.306  0.00  0.00    +0.123 HD
BRANCH   4   8
ATOM      5  N   UNL     1       1.594   0.292  23.557  0.00  0.00    -0.305 NA
ATOM      8  C   UNL     1      -0.779   1.735  24.482  0.00  0.00    +0.057 C 
ATOM     12  C   UNL     1       0.599   2.397  24.399  0.00  0.00    +0.034 C 
ATOM     13  C   UNL     1      -0.622   0.222  24.659  0.00  0.00    +0.034 C 
ATOM     14  C   UNL     1       1.461   1.736  23.320  0.00  0.00    +0.085 C 
ATOM     15  C   UNL     1       0.280  -0.367  23.572  0.00  0.00    +0.085 C 
ATOM     17  C   UNL     1       2.460  -0.315  22.547  0.00  0.00    +0.104 C 
ENDBRANCH   4   8
ENDBRANCH   7   4
BRANCH   7  11
ATOM     11  C   UNL     1      -3.366   2.886  23.981  0.00  0.00    +0.085 C 
BRANCH  11  16
ATOM      2  O   UNL     1      -4.701  -0.216  25.255  0.00  0.00    -0.359 OA
ATOM      6  N   UNL     1      -4.468   1.151  25.343  0.00  0.00    -0.083 NA
ATOM     16  C   UNL     1      -3.794   1.458  24.230  0.00  0.00    +0.086 A 
ATOM     18  C   UNL     1      -3.574   0.337  23.412  0.00  0.00    +0.071 A 
ATOM     19  C   UNL     1      -4.164  -0.689  24.102  0.00  0.00    +0.140 A 
BRANCH  19  20
ATOM     20  C   UNL     1      -4.320  -2.127  23.848  0.00  0.00    +0.105 C 
BRANCH  20  21
ATOM     21  C   UNL     1      -3.373  -3.011  24.683  0.00  0.00    +0.163 C 
BRANCH  21   3
ATOM      3  O   UNL     1      -2.040  -2.839  24.221  0.00  0.00    -0.395 OA
ATOM     23  H   UNL     1      -2.077  -2.806  23.251  0.00  0.00    +0.209 HD
ENDBRANCH  21   3
ENDBRANCH  20  21
ENDBRANCH  19  20
ENDBRANCH  11  16
ENDBRANCH   7  11
TORSDOF 7
ENDMDL
MODEL 7
REMARK VINA RESULT:      -4.1      2.030      4.179
REMARK  Name = 71694382
REMARK  8 active torsions:
REMARK  status: ('A' for Active; 'I' for Inactive)
REMARK    1  A    between atoms: O_3  and  C_21
REMARK    2  A    between atoms: N_4  and  C_7
REMARK    3  A    between atoms: N_4  and  C_8
REMARK    4  A    between atoms: N_5  and  C_17
REMARK    5  A    between atoms: C_7  and  C_11
REMARK    6  A    between atoms: C_11  and  C_16
REMARK    7  A    between atoms: C_19  and  C_20
REMARK    8  A    between atoms: C_20  and  C_21
REMARK                            x       y       z     vdW  Elec       q    Type
REMARK                         _______ _______ _______ _____ _____    ______ ____
ROOT
ATOM      1  O   UNL     1      -4.744   4.184  25.433  0.00  0.00    -0.376 OA
ATOM      7  C   UNL     1      -3.357   2.675  24.830  0.00  0.00    +0.072 C 
ATOM      9  C   UNL     1      -3.325   3.970  25.655  0.00  0.00    +0.184 C 
ATOM     10  C   UNL     1      -4.881   2.841  24.899  0.00  0.00    +0.184 C 
ENDROOT
BRANCH   7   4
ATOM      4  N   UNL     1      -2.967   1.562  25.700  0.00  0.00    -0.304 NA
ATOM     22  H   UNL     1      -2.050   1.700  26.125  0.00  0.00    +0.123 HD
BRANCH   4   8
ATOM      5  N   UNL     1      -3.569  -2.528  24.715  0.00  0.00    -0.305 NA
ATOM      8  C   UNL     1      -2.949   0.324  24.924  0.00  0.00    +0.057 C 
ATOM     12  C   UNL     1      -2.108  -0.748  25.622  0.00  0.00    +0.034 C 
ATOM     13  C   UNL     1      -4.377  -0.188  24.712  0.00  0.00    +0.034 C 
ATOM     14  C   UNL     1      -2.178  -2.078  24.867  0.00  0.00    +0.085 C 
ATOM     15  C   UNL     1      -4.373  -1.536  23.986  0.00  0.00    +0.085 C 
ATOM     17  C   UNL     1      -3.616  -3.823  24.036  0.00  0.00    +0.104 C 
ENDBRANCH   4   8
ENDBRANCH   7   4
BRANCH   7  11
ATOM     11  C   UNL     1      -2.676   2.647  23.486  0.00  0.00    +0.085 C 
BRANCH  11  16
ATOM      2  O   UNL     1       0.737   1.758  24.258  0.00  0.00    -0.359 OA
ATOM      6  N   UNL     1      -0.379   2.577  24.381  0.00  0.00    -0.083 NA
ATOM     16  C   UNL     1      -1.307   2.016  23.599  0.00  0.00    +0.086 A 
ATOM     18  C   UNL     1      -0.838   0.853  22.964  0.00  0.00    +0.071 A 
ATOM     19  C   UNL     1       0.451   0.736  23.411  0.00  0.00    +0.140 A 
BRANCH  19  20
ATOM     20  C   UNL     1       1.527  -0.232  23.166  0.00  0.00    +0.105 C 
BRANCH  20  21
ATOM     21  C   UNL     1       2.722   0.352  22.388  0.00  0.00    +0.163 C 
BRANCH  21   3
ATOM      3  O   UNL     1       3.257   1.456  23.106  0.00  0.00    -0.395 OA
ATOM     23  H   UNL     1       3.694   2.033  22.458  0.00  0.00    +0.209 HD
ENDBRANCH  21   3
ENDBRANCH  20  21
ENDBRANCH  19  20
ENDBRANCH  11  16
ENDBRANCH   7  11
TORSDOF 7
ENDMDL
MODEL 8
REMARK VINA RESULT:      -4.1      1.691      4.524
REMARK  Name = 71694382
REMARK  8 active torsions:
REMARK  status: ('A' for Active; 'I' for Inactive)
REMARK    1  A    between atoms: O_3  and  C_21
REMARK    2  A    between atoms: N_4  and  C_7
REMARK    3  A    between atoms: N_4  and  C_8
REMARK    4  A    between atoms: N_5  and  C_17
REMARK    5  A    between atoms: C_7  and  C_11
REMARK    6  A    between atoms: C_11  and  C_16
REMARK    7  A    between atoms: C_19  and  C_20
REMARK    8  A    between atoms: C_20  and  C_21
REMARK                            x       y       z     vdW  Elec       q    Type
REMARK                         _______ _______ _______ _____ _____    ______ ____
ROOT
ATOM      1  O   UNL     1       1.584   0.482  22.886  0.00  0.00    -0.376 OA
ATOM      7  C   UNL     1       0.098   1.344  24.158  0.00  0.00    +0.072 C 
ATOM      9  C   UNL     1       1.591   1.553  23.868  0.00  0.00    +0.184 C 
ATOM     10  C   UNL     1       0.132   0.443  22.917  0.00  0.00    +0.184 C 
ENDROOT
BRANCH   7   4
ATOM      4  N   UNL     1      -0.616   2.578  23.821  0.00  0.00    -0.304 NA
ATOM     22  H   UNL     1      -0.078   3.415  24.046  0.00  0.00    +0.123 HD
BRANCH   4   8
ATOM      5  N   UNL     1      -4.500   3.853  24.985  0.00  0.00    -0.305 NA
ATOM      8  C   UNL     1      -1.882   2.619  24.549  0.00  0.00    +0.057 C 
ATOM     12  C   UNL     1      -2.046   3.948  25.291  0.00  0.00    +0.034 C 
ATOM     13  C   UNL     1      -3.054   2.413  23.584  0.00  0.00    +0.034 C 
ATOM     14  C   UNL     1      -3.418   4.036  25.963  0.00  0.00    +0.085 C 
ATOM     15  C   UNL     1      -4.394   2.551  24.312  0.00  0.00    +0.085 C 
ATOM     17  C   UNL     1      -5.804   3.990  25.633  0.00  0.00    +0.104 C 
ENDBRANCH   4   8
ENDBRANCH   7   4
BRANCH   7  11
ATOM     11  C   UNL     1      -0.315   0.761  25.485  0.00  0.00    +0.085 C 
BRANCH  11  16
ATOM      2  O   UNL     1      -1.194  -2.721  25.116  0.00  0.00    -0.359 OA
ATOM      6  N   UNL     1      -0.276  -1.700  25.326  0.00  0.00    -0.083 NA
ATOM     16  C   UNL     1      -0.996  -0.574  25.289  0.00  0.00    +0.086 A 
ATOM     18  C   UNL     1      -2.360  -0.821  25.060  0.00  0.00    +0.071 A 
ATOM     19  C   UNL     1      -2.431  -2.185  24.959  0.00  0.00    +0.140 A 
BRANCH  19  20
ATOM     20  C   UNL     1      -3.530  -3.131  24.725  0.00  0.00    +0.105 C 
BRANCH  20  21
ATOM     21  C   UNL     1      -4.572  -2.632  23.706  0.00  0.00    +0.163 C 
BRANCH  21   3
ATOM      3  O   UNL     1      -4.780  -1.237  23.890  0.00  0.00    -0.395 OA
ATOM     23  H   UNL     1      -5.640  -1.023  23.491  0.00  0.00    +0.209 HD
ENDBRANCH  21   3
ENDBRANCH  20  21
ENDBRANCH  19  20
ENDBRANCH  11  16
ENDBRANCH   7  11
TORSDOF 7
ENDMDL
MODEL 9
REMARK VINA RESULT:      -4.0      2.752      4.345
REMARK  Name = 71694382
REMARK  8 active torsions:
REMARK  status: ('A' for Active; 'I' for Inactive)
REMARK    1  A    between atoms: O_3  and  C_21
REMARK    2  A    between atoms: N_4  and  C_7
REMARK    3  A    between atoms: N_4  and  C_8
REMARK    4  A    between atoms: N_5  and  C_17
REMARK    5  A    between atoms: C_7  and  C_11
REMARK    6  A    between atoms: C_11  and  C_16
REMARK    7  A    between atoms: C_19  and  C_20
REMARK    8  A    between atoms: C_20  and  C_21
REMARK                            x       y       z     vdW  Elec       q    Type
REMARK                         _______ _______ _______ _____ _____    ______ ____
ROOT
ATOM      1  O   UNL     1      -0.629   3.671  25.971  0.00  0.00    -0.376 OA
ATOM      7  C   UNL     1      -0.707   1.773  24.994  0.00  0.00    +0.072 C 
ATOM      9  C   UNL     1       0.313   2.577  25.811  0.00  0.00    +0.184 C 
ATOM     10  C   UNL     1      -1.705   2.841  25.461  0.00  0.00    +0.184 C 
ENDROOT
BRANCH   7   4
ATOM      4  N   UNL     1      -0.990   0.524  25.708  0.00  0.00    -0.304 NA
ATOM     22  H   UNL     1      -0.141   0.045  26.009  0.00  0.00    +0.123 HD
BRANCH   4   8
ATOM      5  N   UNL     1      -3.652  -2.576  24.537  0.00  0.00    -0.305 NA
ATOM      8  C   UNL     1      -1.755  -0.367  24.839  0.00  0.00    +0.057 C 
ATOM     12  C   UNL     1      -1.351  -1.828  25.059  0.00  0.00    +0.034 C 
ATOM     13  C   UNL     1      -3.256  -0.197  25.096  0.00  0.00    +0.034 C 
ATOM     14  C   UNL     1      -2.228  -2.771  24.231  0.00  0.00    +0.085 C 
ATOM     15  C   UNL     1      -4.070  -1.193  24.266  0.00  0.00    +0.085 C 
ATOM     17  C   UNL     1      -4.472  -3.518  23.776  0.00  0.00    +0.104 C 
ENDBRANCH   4   8
ENDBRANCH   7   4
BRANCH   7  11
ATOM     11  C   UNL     1      -0.471   1.575  23.519  0.00  0.00    +0.085 C 
BRANCH  11  16
ATOM      2  O   UNL     1       2.356  -0.568  22.852  0.00  0.00    -0.359 OA
ATOM      6  N   UNL     1       0.996  -0.345  23.024  0.00  0.00    -0.083 NA
ATOM     16  C   UNL     1       0.890   0.963  23.277  0.00  0.00    +0.086 A 
ATOM     18  C   UNL     1       2.137   1.610  23.277  0.00  0.00    +0.071 A 
ATOM     19  C   UNL     1       3.025   0.603  23.005  0.00  0.00    +0.140 A 
BRANCH  19  20
ATOM     20  C   UNL     1       4.485   0.548  22.855  0.00  0.00    +0.105 C 
BRANCH  20  21
ATOM     21  C   UNL     1       5.195  -0.238  23.973  0.00  0.00    +0.163 C 
BRANCH  21   3
ATOM      3  O   UNL     1       4.587  -1.516  24.108  0.00  0.00    -0.395 OA
ATOM     23  H   UNL     1       4.064  -1.497  24.927  0.00  0.00    +0.209 HD
ENDBRANCH  21   3
ENDBRANCH  20  21
ENDBRANCH  19  20
ENDBRANCH  11  16
ENDBRANCH   7  11
TORSDOF 7
ENDMDL
MODEL 10
REMARK VINA RESULT:      -3.4      2.421      5.428
REMARK  Name = 71694382
REMARK  8 active torsions:
REMARK  status: ('A' for Active; 'I' for Inactive)
REMARK    1  A    between atoms: O_3  and  C_21
REMARK    2  A    between atoms: N_4  and  C_7
REMARK    3  A    between atoms: N_4  and  C_8
REMARK    4  A    between atoms: N_5  and  C_17
REMARK    5  A    between atoms: C_7  and  C_11
REMARK    6  A    between atoms: C_11  and  C_16
REMARK    7  A    between atoms: C_19  and  C_20
REMARK    8  A    between atoms: C_20  and  C_21
REMARK                            x       y       z     vdW  Elec       q    Type
REMARK                         _______ _______ _______ _____ _____    ______ ____
ROOT
ATOM      1  O   UNL     1       1.011  -0.310  22.582  0.00  0.00    -0.376 OA
ATOM      7  C   UNL     1      -0.400  -0.378  24.186  0.00  0.00    +0.072 C 
ATOM      9  C   UNL     1       1.031  -0.870  23.922  0.00  0.00    +0.184 C 
ATOM     10  C   UNL     1      -0.211   0.413  22.885  0.00  0.00    +0.184 C 
ENDROOT
BRANCH   7   4
ATOM      4  N   UNL     1      -0.366   0.560  25.313  0.00  0.00    -0.304 NA
ATOM     22  H   UNL     1      -0.890   0.221  26.119  0.00  0.00    +0.123 HD
BRANCH   4   8
ATOM      5  N   UNL     1      -1.156   4.736  25.272  0.00  0.00    -0.305 NA
ATOM      8  C   UNL     1      -0.921   1.843  24.891  0.00  0.00    +0.057 C 
ATOM     12  C   UNL     1      -1.789   2.454  25.994  0.00  0.00    +0.034 C 
ATOM     13  C   UNL     1       0.206   2.811  24.517  0.00  0.00    +0.034 C 
ATOM     14  C   UNL     1      -2.282   3.848  25.596  0.00  0.00    +0.085 C 
ATOM     15  C   UNL     1      -0.352   4.193  24.168  0.00  0.00    +0.085 C 
ATOM     17  C   UNL     1      -1.639   6.076  24.943  0.00  0.00    +0.104 C 
ENDBRANCH   4   8
ENDBRANCH   7   4
BRANCH   7  11
ATOM     11  C   UNL     1      -1.514  -1.387  24.285  0.00  0.00    +0.085 C 
BRANCH  11  16
ATOM      2  O   UNL     1      -4.452  -0.164  25.990  0.00  0.00    -0.359 OA
ATOM      6  N   UNL     1      -3.283  -0.914  25.937  0.00  0.00    -0.083 NA
ATOM     16  C   UNL     1      -2.801  -0.715  24.706  0.00  0.00    +0.086 A 
ATOM     18  C   UNL     1      -3.615   0.142  23.946  0.00  0.00    +0.071 A 
ATOM     19  C   UNL     1      -4.638   0.460  24.799  0.00  0.00    +0.140 A 
BRANCH  19  20
ATOM     20  C   UNL     1      -5.836   1.302  24.681  0.00  0.00    +0.105 C 
BRANCH  20  21
ATOM     21  C   UNL     1      -5.740   2.629  25.458  0.00  0.00    +0.163 C 
BRANCH  21   3
ATOM      3  O   UNL     1      -6.279   2.450  26.762  0.00  0.00    -0.395 OA
ATOM     23  H   UNL     1      -6.742   3.273  26.993  0.00  0.00    +0.209 HD
ENDBRANCH  21   3
ENDBRANCH  20  21
ENDBRANCH  19  20
ENDBRANCH  11  16
ENDBRANCH   7  11
TORSDOF 7
ENDMDL
