MODEL 1
REMARK VINA RESULT:       5.4      0.000      0.000
REMARK  Name = 11883069
REMARK  11 active torsions:
REMARK  status: ('A' for Active; 'I' for Inactive)
REMARK    1  A    between atoms: O_2  and  C_15
REMARK    2  A    between atoms: O_3  and  C_20
REMARK    3  A    between atoms: N_8  and  C_26
REMARK    4  A    between atoms: N_8  and  C_27
REMARK    5  A    between atoms: C_10  and  C_18
REMARK    6  A    between atoms: C_12  and  C_20
REMARK    7  A    between atoms: C_12  and  C_21
REMARK    8  A    between atoms: C_13  and  C_23
REMARK    9  A    between atoms: C_23  and  C_24
REMARK   10  A    between atoms: C_26  and  C_29
REMARK   11  A    between atoms: C_28  and  C_30
REMARK                            x       y       z     vdW  Elec       q    Type
REMARK                         _______ _______ _______ _____ _____    ______ ____
ROOT
ATOM      1  S   UNL     1       0.525   2.284  25.720  0.00  0.00    -0.057 S 
ATOM      5  O   UNL     1       1.979  -0.209  22.110  0.00  0.00    -0.266 OA
ATOM      7  N   UNL     1      -0.204   1.088  23.544  0.00  0.00    -0.229 NA
ATOM      9  N   UNL     1       2.137   0.986  24.110  0.00  0.00    -0.258 N 
ATOM     10  C   UNL     1      -3.857   1.889  24.482  0.00  0.00    -0.019 C 
ATOM     11  C   UNL     1      -3.454   3.232  25.234  0.00  0.00    +0.011 C 
ATOM     12  C   UNL     1      -4.603   4.006  25.986  0.00  0.00    +0.021 C 
ATOM     13  C   UNL     1      -2.687   1.526  23.457  0.00  0.00    +0.054 C 
ATOM     14  C   UNL     1      -5.160   2.122  23.674  0.00  0.00    +0.010 C 
ATOM     15  C   UNL     1      -5.845   4.111  25.055  0.00  0.00    +0.123 C 
ATOM     16  C   UNL     1      -2.165   3.041  26.087  0.00  0.00    +0.049 C 
ATOM     17  C   UNL     1      -6.279   2.767  24.480  0.00  0.00    +0.032 C 
ATOM     18  C   UNL     1      -4.080   0.701  25.451  0.00  0.00    +0.012 C 
ATOM     19  C   UNL     1      -1.335   1.643  24.114  0.00  0.00    +0.058 A 
ATOM     21  C   UNL     1      -4.128   5.456  26.287  0.00  0.00    +0.016 C 
ATOM     22  C   UNL     1      -1.121   2.344  25.283  0.00  0.00    +0.015 A 
ATOM     25  C   UNL     1       0.833   1.357  24.307  0.00  0.00    +0.165 A 
ATOM     28  C   UNL     1       2.657   0.228  23.037  0.00  0.00    +0.285 C 
ATOM     37  H   UNL     1       2.785   1.295  24.831  0.00  0.00    +0.157 HD
ENDROOT
BRANCH  28  30
ATOM      6  O   UNL     1       4.491  -1.186  23.764  0.00  0.00    -0.458 OA
ATOM     30  C   UNL     1       4.101  -0.057  23.116  0.00  0.00    +0.189 A 
ATOM     32  C   UNL     1       5.194   0.629  22.640  0.00  0.00    +0.054 A 
ATOM     33  C   UNL     1       6.328  -0.128  23.018  0.00  0.00    +0.042 A 
ATOM     34  C   UNL     1       5.847  -1.222  23.700  0.00  0.00    +0.196 A 
ENDBRANCH  28  30
BRANCH  15   2
ATOM      2  O   UNL     1      -6.947   4.691  25.750  0.00  0.00    -0.391 OA
ATOM     35  H   UNL     1      -6.588   5.212  26.488  0.00  0.00    +0.210 HD
ENDBRANCH  15   2
BRANCH  12  20
ATOM     20  C   UNL     1      -4.991   3.405  27.355  0.00  0.00    +0.165 C 
BRANCH  20   3
ATOM      3  O   UNL     1      -6.088   2.542  27.153  0.00  0.00    -0.394 OA
ATOM     36  H   UNL     1      -6.177   1.994  27.952  0.00  0.00    +0.209 HD
ENDBRANCH  20   3
ENDBRANCH  12  20
BRANCH  13  23
ATOM     23  C   UNL     1      -2.853   0.173  22.752  0.00  0.00    +0.106 C 
BRANCH  23  24
ATOM      4  O   UNL     1      -1.167  -1.045  23.944  0.00  0.00    -0.276 OA
ATOM      8  N   UNL     1      -3.307  -1.938  23.951  0.00  0.00    -0.301 N 
ATOM     24  C   UNL     1      -2.349  -0.981  23.600  0.00  0.00    +0.216 C 
ATOM     27  C   UNL     1      -4.700  -1.840  23.531  0.00  0.00    +0.132 C 
BRANCH   8  26
ATOM     26  C   UNL     1      -2.984  -3.107  24.763  0.00  0.00    +0.134 C 
BRANCH  26  29
ATOM     29  C   UNL     1      -3.209  -2.779  26.202  0.00  0.00    -0.016 C 
ATOM     31  C   UNL     1      -2.859  -1.616  26.765  0.00  0.00    +0.005 C 
ENDBRANCH  26  29
ENDBRANCH   8  26
ENDBRANCH  23  24
ENDBRANCH  13  23
TORSDOF 8
ENDMDL
MODEL 2
REMARK VINA RESULT:       9.3      1.503      2.262
REMARK  Name = 11883069
REMARK  11 active torsions:
REMARK  status: ('A' for Active; 'I' for Inactive)
REMARK    1  A    between atoms: O_2  and  C_15
REMARK    2  A    between atoms: O_3  and  C_20
REMARK    3  A    between atoms: N_8  and  C_26
REMARK    4  A    between atoms: N_8  and  C_27
REMARK    5  A    between atoms: C_10  and  C_18
REMARK    6  A    between atoms: C_12  and  C_20
REMARK    7  A    between atoms: C_12  and  C_21
REMARK    8  A    between atoms: C_13  and  C_23
REMARK    9  A    between atoms: C_23  and  C_24
REMARK   10  A    between atoms: C_26  and  C_29
REMARK   11  A    between atoms: C_28  and  C_30
REMARK                            x       y       z     vdW  Elec       q    Type
REMARK                         _______ _______ _______ _____ _____    ______ ____
ROOT
ATOM      1  S   UNL     1       1.572   2.729  23.799  0.00  0.00    -0.057 S 
ATOM      5  O   UNL     1       3.553  -1.438  23.532  0.00  0.00    -0.266 OA
ATOM      7  N   UNL     1       1.159   0.179  23.933  0.00  0.00    -0.229 NA
ATOM      9  N   UNL     1       3.421   0.894  23.505  0.00  0.00    -0.258 N 
ATOM     10  C   UNL     1      -2.469   0.953  24.984  0.00  0.00    -0.019 C 
ATOM     11  C   UNL     1      -2.510   2.302  24.140  0.00  0.00    +0.011 C 
ATOM     12  C   UNL     1      -3.803   3.194  24.277  0.00  0.00    +0.021 C 
ATOM     13  C   UNL     1      -1.320   0.025  24.376  0.00  0.00    +0.054 C 
ATOM     14  C   UNL     1      -3.824   0.213  24.838  0.00  0.00    +0.010 C 
ATOM     15  C   UNL     1      -5.064   2.291  24.152  0.00  0.00    +0.123 C 
ATOM     16  C   UNL     1      -1.180   3.100  24.279  0.00  0.00    +0.049 C 
ATOM     17  C   UNL     1      -5.039   1.093  25.094  0.00  0.00    +0.032 C 
ATOM     18  C   UNL     1      -2.194   1.193  26.489  0.00  0.00    +0.012 C 
ATOM     19  C   UNL     1      -0.052   0.809  24.150  0.00  0.00    +0.058 A 
ATOM     21  C   UNL     1      -3.845   4.212  23.101  0.00  0.00    +0.016 C 
ATOM     22  C   UNL     1      -0.016   2.187  24.091  0.00  0.00    +0.015 A 
ATOM     25  C   UNL     1       2.087   1.092  23.744  0.00  0.00    +0.165 A 
ATOM     28  C   UNL     1       4.098  -0.343  23.409  0.00  0.00    +0.285 C 
ATOM     37  H   UNL     1       3.968   1.744  23.394  0.00  0.00    +0.157 HD
ENDROOT
BRANCH  28  30
ATOM      6  O   UNL     1       6.250   0.638  23.952  0.00  0.00    -0.458 OA
ATOM     30  C   UNL     1       5.552  -0.244  23.191  0.00  0.00    +0.189 A 
ATOM     32  C   UNL     1       6.391  -0.903  22.322  0.00  0.00    +0.054 A 
ATOM     33  C   UNL     1       7.688  -0.392  22.566  0.00  0.00    +0.042 A 
ATOM     34  C   UNL     1       7.549   0.542  23.566  0.00  0.00    +0.196 A 
ENDBRANCH  28  30
BRANCH  15   2
ATOM      2  O   UNL     1      -6.248   3.046  24.401  0.00  0.00    -0.391 OA
ATOM     35  H   UNL     1      -6.274   3.251  25.351  0.00  0.00    +0.210 HD
ENDBRANCH  15   2
BRANCH  12  20
ATOM     20  C   UNL     1      -3.860   4.046  25.564  0.00  0.00    +0.165 C 
BRANCH  20   3
ATOM      3  O   UNL     1      -5.130   4.658  25.620  0.00  0.00    -0.394 OA
ATOM     36  H   UNL     1      -5.521   4.434  26.482  0.00  0.00    +0.209 HD
ENDBRANCH  20   3
ENDBRANCH  12  20
BRANCH  13  23
ATOM     23  C   UNL     1      -1.050  -1.260  25.170  0.00  0.00    +0.106 C 
BRANCH  23  24
ATOM      4  O   UNL     1      -1.292  -3.055  23.599  0.00  0.00    -0.276 OA
ATOM      8  N   UNL     1      -2.954  -2.833  25.202  0.00  0.00    -0.301 N 
ATOM     24  C   UNL     1      -1.761  -2.462  24.574  0.00  0.00    +0.216 C 
ATOM     27  C   UNL     1      -3.487  -2.116  26.354  0.00  0.00    +0.132 C 
BRANCH   8  26
ATOM     26  C   UNL     1      -3.756  -3.968  24.751  0.00  0.00    +0.134 C 
BRANCH  26  29
ATOM     29  C   UNL     1      -4.641  -3.525  23.634  0.00  0.00    -0.016 C 
ATOM     31  C   UNL     1      -4.710  -2.264  23.191  0.00  0.00    +0.005 C 
ENDBRANCH  26  29
ENDBRANCH   8  26
ENDBRANCH  23  24
ENDBRANCH  13  23
TORSDOF 8
ENDMDL
