MODEL 1
REMARK VINA RESULT:       1.5      0.000      0.000
REMARK  Name = 11887353
REMARK  3 active torsions:
REMARK  status: ('A' for Active; 'I' for Inactive)
REMARK    1  A    between atoms: N_7  and  C_18
REMARK    2  A    between atoms: C_17  and  C_20
REMARK    3  A    between atoms: C_23  and  C_27
REMARK                            x       y       z     vdW  Elec       q    Type
REMARK                         _______ _______ _______ _____ _____    ______ ____
ROOT
ATOM      2  O   UNL     1       0.248   2.580  25.788  0.00  0.00    -0.266 OA
ATOM      3  O   UNL     1      -4.074   0.102  27.182  0.00  0.00    -0.270 OA
ATOM      5  N   UNL     1      -4.581   1.423  25.319  0.00  0.00    -0.297 N 
ATOM      6  N   UNL     1      -1.754   2.662  24.589  0.00  0.00    -0.310 N 
ATOM      8  C   UNL     1      -3.864   3.799  25.494  0.00  0.00    +0.027 C 
ATOM      9  C   UNL     1      -3.916   2.696  23.294  0.00  0.00    +0.054 C 
ATOM     10  C   UNL     1      -4.213   4.005  24.024  0.00  0.00    +0.018 C 
ATOM     11  C   UNL     1      -4.708   2.658  26.091  0.00  0.00    +0.113 C 
ATOM     12  C   UNL     1      -2.359   3.526  25.612  0.00  0.00    +0.130 C 
ATOM     13  C   UNL     1      -4.798   1.571  23.870  0.00  0.00    +0.117 C 
ATOM     14  C   UNL     1      -2.452   2.317  23.427  0.00  0.00    +0.027 A 
ATOM     15  C   UNL     1      -1.843   1.623  22.452  0.00  0.00    +0.024 A 
ATOM     16  C   UNL     1      -0.411   2.286  24.790  0.00  0.00    +0.273 A 
ATOM     17  C   UNL     1      -4.255   0.232  25.973  0.00  0.00    +0.247 C 
ATOM     18  C   UNL     1       0.224   1.489  23.692  0.00  0.00    +0.099 A 
ATOM     19  C   UNL     1      -0.477   1.201  22.591  0.00  0.00    +0.030 A 
ENDROOT
BRANCH  17  20
ATOM      1  F   UNL     1      -3.639  -4.380  22.873  0.00  0.00    -0.205 F 
ATOM     20  C   UNL     1      -4.093  -0.977  25.159  0.00  0.00    +0.037 A 
ATOM     21  C   UNL     1      -3.287  -2.017  25.617  0.00  0.00    +0.016 A 
ATOM     22  C   UNL     1      -4.746  -1.081  23.934  0.00  0.00    +0.016 A 
ATOM     24  C   UNL     1      -3.134  -3.168  24.843  0.00  0.00    +0.039 A 
ATOM     25  C   UNL     1      -4.594  -2.232  23.161  0.00  0.00    +0.039 A 
ATOM     26  C   UNL     1      -3.787  -3.275  23.616  0.00  0.00    +0.123 A 
ENDBRANCH  17  20
BRANCH  18   7
ATOM      4  O   UNL     1       1.701  -0.206  21.934  0.00  0.00    -0.270 OA
ATOM      7  N   UNL     1       1.517   1.090  23.857  0.00  0.00    -0.277 N 
ATOM     23  C   UNL     1       2.182   0.262  22.964  0.00  0.00    +0.248 C 
ATOM     33  H   UNL     1       1.926   1.316  24.758  0.00  0.00    +0.155 HD
BRANCH  23  27
ATOM     27  C   UNL     1       3.596  -0.047  23.301  0.00  0.00    +0.037 A 
ATOM     28  C   UNL     1       4.542   0.950  23.184  0.00  0.00    +0.013 A 
ATOM     29  C   UNL     1       3.917  -1.321  23.720  0.00  0.00    +0.013 A 
ATOM     30  C   UNL     1       5.869   0.660  23.501  0.00  0.00    +0.001 A 
ATOM     31  C   UNL     1       5.245  -1.611  24.036  0.00  0.00    +0.001 A 
ATOM     32  C   UNL     1       6.220  -0.621  23.926  0.00  0.00    +0.000 A 
ENDBRANCH  23  27
ENDBRANCH  18   7
TORSDOF 3
ENDMDL
