MODEL 1
REMARK VINA RESULT:      -2.3      0.000      0.000
REMARK  Name = 11883979
REMARK  7 active torsions:
REMARK  status: ('A' for Active; 'I' for Inactive)
REMARK    1  A    between atoms: S_2  and  N_12
REMARK    2  A    between atoms: S_2  and  C_20
REMARK    3  A    between atoms: O_8  and  C_17
REMARK    4  A    between atoms: O_8  and  C_21
REMARK    5  A    between atoms: N_12  and  C_16
REMARK    6  A    between atoms: N_13  and  C_24
REMARK    7  A    between atoms: C_30  and  C_33
REMARK                            x       y       z     vdW  Elec       q    Type
REMARK                         _______ _______ _______ _____ _____    ______ ____
ROOT
ATOM      6  O   UNL     1      -2.682  -0.577  25.709  0.00  0.00    -0.369 OA
ATOM      7  O   UNL     1      -2.387  -3.088  23.958  0.00  0.00    -0.368 OA
ATOM     14  C   UNL     1      -1.662  -1.841  23.980  0.00  0.00    +0.171 C 
ATOM     15  C   UNL     1      -2.670  -0.750  24.283  0.00  0.00    +0.191 C 
ATOM     16  C   UNL     1      -0.726  -1.812  25.163  0.00  0.00    +0.133 C 
ATOM     17  C   UNL     1      -3.962  -1.349  23.782  0.00  0.00    +0.235 C 
ATOM     18  C   UNL     1      -1.629  -1.358  26.294  0.00  0.00    +0.183 C 
ATOM     19  C   UNL     1      -3.787  -2.812  24.119  0.00  0.00    +0.207 C 
ENDROOT
BRANCH  16  12
ATOM     12  N   UNL     1       0.342  -0.807  24.940  0.00  0.00    -0.182 NA
ATOM     34  H   UNL     1       0.709  -0.312  25.761  0.00  0.00    +0.148 HD
BRANCH  12   2
ATOM      2  S   UNL     1       0.636  -0.222  23.374  0.00  0.00    +0.059 S 
ATOM      9  O   UNL     1       0.161   1.145  23.271  0.00  0.00    -0.153 OA
ATOM     10  O   UNL     1       0.204  -1.220  22.415  0.00  0.00    -0.153 OA
BRANCH   2  20
ATOM      1 CL   UNL     1       6.889  -0.108  23.195  0.00  0.00    -0.084 Cl
ATOM     20  C   UNL     1       2.403  -0.190  23.324  0.00  0.00    +0.105 A 
ATOM     22  C   UNL     1       3.045   0.927  22.816  0.00  0.00    +0.030 A 
ATOM     23  C   UNL     1       3.113  -1.282  23.793  0.00  0.00    +0.030 A 
ATOM     25  C   UNL     1       4.438   0.952  22.776  0.00  0.00    +0.022 A 
ATOM     26  C   UNL     1       4.507  -1.256  23.753  0.00  0.00    +0.022 A 
ATOM     27  C   UNL     1       5.170  -0.139  23.244  0.00  0.00    +0.041 A 
ENDBRANCH   2  20
ENDBRANCH  12   2
ENDBRANCH  16  12
BRANCH  17   8
ATOM      8  O   UNL     1      -5.110  -0.800  24.388  0.00  0.00    -0.442 OA
BRANCH   8  21
ATOM     11  O   UNL     1      -5.473   0.630  26.136  0.00  0.00    -0.226 OA
ATOM     13  N   UNL     1      -4.145   1.237  24.306  0.00  0.00    -0.251 N 
ATOM     21  C   UNL     1      -4.951   0.400  25.051  0.00  0.00    +0.405 C 
ATOM     35  H   UNL     1      -3.805   0.864  23.423  0.00  0.00    +0.158 HD
BRANCH  13  24
ATOM     24  C   UNL     1      -3.732   2.553  24.618  0.00  0.00    +0.037 A 
ATOM     28  C   UNL     1      -2.385   2.875  24.554  0.00  0.00    +0.035 A 
ATOM     29  C   UNL     1      -4.681   3.494  24.981  0.00  0.00    +0.023 A 
ATOM     30  C   UNL     1      -1.979   4.174  24.861  0.00  0.00    +0.057 A 
ATOM     31  C   UNL     1      -4.275   4.793  25.287  0.00  0.00    +0.002 A 
ATOM     32  C   UNL     1      -2.923   5.133  25.227  0.00  0.00    +0.012 A 
BRANCH  30  33
ATOM      3  F   UNL     1       0.062   4.208  23.611  0.00  0.00    -0.166 F 
ATOM      4  F   UNL     1      -0.298   5.874  24.952  0.00  0.00    -0.166 F 
ATOM      5  F   UNL     1       0.208   3.920  25.762  0.00  0.00    -0.166 F 
ATOM     33  C   UNL     1      -0.533   4.538  24.796  0.00  0.00    +0.417 C 
ENDBRANCH  30  33
ENDBRANCH  13  24
ENDBRANCH   8  21
ENDBRANCH  17   8
TORSDOF 7
ENDMDL
MODEL 2
REMARK VINA RESULT:      -1.9      3.120      6.123
REMARK  Name = 11883979
REMARK  7 active torsions:
REMARK  status: ('A' for Active; 'I' for Inactive)
REMARK    1  A    between atoms: S_2  and  N_12
REMARK    2  A    between atoms: S_2  and  C_20
REMARK    3  A    between atoms: O_8  and  C_17
REMARK    4  A    between atoms: O_8  and  C_21
REMARK    5  A    between atoms: N_12  and  C_16
REMARK    6  A    between atoms: N_13  and  C_24
REMARK    7  A    between atoms: C_30  and  C_33
REMARK                            x       y       z     vdW  Elec       q    Type
REMARK                         _______ _______ _______ _____ _____    ______ ____
ROOT
ATOM      6  O   UNL     1      -2.620  -0.606  24.362  0.00  0.00    -0.369 OA
ATOM      7  O   UNL     1      -5.024  -2.429  23.765  0.00  0.00    -0.368 OA
ATOM     14  C   UNL     1      -4.719  -1.579  24.889  0.00  0.00    +0.171 C 
ATOM     15  C   UNL     1      -3.223  -1.670  25.117  0.00  0.00    +0.191 C 
ATOM     16  C   UNL     1      -4.944  -0.134  24.519  0.00  0.00    +0.133 C 
ATOM     17  C   UNL     1      -2.885  -3.024  24.542  0.00  0.00    +0.235 C 
ATOM     18  C   UNL     1      -3.648   0.241  23.826  0.00  0.00    +0.183 C 
ATOM     19  C   UNL     1      -3.829  -3.115  23.364  0.00  0.00    +0.207 C 
ENDROOT
BRANCH  16  12
ATOM     12  N   UNL     1      -5.112   0.684  25.744  0.00  0.00    -0.182 NA
ATOM     34  H   UNL     1      -5.100   0.197  26.647  0.00  0.00    +0.148 HD
BRANCH  12   2
ATOM      2  S   UNL     1      -5.705   2.270  25.624  0.00  0.00    +0.059 S 
ATOM      9  O   UNL     1      -6.257   2.679  26.902  0.00  0.00    -0.153 OA
ATOM     10  O   UNL     1      -6.500   2.381  24.416  0.00  0.00    -0.153 OA
BRANCH   2  20
ATOM      1 CL   UNL     1      -0.458   5.538  24.656  0.00  0.00    -0.084 Cl
ATOM     20  C   UNL     1      -4.222   3.194  25.350  0.00  0.00    +0.105 A 
ATOM     22  C   UNL     1      -3.963   3.697  24.087  0.00  0.00    +0.030 A 
ATOM     23  C   UNL     1      -3.348   3.397  26.405  0.00  0.00    +0.030 A 
ATOM     25  C   UNL     1      -2.793   4.425  23.871  0.00  0.00    +0.022 A 
ATOM     26  C   UNL     1      -2.179   4.126  26.189  0.00  0.00    +0.022 A 
ATOM     27  C   UNL     1      -1.901   4.640  24.922  0.00  0.00    +0.041 A 
ENDBRANCH   2  20
ENDBRANCH  12   2
ENDBRANCH  16  12
BRANCH  17   8
ATOM      8  O   UNL     1      -1.537  -3.151  24.152  0.00  0.00    -0.442 OA
BRANCH   8  21
ATOM     11  O   UNL     1      -0.259  -2.101  25.731  0.00  0.00    -0.226 OA
ATOM     13  N   UNL     1      -0.372  -1.324  23.526  0.00  0.00    -0.251 N 
ATOM     21  C   UNL     1      -0.669  -2.166  24.579  0.00  0.00    +0.405 C 
ATOM     35  H   UNL     1      -0.815  -1.543  22.637  0.00  0.00    +0.158 HD
BRANCH  13  24
ATOM     24  C   UNL     1       0.474  -0.191  23.530  0.00  0.00    +0.037 A 
ATOM     28  C   UNL     1       1.799  -0.331  23.148  0.00  0.00    +0.035 A 
ATOM     29  C   UNL     1      -0.039   1.038  23.914  0.00  0.00    +0.023 A 
ATOM     30  C   UNL     1       2.633   0.788  23.151  0.00  0.00    +0.057 A 
ATOM     31  C   UNL     1       0.794   2.157  23.916  0.00  0.00    +0.002 A 
ATOM     32  C   UNL     1       2.131   2.032  23.534  0.00  0.00    +0.012 A 
BRANCH  30  33
ATOM      3  F   UNL     1       4.860   1.659  23.211  0.00  0.00    -0.166 F 
ATOM      4  F   UNL     1       4.649  -0.499  23.176  0.00  0.00    -0.166 F 
ATOM      5  F   UNL     1       4.223   0.661  21.387  0.00  0.00    -0.166 F 
ATOM     33  C   UNL     1       4.061   0.655  22.743  0.00  0.00    +0.417 C 
ENDBRANCH  30  33
ENDBRANCH  13  24
ENDBRANCH   8  21
ENDBRANCH  17   8
TORSDOF 7
ENDMDL
MODEL 3
REMARK VINA RESULT:      -1.9      3.546      7.070
REMARK  Name = 11883979
REMARK  7 active torsions:
REMARK  status: ('A' for Active; 'I' for Inactive)
REMARK    1  A    between atoms: S_2  and  N_12
REMARK    2  A    between atoms: S_2  and  C_20
REMARK    3  A    between atoms: O_8  and  C_17
REMARK    4  A    between atoms: O_8  and  C_21
REMARK    5  A    between atoms: N_12  and  C_16
REMARK    6  A    between atoms: N_13  and  C_24
REMARK    7  A    between atoms: C_30  and  C_33
REMARK                            x       y       z     vdW  Elec       q    Type
REMARK                         _______ _______ _______ _____ _____    ______ ____
ROOT
ATOM      6  O   UNL     1      -2.875   3.246  26.094  0.00  0.00    -0.369 OA
ATOM      7  O   UNL     1      -2.842   5.775  24.343  0.00  0.00    -0.368 OA
ATOM     14  C   UNL     1      -3.307   4.434  24.086  0.00  0.00    +0.171 C 
ATOM     15  C   UNL     1      -2.344   3.493  24.781  0.00  0.00    +0.191 C 
ATOM     16  C   UNL     1      -4.620   4.200  24.792  0.00  0.00    +0.133 C 
ATOM     17  C   UNL     1      -1.073   4.305  24.837  0.00  0.00    +0.235 C 
ATOM     18  C   UNL     1      -4.185   3.827  26.196  0.00  0.00    +0.183 C 
ATOM     19  C   UNL     1      -1.600   5.705  25.057  0.00  0.00    +0.207 C 
ENDROOT
BRANCH  16  12
ATOM     12  N   UNL     1      -5.334   3.059  24.170  0.00  0.00    -0.182 NA
ATOM     34  H   UNL     1      -5.672   3.176  23.207  0.00  0.00    +0.148 HD
BRANCH  12   2
ATOM      2  S   UNL     1      -5.916   1.796  25.143  0.00  0.00    +0.059 S 
ATOM      9  O   UNL     1      -7.132   1.258  24.562  0.00  0.00    -0.153 OA
ATOM     10  O   UNL     1      -5.897   2.228  26.527  0.00  0.00    -0.153 OA
BRANCH   2  20
ATOM      1 CL   UNL     1      -1.413  -2.501  24.511  0.00  0.00    -0.084 Cl
ATOM     20  C   UNL     1      -4.644   0.582  24.965  0.00  0.00    +0.105 A 
ATOM     22  C   UNL     1      -3.954   0.497  23.768  0.00  0.00    +0.030 A 
ATOM     23  C   UNL     1      -4.360  -0.261  26.026  0.00  0.00    +0.030 A 
ATOM     25  C   UNL     1      -2.951  -0.461  23.626  0.00  0.00    +0.022 A 
ATOM     26  C   UNL     1      -3.356  -1.219  25.885  0.00  0.00    +0.022 A 
ATOM     27  C   UNL     1      -2.651  -1.320  24.685  0.00  0.00    +0.041 A 
ENDBRANCH   2  20
ENDBRANCH  12   2
ENDBRANCH  16  12
BRANCH  17   8
ATOM      8  O   UNL     1      -0.191   3.904  25.860  0.00  0.00    -0.442 OA
BRANCH   8  21
ATOM     11  O   UNL     1       0.885   2.021  26.587  0.00  0.00    -0.226 OA
ATOM     13  N   UNL     1       0.660   2.505  24.308  0.00  0.00    -0.251 N 
ATOM     21  C   UNL     1       0.498   2.725  25.662  0.00  0.00    +0.405 C 
ATOM     35  H   UNL     1       0.266   3.210  23.689  0.00  0.00    +0.158 HD
BRANCH  13  24
ATOM     24  C   UNL     1       1.306   1.420  23.673  0.00  0.00    +0.037 A 
ATOM     28  C   UNL     1       2.686   1.315  23.743  0.00  0.00    +0.035 A 
ATOM     29  C   UNL     1       0.546   0.481  22.994  0.00  0.00    +0.023 A 
ATOM     30  C   UNL     1       3.322   0.243  23.116  0.00  0.00    +0.057 A 
ATOM     31  C   UNL     1       1.181  -0.592  22.369  0.00  0.00    +0.002 A 
ATOM     32  C   UNL     1       2.570  -0.711  22.430  0.00  0.00    +0.012 A 
BRANCH  30  33
ATOM      3  F   UNL     1       5.413   0.144  21.959  0.00  0.00    -0.166 F 
ATOM      4  F   UNL     1       5.410   1.107  23.901  0.00  0.00    -0.166 F 
ATOM      5  F   UNL     1       5.208  -1.053  23.762  0.00  0.00    -0.166 F 
ATOM     33  C   UNL     1       4.807   0.115  23.182  0.00  0.00    +0.417 C 
ENDBRANCH  30  33
ENDBRANCH  13  24
ENDBRANCH   8  21
ENDBRANCH  17   8
TORSDOF 7
ENDMDL
MODEL 4
REMARK VINA RESULT:      -0.8      3.089      5.745
REMARK  Name = 11883979
REMARK  7 active torsions:
REMARK  status: ('A' for Active; 'I' for Inactive)
REMARK    1  A    between atoms: S_2  and  N_12
REMARK    2  A    between atoms: S_2  and  C_20
REMARK    3  A    between atoms: O_8  and  C_17
REMARK    4  A    between atoms: O_8  and  C_21
REMARK    5  A    between atoms: N_12  and  C_16
REMARK    6  A    between atoms: N_13  and  C_24
REMARK    7  A    between atoms: C_30  and  C_33
REMARK                            x       y       z     vdW  Elec       q    Type
REMARK                         _______ _______ _______ _____ _____    ______ ____
ROOT
ATOM      6  O   UNL     1      -2.436  -0.140  24.117  0.00  0.00    -0.369 OA
ATOM      7  O   UNL     1      -4.951  -1.900  23.921  0.00  0.00    -0.368 OA
ATOM     14  C   UNL     1      -4.613  -0.800  24.791  0.00  0.00    +0.171 C 
ATOM     15  C   UNL     1      -3.134  -0.921  25.100  0.00  0.00    +0.191 C 
ATOM     16  C   UNL     1      -4.723   0.503  24.040  0.00  0.00    +0.133 C 
ATOM     17  C   UNL     1      -2.881  -2.399  24.922  0.00  0.00    +0.235 C 
ATOM     18  C   UNL     1      -3.386   0.596  23.330  0.00  0.00    +0.183 C 
ATOM     19  C   UNL     1      -3.799  -2.742  23.769  0.00  0.00    +0.207 C 
ENDROOT
BRANCH  16  12
ATOM     12  N   UNL     1      -4.862   1.629  24.994  0.00  0.00    -0.182 NA
ATOM     34  H   UNL     1      -5.515   1.512  25.778  0.00  0.00    +0.148 HD
BRANCH  12   2
ATOM      2  S   UNL     1      -4.286   3.169  24.573  0.00  0.00    +0.059 S 
ATOM      9  O   UNL     1      -5.032   4.181  25.297  0.00  0.00    -0.153 OA
ATOM     10  O   UNL     1      -4.166   3.243  23.129  0.00  0.00    -0.153 OA
BRANCH   2  20
ATOM      1 CL   UNL     1       1.530   3.046  26.878  0.00  0.00    -0.084 Cl
ATOM     20  C   UNL     1      -2.642   3.134  25.224  0.00  0.00    +0.105 A 
ATOM     22  C   UNL     1      -1.763   4.151  24.894  0.00  0.00    +0.030 A 
ATOM     23  C   UNL     1      -2.266   2.091  26.053  0.00  0.00    +0.030 A 
ATOM     25  C   UNL     1      -0.466   4.123  25.407  0.00  0.00    +0.022 A 
ATOM     26  C   UNL     1      -0.969   2.064  26.567  0.00  0.00    +0.022 A 
ATOM     27  C   UNL     1      -0.069   3.079  26.244  0.00  0.00    +0.041 A 
ENDBRANCH   2  20
ENDBRANCH  12   2
ENDBRANCH  16  12
BRANCH  17   8
ATOM      8  O   UNL     1      -1.536  -2.711  24.638  0.00  0.00    -0.442 OA
BRANCH   8  21
ATOM     11  O   UNL     1      -0.359  -1.333  26.033  0.00  0.00    -0.226 OA
ATOM     13  N   UNL     1      -0.027  -1.311  23.716  0.00  0.00    -0.251 N 
ATOM     21  C   UNL     1      -0.601  -1.731  24.900  0.00  0.00    +0.405 C 
ATOM     35  H   UNL     1      -0.364  -1.764  22.870  0.00  0.00    +0.158 HD
BRANCH  13  24
ATOM     24  C   UNL     1       0.971  -0.328  23.533  0.00  0.00    +0.037 A 
ATOM     28  C   UNL     1       2.305  -0.705  23.536  0.00  0.00    +0.035 A 
ATOM     29  C   UNL     1       0.598   0.994  23.353  0.00  0.00    +0.023 A 
ATOM     30  C   UNL     1       3.290   0.267  23.354  0.00  0.00    +0.057 A 
ATOM     31  C   UNL     1       1.582   1.965  23.170  0.00  0.00    +0.002 A 
ATOM     32  C   UNL     1       2.929   1.601  23.171  0.00  0.00    +0.012 A 
BRANCH  30  33
ATOM      3  F   UNL     1       4.942  -1.438  23.652  0.00  0.00    -0.166 F 
ATOM      4  F   UNL     1       5.350   0.076  22.154  0.00  0.00    -0.166 F 
ATOM      5  F   UNL     1       5.464   0.581  24.266  0.00  0.00    -0.166 F 
ATOM     33  C   UNL     1       4.730  -0.122  23.355  0.00  0.00    +0.417 C 
ENDBRANCH  30  33
ENDBRANCH  13  24
ENDBRANCH   8  21
ENDBRANCH  17   8
TORSDOF 7
ENDMDL
MODEL 5
REMARK VINA RESULT:      -0.8      3.542      6.960
REMARK  Name = 11883979
REMARK  7 active torsions:
REMARK  status: ('A' for Active; 'I' for Inactive)
REMARK    1  A    between atoms: S_2  and  N_12
REMARK    2  A    between atoms: S_2  and  C_20
REMARK    3  A    between atoms: O_8  and  C_17
REMARK    4  A    between atoms: O_8  and  C_21
REMARK    5  A    between atoms: N_12  and  C_16
REMARK    6  A    between atoms: N_13  and  C_24
REMARK    7  A    between atoms: C_30  and  C_33
REMARK                            x       y       z     vdW  Elec       q    Type
REMARK                         _______ _______ _______ _____ _____    ______ ____
ROOT
ATOM      6  O   UNL     1      -3.208   0.189  23.932  0.00  0.00    -0.369 OA
ATOM      7  O   UNL     1      -3.761  -2.525  25.271  0.00  0.00    -0.368 OA
ATOM     14  C   UNL     1      -3.711  -1.184  25.801  0.00  0.00    +0.171 C 
ATOM     15  C   UNL     1      -2.603  -0.459  25.064  0.00  0.00    +0.191 C 
ATOM     16  C   UNL     1      -4.960  -0.432  25.414  0.00  0.00    +0.133 C 
ATOM     17  C   UNL     1      -1.696  -1.590  24.641  0.00  0.00    +0.235 C 
ATOM     18  C   UNL     1      -4.636   0.061  24.017  0.00  0.00    +0.183 C 
ATOM     19  C   UNL     1      -2.684  -2.694  24.337  0.00  0.00    +0.207 C 
ENDROOT
BRANCH  16  12
ATOM     12  N   UNL     1      -5.157   0.725  26.320  0.00  0.00    -0.182 NA
ATOM     34  H   UNL     1      -5.143   0.547  27.331  0.00  0.00    +0.148 HD
BRANCH  12   2
ATOM      2  S   UNL     1      -5.782   2.180  25.708  0.00  0.00    +0.059 S 
ATOM      9  O   UNL     1      -6.535   2.858  26.746  0.00  0.00    -0.153 OA
ATOM     10  O   UNL     1      -6.389   1.919  24.416  0.00  0.00    -0.153 OA
BRANCH   2  20
ATOM      1 CL   UNL     1      -0.571   5.475  24.640  0.00  0.00    -0.084 Cl
ATOM     20  C   UNL     1      -4.309   3.111  25.406  0.00  0.00    +0.105 A 
ATOM     22  C   UNL     1      -4.003   3.490  24.111  0.00  0.00    +0.030 A 
ATOM     23  C   UNL     1      -3.490   3.444  26.471  0.00  0.00    +0.030 A 
ATOM     25  C   UNL     1      -2.841   4.224  23.872  0.00  0.00    +0.022 A 
ATOM     26  C   UNL     1      -2.328   4.179  26.233  0.00  0.00    +0.022 A 
ATOM     27  C   UNL     1      -2.003   4.569  24.934  0.00  0.00    +0.041 A 
ENDBRANCH   2  20
ENDBRANCH  12   2
ENDBRANCH  16  12
BRANCH  17   8
ATOM      8  O   UNL     1      -0.890  -1.279  23.527  0.00  0.00    -0.442 OA
BRANCH   8  21
ATOM     11  O   UNL     1      -0.058   0.689  24.341  0.00  0.00    -0.226 OA
ATOM     13  N   UNL     1       1.277  -0.801  23.125  0.00  0.00    -0.251 N 
ATOM     21  C   UNL     1       0.115  -0.354  23.723  0.00  0.00    +0.405 C 
ATOM     35  H   UNL     1       1.222  -1.700  22.653  0.00  0.00    +0.158 HD
BRANCH  13  24
ATOM     24  C   UNL     1       2.538  -0.162  23.088  0.00  0.00    +0.037 A 
ATOM     28  C   UNL     1       3.664  -0.856  23.501  0.00  0.00    +0.035 A 
ATOM     29  C   UNL     1       2.623   1.146  22.637  0.00  0.00    +0.023 A 
ATOM     30  C   UNL     1       4.907  -0.225  23.463  0.00  0.00    +0.057 A 
ATOM     31  C   UNL     1       3.866   1.776  22.597  0.00  0.00    +0.002 A 
ATOM     32  C   UNL     1       5.009   1.090  23.011  0.00  0.00    +0.012 A 
BRANCH  30  33
ATOM      3  F   UNL     1       6.064  -2.307  23.695  0.00  0.00    -0.166 F 
ATOM      4  F   UNL     1       7.269  -0.554  23.268  0.00  0.00    -0.166 F 
ATOM      5  F   UNL     1       6.381  -0.806  25.237  0.00  0.00    -0.166 F 
ATOM     33  C   UNL     1       6.130  -0.958  23.904  0.00  0.00    +0.417 C 
ENDBRANCH  30  33
ENDBRANCH  13  24
ENDBRANCH   8  21
ENDBRANCH  17   8
TORSDOF 7
ENDMDL
MODEL 6
REMARK VINA RESULT:       0.1      2.819      4.796
REMARK  Name = 11883979
REMARK  7 active torsions:
REMARK  status: ('A' for Active; 'I' for Inactive)
REMARK    1  A    between atoms: S_2  and  N_12
REMARK    2  A    between atoms: S_2  and  C_20
REMARK    3  A    between atoms: O_8  and  C_17
REMARK    4  A    between atoms: O_8  and  C_21
REMARK    5  A    between atoms: N_12  and  C_16
REMARK    6  A    between atoms: N_13  and  C_24
REMARK    7  A    between atoms: C_30  and  C_33
REMARK                            x       y       z     vdW  Elec       q    Type
REMARK                         _______ _______ _______ _____ _____    ______ ____
ROOT
ATOM      6  O   UNL     1      -2.086   2.349  24.577  0.00  0.00    -0.369 OA
ATOM      7  O   UNL     1      -0.513   4.985  24.771  0.00  0.00    -0.368 OA
ATOM     14  C   UNL     1      -0.204   3.647  25.212  0.00  0.00    +0.171 C 
ATOM     15  C   UNL     1      -1.502   3.032  25.698  0.00  0.00    +0.191 C 
ATOM     16  C   UNL     1       0.184   2.793  24.031  0.00  0.00    +0.133 C 
ATOM     17  C   UNL     1      -2.310   4.244  26.097  0.00  0.00    +0.235 C 
ATOM     18  C   UNL     1      -1.158   2.349  23.481  0.00  0.00    +0.183 C 
ATOM     19  C   UNL     1      -1.892   5.261  25.059  0.00  0.00    +0.207 C 
ENDROOT
BRANCH  16  12
ATOM     12  N   UNL     1       0.953   1.611  24.490  0.00  0.00    -0.182 NA
ATOM     34  H   UNL     1       1.594   1.737  25.282  0.00  0.00    +0.148 HD
BRANCH  12   2
ATOM      2  S   UNL     1       1.067   0.240  23.495  0.00  0.00    +0.059 S 
ATOM      9  O   UNL     1       0.561   0.558  22.173  0.00  0.00    -0.153 OA
ATOM     10  O   UNL     1       0.551  -0.906  24.219  0.00  0.00    -0.153 OA
BRANCH   2  20
ATOM      1 CL   UNL     1       7.262  -0.521  23.055  0.00  0.00    -0.084 Cl
ATOM     20  C   UNL     1       2.818   0.025  23.371  0.00  0.00    +0.105 A 
ATOM     22  C   UNL     1       3.590   1.052  22.856  0.00  0.00    +0.030 A 
ATOM     23  C   UNL     1       3.384  -1.167  23.791  0.00  0.00    +0.030 A 
ATOM     25  C   UNL     1       4.971   0.882  22.758  0.00  0.00    +0.022 A 
ATOM     26  C   UNL     1       4.765  -1.336  23.693  0.00  0.00    +0.022 A 
ATOM     27  C   UNL     1       5.559  -0.312  23.176  0.00  0.00    +0.041 A 
ENDBRANCH   2  20
ENDBRANCH  12   2
ENDBRANCH  16  12
BRANCH  17   8
ATOM      8  O   UNL     1      -3.701   4.021  26.090  0.00  0.00    -0.442 OA
BRANCH   8  21
ATOM     11  O   UNL     1      -4.860   3.281  24.262  0.00  0.00    -0.226 OA
ATOM     13  N   UNL     1      -3.742   1.801  25.690  0.00  0.00    -0.251 N 
ATOM     21  C   UNL     1      -4.171   3.036  25.244  0.00  0.00    +0.405 C 
ATOM     35  H   UNL     1      -3.174   1.801  26.534  0.00  0.00    +0.158 HD
BRANCH  13  24
ATOM     24  C   UNL     1      -3.997   0.533  25.119  0.00  0.00    +0.037 A 
ATOM     28  C   UNL     1      -3.050  -0.471  25.244  0.00  0.00    +0.035 A 
ATOM     29  C   UNL     1      -5.190   0.318  24.447  0.00  0.00    +0.023 A 
ATOM     30  C   UNL     1      -3.302  -1.722  24.681  0.00  0.00    +0.057 A 
ATOM     31  C   UNL     1      -5.443  -0.933  23.886  0.00  0.00    +0.002 A 
ATOM     32  C   UNL     1      -4.499  -1.954  24.003  0.00  0.00    +0.012 A 
BRANCH  30  33
ATOM      3  F   UNL     1      -1.815  -3.258  23.606  0.00  0.00    -0.166 F 
ATOM      4  F   UNL     1      -1.186  -2.455  25.520  0.00  0.00    -0.166 F 
ATOM      5  F   UNL     1      -2.791  -3.920  25.434  0.00  0.00    -0.166 F 
ATOM     33  C   UNL     1      -2.293  -2.814  24.806  0.00  0.00    +0.417 C 
ENDBRANCH  30  33
ENDBRANCH  13  24
ENDBRANCH   8  21
ENDBRANCH  17   8
TORSDOF 7
ENDMDL
MODEL 7
REMARK VINA RESULT:       0.6      3.425      5.978
REMARK  Name = 11883979
REMARK  7 active torsions:
REMARK  status: ('A' for Active; 'I' for Inactive)
REMARK    1  A    between atoms: S_2  and  N_12
REMARK    2  A    between atoms: S_2  and  C_20
REMARK    3  A    between atoms: O_8  and  C_17
REMARK    4  A    between atoms: O_8  and  C_21
REMARK    5  A    between atoms: N_12  and  C_16
REMARK    6  A    between atoms: N_13  and  C_24
REMARK    7  A    between atoms: C_30  and  C_33
REMARK                            x       y       z     vdW  Elec       q    Type
REMARK                         _______ _______ _______ _____ _____    ______ ____
ROOT
ATOM      6  O   UNL     1      -2.613  -0.102  24.016  0.00  0.00    -0.369 OA
ATOM      7  O   UNL     1      -3.920  -2.823  24.606  0.00  0.00    -0.368 OA
ATOM     14  C   UNL     1      -3.789  -1.627  25.402  0.00  0.00    +0.171 C 
ATOM     15  C   UNL     1      -2.428  -1.038  25.091  0.00  0.00    +0.191 C 
ATOM     16  C   UNL     1      -4.759  -0.578  24.919  0.00  0.00    +0.133 C 
ATOM     17  C   UNL     1      -1.640  -2.247  24.648  0.00  0.00    +0.235 C 
ATOM     18  C   UNL     1      -4.017   0.059  23.761  0.00  0.00    +0.183 C 
ATOM     19  C   UNL     1      -2.685  -3.057  23.914  0.00  0.00    +0.207 C 
ENDROOT
BRANCH  16  12
ATOM     12  N   UNL     1      -4.988   0.430  25.983  0.00  0.00    -0.182 NA
ATOM     34  H   UNL     1      -4.818   0.144  26.954  0.00  0.00    +0.148 HD
BRANCH  12   2
ATOM      2  S   UNL     1      -5.873   1.836  25.636  0.00  0.00    +0.059 S 
ATOM      9  O   UNL     1      -6.624   2.237  26.811  0.00  0.00    -0.153 OA
ATOM     10  O   UNL     1      -6.547   1.661  24.364  0.00  0.00    -0.153 OA
BRANCH   2  20
ATOM      1 CL   UNL     1      -1.326   6.036  24.728  0.00  0.00    -0.084 Cl
ATOM     20  C   UNL     1      -4.588   3.023  25.380  0.00  0.00    +0.105 A 
ATOM     22  C   UNL     1      -3.985   3.613  26.476  0.00  0.00    +0.030 A 
ATOM     23  C   UNL     1      -4.209   3.339  24.086  0.00  0.00    +0.030 A 
ATOM     25  C   UNL     1      -2.972   4.550  26.274  0.00  0.00    +0.022 A 
ATOM     26  C   UNL     1      -3.195   4.275  23.884  0.00  0.00    +0.022 A 
ATOM     27  C   UNL     1      -2.576   4.881  24.978  0.00  0.00    +0.041 A 
ENDBRANCH   2  20
ENDBRANCH  12   2
ENDBRANCH  16  12
BRANCH  17   8
ATOM      8  O   UNL     1      -0.539  -1.933  23.826  0.00  0.00    -0.442 OA
BRANCH   8  21
ATOM     11  O   UNL     1       0.761  -0.179  23.146  0.00  0.00    -0.226 OA
ATOM     13  N   UNL     1      -0.397  -0.135  25.180  0.00  0.00    -0.251 N 
ATOM     21  C   UNL     1       0.018  -0.680  23.981  0.00  0.00    +0.405 C 
ATOM     35  H   UNL     1      -1.019  -0.711  25.743  0.00  0.00    +0.158 HD
BRANCH  13  24
ATOM     24  C   UNL     1      -0.063   1.125  25.726  0.00  0.00    +0.037 A 
ATOM     28  C   UNL     1       0.374   1.204  27.039  0.00  0.00    +0.035 A 
ATOM     29  C   UNL     1      -0.176   2.258  24.936  0.00  0.00    +0.023 A 
ATOM     30  C   UNL     1       0.704   2.448  27.576  0.00  0.00    +0.057 A 
ATOM     31  C   UNL     1       0.155   3.502  25.472  0.00  0.00    +0.002 A 
ATOM     32  C   UNL     1       0.596   3.597  26.793  0.00  0.00    +0.012 A 
BRANCH  30  33
ATOM      3  F   UNL     1       0.241   3.061  29.841  0.00  0.00    -0.166 F 
ATOM      4  F   UNL     1       1.537   1.350  29.531  0.00  0.00    -0.166 F 
ATOM      5  F   UNL     1       2.271   3.356  29.118  0.00  0.00    -0.166 F 
ATOM     33  C   UNL     1       1.176   2.550  28.987  0.00  0.00    +0.417 C 
ENDBRANCH  30  33
ENDBRANCH  13  24
ENDBRANCH   8  21
ENDBRANCH  17   8
TORSDOF 7
ENDMDL
MODEL 8
REMARK VINA RESULT:       0.7      3.290      5.470
REMARK  Name = 11883979
REMARK  7 active torsions:
REMARK  status: ('A' for Active; 'I' for Inactive)
REMARK    1  A    between atoms: S_2  and  N_12
REMARK    2  A    between atoms: S_2  and  C_20
REMARK    3  A    between atoms: O_8  and  C_17
REMARK    4  A    between atoms: O_8  and  C_21
REMARK    5  A    between atoms: N_12  and  C_16
REMARK    6  A    between atoms: N_13  and  C_24
REMARK    7  A    between atoms: C_30  and  C_33
REMARK                            x       y       z     vdW  Elec       q    Type
REMARK                         _______ _______ _______ _____ _____    ______ ____
ROOT
ATOM      6  O   UNL     1      -3.416   3.728  24.024  0.00  0.00    -0.369 OA
ATOM      7  O   UNL     1      -3.647   5.279  26.671  0.00  0.00    -0.368 OA
ATOM     14  C   UNL     1      -2.655   4.352  26.183  0.00  0.00    +0.171 C 
ATOM     15  C   UNL     1      -3.393   3.290  25.393  0.00  0.00    +0.191 C 
ATOM     16  C   UNL     1      -1.780   5.028  25.158  0.00  0.00    +0.133 C 
ATOM     17  C   UNL     1      -4.771   3.320  26.011  0.00  0.00    +0.235 C 
ATOM     18  C   UNL     1      -2.592   4.896  23.884  0.00  0.00    +0.183 C 
ATOM     19  C   UNL     1      -4.950   4.789  26.319  0.00  0.00    +0.207 C 
ENDROOT
BRANCH  16  12
ATOM     12  N   UNL     1      -0.502   4.290  25.015  0.00  0.00    -0.182 NA
ATOM     34  H   UNL     1       0.137   4.582  24.266  0.00  0.00    +0.148 HD
BRANCH  12   2
ATOM      2  S   UNL     1      -0.305   2.788  25.782  0.00  0.00    +0.059 S 
ATOM      9  O   UNL     1      -1.584   2.336  26.297  0.00  0.00    -0.153 OA
ATOM     10  O   UNL     1       0.851   2.860  26.656  0.00  0.00    -0.153 OA
BRANCH   2  20
ATOM      1 CL   UNL     1       1.263  -0.914  20.989  0.00  0.00    -0.084 Cl
ATOM     20  C   UNL     1       0.138   1.742  24.428  0.00  0.00    +0.105 A 
ATOM     22  C   UNL     1       1.470   1.423  24.228  0.00  0.00    +0.030 A 
ATOM     23  C   UNL     1      -0.855   1.261  23.592  0.00  0.00    +0.030 A 
ATOM     25  C   UNL     1       1.820   0.598  23.159  0.00  0.00    +0.022 A 
ATOM     26  C   UNL     1      -0.506   0.435  22.523  0.00  0.00    +0.022 A 
ATOM     27  C   UNL     1       0.832   0.104  22.307  0.00  0.00    +0.041 A 
ENDBRANCH   2  20
ENDBRANCH  12   2
ENDBRANCH  16  12
BRANCH  17   8
ATOM      8  O   UNL     1      -5.781   2.830  25.159  0.00  0.00    -0.442 OA
BRANCH   8  21
ATOM     11  O   UNL     1      -6.630   0.888  24.299  0.00  0.00    -0.226 OA
ATOM     13  N   UNL     1      -4.409   1.045  25.020  0.00  0.00    -0.251 N 
ATOM     21  C   UNL     1      -5.687   1.507  24.776  0.00  0.00    +0.405 C 
ATOM     35  H   UNL     1      -3.759   1.715  25.426  0.00  0.00    +0.158 HD
BRANCH  13  24
ATOM     24  C   UNL     1      -3.889  -0.246  24.776  0.00  0.00    +0.037 A 
ATOM     28  C   UNL     1      -2.596  -0.545  25.176  0.00  0.00    +0.035 A 
ATOM     29  C   UNL     1      -4.682  -1.189  24.142  0.00  0.00    +0.023 A 
ATOM     30  C   UNL     1      -2.084  -1.820  24.935  0.00  0.00    +0.057 A 
ATOM     31  C   UNL     1      -4.171  -2.464  23.903  0.00  0.00    +0.002 A 
ATOM     32  C   UNL     1      -2.871  -2.781  24.300  0.00  0.00    +0.012 A 
BRANCH  30  33
ATOM      3  F   UNL     1      -0.518  -3.481  25.653  0.00  0.00    -0.166 F 
ATOM      4  F   UNL     1       0.250  -1.875  24.416  0.00  0.00    -0.166 F 
ATOM      5  F   UNL     1      -0.308  -1.481  26.480  0.00  0.00    -0.166 F 
ATOM     33  C   UNL     1      -0.694  -2.159  25.360  0.00  0.00    +0.417 C 
ENDBRANCH  30  33
ENDBRANCH  13  24
ENDBRANCH   8  21
ENDBRANCH  17   8
TORSDOF 7
ENDMDL
