MODEL 1
REMARK VINA RESULT:       4.9      0.000      0.000
REMARK  Name = 11887646
REMARK  7 active torsions:
REMARK  status: ('A' for Active; 'I' for Inactive)
REMARK    1  A    between atoms: S_1  and  N_8
REMARK    2  A    between atoms: S_1  and  C_17
REMARK    3  A    between atoms: O_6  and  C_25
REMARK    4  A    between atoms: O_6  and  C_29
REMARK    5  A    between atoms: O_7  and  C_28
REMARK    6  A    between atoms: O_7  and  C_30
REMARK    7  A    between atoms: N_10  and  C_18
REMARK                            x       y       z     vdW  Elec       q    Type
REMARK                         _______ _______ _______ _____ _____    ______ ____
ROOT
ATOM      2  O   UNL     1      -2.448   1.266  23.729  0.00  0.00    -0.273 OA
ATOM      5  O   UNL     1      -0.384  -2.631  25.370  0.00  0.00    -0.252 OA
ATOM      8  N   UNL     1      -4.831   0.332  24.474  0.00  0.00    -0.163 NA
ATOM      9  N   UNL     1      -2.619  -2.360  25.546  0.00  0.00    -0.294 N 
ATOM     10  N   UNL     1      -1.338  -0.670  24.478  0.00  0.00    -0.193 N 
ATOM     11  C   UNL     1      -3.844  -1.647  25.336  0.00  0.00    +0.103 C 
ATOM     12  C   UNL     1      -3.637  -0.151  25.237  0.00  0.00    +0.186 C 
ATOM     13  C   UNL     1      -4.557  -1.996  24.040  0.00  0.00    +0.041 C 
ATOM     14  C   UNL     1      -5.553  -0.851  23.915  0.00  0.00    +0.112 C 
ATOM     15  C   UNL     1      -2.428   0.234  24.405  0.00  0.00    +0.248 C 
ATOM     16  C   UNL     1      -1.375  -1.936  25.124  0.00  0.00    +0.313 C 
ATOM     36  H   UNL     1      -2.672  -3.261  26.011  0.00  0.00    +0.151 HD
ENDROOT
BRANCH  10  18
ATOM     18  C   UNL     1      -0.090  -0.272  23.857  0.00  0.00    +0.046 A 
ATOM     21  C   UNL     1       0.584   0.845  24.329  0.00  0.00    +0.027 A 
ATOM     22  C   UNL     1       0.412  -1.014  22.796  0.00  0.00    +0.027 A 
ATOM     26  C   UNL     1       1.785   1.227  23.730  0.00  0.00    +0.048 A 
ATOM     27  C   UNL     1       1.612  -0.631  22.196  0.00  0.00    +0.048 A 
ATOM     28  C   UNL     1       2.298   0.489  22.664  0.00  0.00    +0.129 A 
BRANCH  28   7
ATOM      7  O   UNL     1       3.471   0.862  22.080  0.00  0.00    -0.456 OA
BRANCH   7  30
ATOM     30  C   UNL     1       4.648   0.453  22.683  0.00  0.00    +0.128 A 
ATOM     31  C   UNL     1       5.554  -0.296  21.954  0.00  0.00    +0.046 A 
ATOM     32  C   UNL     1       4.887   0.803  24.000  0.00  0.00    +0.046 A 
ATOM     33  C   UNL     1       6.740  -0.709  22.562  0.00  0.00    +0.004 A 
ATOM     34  C   UNL     1       6.073   0.391  24.609  0.00  0.00    +0.004 A 
ATOM     35  C   UNL     1       6.999  -0.366  23.890  0.00  0.00    +0.000 A 
ENDBRANCH   7  30
ENDBRANCH  28   7
ENDBRANCH  10  18
BRANCH   8   1
ATOM      1  S   UNL     1      -5.774   1.563  25.174  0.00  0.00    +0.062 S 
ATOM      3  O   UNL     1      -6.073   1.219  26.552  0.00  0.00    -0.153 OA
ATOM      4  O   UNL     1      -6.839   1.932  24.260  0.00  0.00    -0.153 OA
BRANCH   1  17
ATOM     17  C   UNL     1      -4.605   2.888  25.198  0.00  0.00    +0.106 A 
ATOM     19  C   UNL     1      -4.303   3.544  24.017  0.00  0.00    +0.032 A 
ATOM     20  C   UNL     1      -4.012   3.246  26.397  0.00  0.00    +0.032 A 
ATOM     23  C   UNL     1      -3.380   4.590  24.034  0.00  0.00    +0.047 A 
ATOM     24  C   UNL     1      -3.089   4.292  26.415  0.00  0.00    +0.047 A 
ATOM     25  C   UNL     1      -2.773   4.964  25.234  0.00  0.00    +0.120 A 
BRANCH  25   6
ATOM      6  O   UNL     1      -1.873   5.985  25.252  0.00  0.00    -0.495 OA
ATOM     29  C   UNL     1      -0.592   5.730  24.678  0.00  0.00    +0.277 C 
ENDBRANCH  25   6
ENDBRANCH   1  17
ENDBRANCH   8   1
TORSDOF 6
ENDMDL
