MODEL 1
REMARK VINA RESULT:      -3.7      0.000      0.000
REMARK  Name = 45360660
REMARK  10 active torsions:
REMARK  status: ('A' for Active; 'I' for Inactive)
REMARK    1  A    between atoms: O_3  and  C_31
REMARK    2  A    between atoms: O_3  and  C_32
REMARK    3  A    between atoms: N_6  and  C_9
REMARK    4  A    between atoms: N_6  and  C_17
REMARK    5  A    between atoms: N_7  and  C_22
REMARK    6  A    between atoms: C_10  and  C_15
REMARK    7  A    between atoms: C_15  and  C_16
REMARK    8  A    between atoms: C_16  and  C_18
REMARK    9  A    between atoms: C_17  and  C_19
REMARK   10  A    between atoms: C_22  and  C_26
REMARK                            x       y       z     vdW  Elec       q    Type
REMARK                         _______ _______ _______ _____ _____    ______ ____
ROOT
ATOM      1  O   UNL     1       0.982   2.680  26.884  0.00  0.00    -0.274 OA
ATOM      4  N   UNL     1      -1.857   2.279  24.626  0.00  0.00    -0.286 NA
ATOM      5  N   UNL     1      -0.437   4.244  26.039  0.00  0.00    -0.313 N 
ATOM      8  C   UNL     1      -0.868   1.829  25.613  0.00  0.00    +0.145 C 
ATOM      9  C   UNL     1      -0.545   0.832  23.422  0.00  0.00    +0.070 C 
ATOM     10  C   UNL     1      -2.527   3.528  24.974  0.00  0.00    +0.075 C 
ATOM     11  C   UNL     1       0.013   0.830  24.846  0.00  0.00    +0.048 C 
ATOM     12  C   UNL     1      -1.228   2.188  23.311  0.00  0.00    +0.104 C 
ATOM     13  C   UNL     1      -1.517   4.648  25.168  0.00  0.00    +0.123 C 
ATOM     14  C   UNL     1      -0.018   2.947  26.210  0.00  0.00    +0.230 C 
ATOM     33  H   UNL     1       0.125   4.977  26.459  0.00  0.00    +0.149 HD
ENDROOT
BRANCH   9   6
ATOM      6  N   UNL     1       0.476   0.612  22.410  0.00  0.00    -0.308 NA
ATOM     34  H   UNL     1       0.028   0.532  21.497  0.00  0.00    +0.123 HD
BRANCH   6  17
ATOM     17  C   UNL     1       1.222  -0.612  22.676  0.00  0.00    +0.116 C 
BRANCH  17  19
ATOM     19  C   UNL     1       2.672  -0.331  22.968  0.00  0.00    -0.034 A 
ATOM     20  C   UNL     1       3.454  -1.295  23.603  0.00  0.00    +0.005 A 
ATOM     21  C   UNL     1       3.232   0.894  22.605  0.00  0.00    +0.005 A 
ATOM     23  C   UNL     1       4.798  -1.036  23.874  0.00  0.00    +0.000 A 
ATOM     24  C   UNL     1       4.577   1.153  22.875  0.00  0.00    +0.000 A 
ATOM     25  C   UNL     1       5.359   0.188  23.510  0.00  0.00    +0.000 A 
ENDBRANCH  17  19
ENDBRANCH   6  17
ENDBRANCH   9   6
BRANCH  10  15
ATOM     15  C   UNL     1      -3.601   3.927  23.960  0.00  0.00    +0.029 C 
BRANCH  15  16
ATOM     16  C   UNL     1      -4.960   4.083  24.630  0.00  0.00    +0.097 C 
BRANCH  16  18
ATOM      2  O   UNL     1      -5.842   2.793  26.478  0.00  0.00    -0.276 OA
ATOM      7  N   UNL     1      -5.238   1.698  24.523  0.00  0.00    -0.311 N 
ATOM     18  C   UNL     1      -5.400   2.812  25.333  0.00  0.00    +0.213 C 
ATOM     35  H   UNL     1      -4.839   1.798  23.595  0.00  0.00    +0.149 HD
BRANCH   7  22
ATOM     22  C   UNL     1      -5.585   0.368  24.964  0.00  0.00    +0.139 C 
BRANCH  22  26
ATOM     26  C   UNL     1      -4.394  -0.554  24.955  0.00  0.00    -0.030 A 
ATOM     27  C   UNL     1      -4.191  -1.421  23.881  0.00  0.00    +0.009 A 
ATOM     28  C   UNL     1      -3.493  -0.540  26.020  0.00  0.00    +0.009 A 
ATOM     29  C   UNL     1      -3.086  -2.272  23.872  0.00  0.00    +0.046 A 
ATOM     30  C   UNL     1      -2.389  -1.392  26.011  0.00  0.00    +0.046 A 
ATOM     31  C   UNL     1      -2.186  -2.258  24.936  0.00  0.00    +0.120 A 
BRANCH  31   3
ATOM      3  O   UNL     1      -1.107  -3.089  24.927  0.00  0.00    -0.495 OA
ATOM     32  C   UNL     1       0.105  -2.584  25.484  0.00  0.00    +0.277 C 
ENDBRANCH  31   3
ENDBRANCH  22  26
ENDBRANCH   7  22
ENDBRANCH  16  18
ENDBRANCH  15  16
ENDBRANCH  10  15
TORSDOF 9
ENDMDL
MODEL 2
REMARK VINA RESULT:      -2.6      1.747      2.674
REMARK  Name = 45360660
REMARK  10 active torsions:
REMARK  status: ('A' for Active; 'I' for Inactive)
REMARK    1  A    between atoms: O_3  and  C_31
REMARK    2  A    between atoms: O_3  and  C_32
REMARK    3  A    between atoms: N_6  and  C_9
REMARK    4  A    between atoms: N_6  and  C_17
REMARK    5  A    between atoms: N_7  and  C_22
REMARK    6  A    between atoms: C_10  and  C_15
REMARK    7  A    between atoms: C_15  and  C_16
REMARK    8  A    between atoms: C_16  and  C_18
REMARK    9  A    between atoms: C_17  and  C_19
REMARK   10  A    between atoms: C_22  and  C_26
REMARK                            x       y       z     vdW  Elec       q    Type
REMARK                         _______ _______ _______ _____ _____    ______ ____
ROOT
ATOM      1  O   UNL     1      -0.881  -1.018  26.683  0.00  0.00    -0.274 OA
ATOM      4  N   UNL     1      -0.648   1.753  24.318  0.00  0.00    -0.286 NA
ATOM      5  N   UNL     1      -0.196   1.125  27.016  0.00  0.00    -0.313 N 
ATOM      8  C   UNL     1      -1.145   0.462  24.811  0.00  0.00    +0.145 C 
ATOM      9  C   UNL     1       0.239   0.251  22.827  0.00  0.00    +0.070 C 
ATOM     10  C   UNL     1      -0.670   2.823  25.310  0.00  0.00    +0.075 C 
ATOM     11  C   UNL     1      -0.593  -0.569  23.814  0.00  0.00    +0.048 C 
ATOM     12  C   UNL     1       0.611   1.494  23.623  0.00  0.00    +0.104 C 
ATOM     13  C   UNL     1       0.148   2.443  26.534  0.00  0.00    +0.123 C 
ATOM     14  C   UNL     1      -0.711   0.120  26.234  0.00  0.00    +0.230 C 
ATOM     33  H   UNL     1       0.069   0.890  27.967  0.00  0.00    +0.149 HD
ENDROOT
BRANCH   9   6
ATOM      6  N   UNL     1       1.390  -0.473  22.312  0.00  0.00    -0.308 NA
ATOM     34  H   UNL     1       1.669  -1.181  22.992  0.00  0.00    +0.123 HD
BRANCH   6  17
ATOM     17  C   UNL     1       2.514   0.426  22.081  0.00  0.00    +0.116 C 
BRANCH  17  19
ATOM     19  C   UNL     1       3.723   0.031  22.887  0.00  0.00    -0.034 A 
ATOM     20  C   UNL     1       3.833  -1.267  23.387  0.00  0.00    +0.005 A 
ATOM     21  C   UNL     1       4.731   0.962  23.135  0.00  0.00    +0.005 A 
ATOM     23  C   UNL     1       4.953  -1.634  24.134  0.00  0.00    +0.000 A 
ATOM     24  C   UNL     1       5.851   0.595  23.882  0.00  0.00    +0.000 A 
ATOM     25  C   UNL     1       5.962  -0.703  24.382  0.00  0.00    +0.000 A 
ENDBRANCH  17  19
ENDBRANCH   6  17
ENDBRANCH   9   6
BRANCH  10  15
ATOM     15  C   UNL     1      -0.215   4.168  24.741  0.00  0.00    +0.029 C 
BRANCH  15  16
ATOM     16  C   UNL     1      -1.249   5.254  25.000  0.00  0.00    +0.097 C 
BRANCH  16  18
ATOM      2  O   UNL     1      -3.039   4.734  26.544  0.00  0.00    -0.276 OA
ATOM      7  N   UNL     1      -3.241   4.091  24.323  0.00  0.00    -0.311 N 
ATOM     18  C   UNL     1      -2.595   4.678  25.401  0.00  0.00    +0.213 C 
ATOM     35  H   UNL     1      -2.791   4.064  23.413  0.00  0.00    +0.149 HD
BRANCH   7  22
ATOM     22  C   UNL     1      -4.539   3.471  24.446  0.00  0.00    +0.139 C 
BRANCH  22  26
ATOM     26  C   UNL     1      -4.454   1.970  24.349  0.00  0.00    -0.030 A 
ATOM     27  C   UNL     1      -4.976   1.175  25.369  0.00  0.00    +0.009 A 
ATOM     28  C   UNL     1      -3.858   1.376  23.237  0.00  0.00    +0.009 A 
ATOM     29  C   UNL     1      -4.901  -0.215  25.277  0.00  0.00    +0.046 A 
ATOM     30  C   UNL     1      -3.782  -0.014  23.145  0.00  0.00    +0.046 A 
ATOM     31  C   UNL     1      -4.304  -0.809  24.166  0.00  0.00    +0.120 A 
BRANCH  31   3
ATOM      3  O   UNL     1      -4.231  -2.166  24.075  0.00  0.00    -0.495 OA
ATOM     32  C   UNL     1      -3.353  -2.830  24.981  0.00  0.00    +0.277 C 
ENDBRANCH  31   3
ENDBRANCH  22  26
ENDBRANCH   7  22
ENDBRANCH  16  18
ENDBRANCH  15  16
ENDBRANCH  10  15
TORSDOF 9
ENDMDL
MODEL 3
REMARK VINA RESULT:      -0.5      1.849      6.053
REMARK  Name = 45360660
REMARK  10 active torsions:
REMARK  status: ('A' for Active; 'I' for Inactive)
REMARK    1  A    between atoms: O_3  and  C_31
REMARK    2  A    between atoms: O_3  and  C_32
REMARK    3  A    between atoms: N_6  and  C_9
REMARK    4  A    between atoms: N_6  and  C_17
REMARK    5  A    between atoms: N_7  and  C_22
REMARK    6  A    between atoms: C_10  and  C_15
REMARK    7  A    between atoms: C_15  and  C_16
REMARK    8  A    between atoms: C_16  and  C_18
REMARK    9  A    between atoms: C_17  and  C_19
REMARK   10  A    between atoms: C_22  and  C_26
REMARK                            x       y       z     vdW  Elec       q    Type
REMARK                         _______ _______ _______ _____ _____    ______ ____
ROOT
ATOM      1  O   UNL     1      -6.238   4.557  25.761  0.00  0.00    -0.274 OA
ATOM      4  N   UNL     1      -3.068   3.245  24.514  0.00  0.00    -0.286 NA
ATOM      5  N   UNL     1      -4.142   4.753  26.623  0.00  0.00    -0.313 N 
ATOM      8  C   UNL     1      -4.465   3.681  24.399  0.00  0.00    +0.145 C 
ATOM      9  C   UNL     1      -4.186   1.292  24.070  0.00  0.00    +0.070 C 
ATOM     10  C   UNL     1      -2.205   4.178  25.232  0.00  0.00    +0.075 C 
ATOM     11  C   UNL     1      -5.242   2.397  24.069  0.00  0.00    +0.048 C 
ATOM     12  C   UNL     1      -3.084   1.854  24.957  0.00  0.00    +0.104 C 
ATOM     13  C   UNL     1      -2.733   4.432  26.635  0.00  0.00    +0.123 C 
ATOM     14  C   UNL     1      -5.026   4.342  25.655  0.00  0.00    +0.230 C 
ATOM     33  H   UNL     1      -4.525   5.210  27.444  0.00  0.00    +0.149 HD
ENDROOT
BRANCH   9   6
ATOM      6  N   UNL     1      -4.701   0.011  24.526  0.00  0.00    -0.308 NA
ATOM     34  H   UNL     1      -5.691   0.110  24.750  0.00  0.00    +0.123 HD
BRANCH   6  17
ATOM     17  C   UNL     1      -3.993  -0.444  25.716  0.00  0.00    +0.116 C 
BRANCH  17  19
ATOM     19  C   UNL     1      -2.781  -1.266  25.368  0.00  0.00    -0.034 A 
ATOM     20  C   UNL     1      -2.898  -2.342  24.488  0.00  0.00    +0.005 A 
ATOM     21  C   UNL     1      -1.541  -0.952  25.925  0.00  0.00    +0.005 A 
ATOM     23  C   UNL     1      -1.775  -3.104  24.164  0.00  0.00    +0.000 A 
ATOM     24  C   UNL     1      -0.418  -1.714  25.601  0.00  0.00    +0.000 A 
ATOM     25  C   UNL     1      -0.535  -2.790  24.721  0.00  0.00    +0.000 A 
ENDBRANCH  17  19
ENDBRANCH   6  17
ENDBRANCH   9   6
BRANCH  10  15
ATOM     15  C   UNL     1      -0.744   3.727  25.268  0.00  0.00    +0.029 C 
BRANCH  15  16
ATOM     16  C   UNL     1      -0.306   3.171  23.920  0.00  0.00    +0.097 C 
BRANCH  16  18
ATOM      2  O   UNL     1       0.642   1.294  25.118  0.00  0.00    -0.276 OA
ATOM      7  N   UNL     1       0.463   1.185  22.807  0.00  0.00    -0.311 N 
ATOM     18  C   UNL     1       0.316   1.793  24.045  0.00  0.00    +0.213 C 
ATOM     35  H   UNL     1       0.192   1.679  21.962  0.00  0.00    +0.149 HD
BRANCH   7  22
ATOM     22  C   UNL     1       1.033  -0.133  22.658  0.00  0.00    +0.139 C 
BRANCH  22  26
ATOM     26  C   UNL     1       2.505  -0.148  22.978  0.00  0.00    -0.030 A 
ATOM     27  C   UNL     1       3.288   0.974  22.705  0.00  0.00    +0.009 A 
ATOM     28  C   UNL     1       3.083  -1.281  23.548  0.00  0.00    +0.009 A 
ATOM     29  C   UNL     1       4.650   0.961  23.004  0.00  0.00    +0.046 A 
ATOM     30  C   UNL     1       4.446  -1.294  23.847  0.00  0.00    +0.046 A 
ATOM     31  C   UNL     1       5.229  -0.172  23.574  0.00  0.00    +0.120 A 
BRANCH  31   3
ATOM      3  O   UNL     1       6.559  -0.184  23.867  0.00  0.00    -0.495 OA
ATOM     32  C   UNL     1       7.451  -0.545  22.815  0.00  0.00    +0.277 C 
ENDBRANCH  31   3
ENDBRANCH  22  26
ENDBRANCH   7  22
ENDBRANCH  16  18
ENDBRANCH  15  16
ENDBRANCH  10  15
TORSDOF 9
ENDMDL
