MODEL 1
REMARK VINA RESULT:      -5.9      0.000      0.000
REMARK  Name = 11943564
REMARK  7 active torsions:
REMARK  status: ('A' for Active; 'I' for Inactive)
REMARK    1  A    between atoms: O_1  and  C_20
REMARK    2  A    between atoms: O_1  and  C_21
REMARK    3  A    between atoms: N_3  and  C_11
REMARK    4  A    between atoms: N_3  and  C_14
REMARK    5  A    between atoms: C_5  and  C_11
REMARK    6  A    between atoms: C_6  and  C_12
REMARK    7  A    between atoms: C_14  and  C_15
REMARK                            x       y       z     vdW  Elec       q    Type
REMARK                         _______ _______ _______ _____ _____    ______ ____
ROOT
ATOM      3  N   UNL     1       0.166   0.790  25.063  0.00  0.00    -0.311 NA
ATOM     22  H   UNL     1       1.109   0.471  25.283  0.00  0.00    +0.122 HD
ENDROOT
BRANCH   3  11
ATOM     11  C   UNL     1      -0.416  -0.079  24.053  0.00  0.00    +0.100 C 
BRANCH  11   5
ATOM      2  N   UNL     1      -2.169  -1.850  23.769  0.00  0.00    -0.298 NA
ATOM      4  C   UNL     1      -3.331  -1.341  26.041  0.00  0.00    -0.000 C 
ATOM      5  C   UNL     1      -1.200  -1.219  24.707  0.00  0.00    +0.071 C 
ATOM      6  C   UNL     1      -4.142  -0.745  24.865  0.00  0.00    +0.028 C 
ATOM      7  C   UNL     1      -1.902  -0.763  26.005  0.00  0.00    +0.024 C 
ATOM      8  C   UNL     1      -3.224  -2.857  25.795  0.00  0.00    +0.019 C 
ATOM      9  C   UNL     1      -3.338  -0.959  23.560  0.00  0.00    +0.092 C 
ATOM     10  C   UNL     1      -2.653  -3.107  24.389  0.00  0.00    +0.085 C 
BRANCH   6  12
ATOM     12  C   UNL     1      -4.496   0.696  25.072  0.00  0.00    -0.030 C 
ATOM     13  C   UNL     1      -5.749   1.165  25.082  0.00  0.00    +0.004 C 
ENDBRANCH   6  12
ENDBRANCH  11   5
ENDBRANCH   3  11
BRANCH   3  14
ATOM     14  C   UNL     1       0.211   2.173  24.601  0.00  0.00    +0.116 C 
BRANCH  14  15
ATOM     15  C   UNL     1      -1.147   2.821  24.641  0.00  0.00    -0.033 A 
ATOM     16  C   UNL     1      -1.550   3.492  25.788  0.00  0.00    +0.008 A 
ATOM     17  C   UNL     1      -1.974   2.741  23.531  0.00  0.00    +0.008 A 
ATOM     18  C   UNL     1      -2.809   4.092  25.825  0.00  0.00    +0.046 A 
ATOM     19  C   UNL     1      -3.233   3.342  23.568  0.00  0.00    +0.046 A 
ATOM     20  C   UNL     1      -3.650   4.018  24.715  0.00  0.00    +0.120 A 
BRANCH  20   1
ATOM      1  O   UNL     1      -4.878   4.605  24.752  0.00  0.00    -0.495 OA
ATOM     21  C   UNL     1      -5.783   4.151  25.757  0.00  0.00    +0.277 C 
ENDBRANCH  20   1
ENDBRANCH  14  15
ENDBRANCH   3  14
TORSDOF 6
ENDMDL
MODEL 2
REMARK VINA RESULT:      -5.3      1.751      2.909
REMARK  Name = 11943564
REMARK  7 active torsions:
REMARK  status: ('A' for Active; 'I' for Inactive)
REMARK    1  A    between atoms: O_1  and  C_20
REMARK    2  A    between atoms: O_1  and  C_21
REMARK    3  A    between atoms: N_3  and  C_11
REMARK    4  A    between atoms: N_3  and  C_14
REMARK    5  A    between atoms: C_5  and  C_11
REMARK    6  A    between atoms: C_6  and  C_12
REMARK    7  A    between atoms: C_14  and  C_15
REMARK                            x       y       z     vdW  Elec       q    Type
REMARK                         _______ _______ _______ _____ _____    ______ ____
ROOT
ATOM      3  N   UNL     1      -0.205   3.892  24.994  0.00  0.00    -0.311 NA
ATOM     22  H   UNL     1      -0.048   3.527  24.055  0.00  0.00    +0.122 HD
ENDROOT
BRANCH   3  11
ATOM     11  C   UNL     1      -0.539   2.797  25.890  0.00  0.00    +0.100 C 
BRANCH  11   5
ATOM      2  N   UNL     1      -0.236   1.374  23.847  0.00  0.00    -0.298 NA
ATOM      4  C   UNL     1      -1.113  -0.794  24.988  0.00  0.00    -0.000 C 
ATOM      5  C   UNL     1      -0.050   1.463  25.322  0.00  0.00    +0.071 C 
ATOM      6  C   UNL     1      -2.193  -0.187  24.061  0.00  0.00    +0.028 C 
ATOM      7  C   UNL     1      -0.704   0.260  26.037  0.00  0.00    +0.024 C 
ATOM      8  C   UNL     1       0.123  -1.082  24.116  0.00  0.00    +0.019 C 
ATOM      9  C   UNL     1      -1.668   1.165  23.520  0.00  0.00    +0.092 C 
ATOM     10  C   UNL     1       0.524   0.197  23.362  0.00  0.00    +0.085 C 
BRANCH   6  12
ATOM     12  C   UNL     1      -3.523  -0.039  24.735  0.00  0.00    -0.030 C 
ATOM     13  C   UNL     1      -4.634  -0.675  24.346  0.00  0.00    +0.004 C 
ENDBRANCH   6  12
ENDBRANCH  11   5
ENDBRANCH   3  11
BRANCH   3  14
ATOM     14  C   UNL     1      -1.270   4.887  24.963  0.00  0.00    +0.116 C 
BRANCH  14  15
ATOM     15  C   UNL     1      -2.632   4.254  25.069  0.00  0.00    -0.033 A 
ATOM     16  C   UNL     1      -3.286   3.843  23.916  0.00  0.00    +0.008 A 
ATOM     17  C   UNL     1      -3.212   4.089  26.318  0.00  0.00    +0.008 A 
ATOM     18  C   UNL     1      -4.548   3.256  24.015  0.00  0.00    +0.046 A 
ATOM     19  C   UNL     1      -4.474   3.502  26.417  0.00  0.00    +0.046 A 
ATOM     20  C   UNL     1      -5.142   3.086  25.265  0.00  0.00    +0.120 A 
BRANCH  20   1
ATOM      1  O   UNL     1      -6.373   2.513  25.360  0.00  0.00    -0.495 OA
ATOM     21  C   UNL     1      -6.604   1.656  26.477  0.00  0.00    +0.277 C 
ENDBRANCH  20   1
ENDBRANCH  14  15
ENDBRANCH   3  14
TORSDOF 6
ENDMDL
MODEL 3
REMARK VINA RESULT:      -5.2      1.720      3.649
REMARK  Name = 11943564
REMARK  7 active torsions:
REMARK  status: ('A' for Active; 'I' for Inactive)
REMARK    1  A    between atoms: O_1  and  C_20
REMARK    2  A    between atoms: O_1  and  C_21
REMARK    3  A    between atoms: N_3  and  C_11
REMARK    4  A    between atoms: N_3  and  C_14
REMARK    5  A    between atoms: C_5  and  C_11
REMARK    6  A    between atoms: C_6  and  C_12
REMARK    7  A    between atoms: C_14  and  C_15
REMARK                            x       y       z     vdW  Elec       q    Type
REMARK                         _______ _______ _______ _____ _____    ______ ____
ROOT
ATOM      3  N   UNL     1      -5.319   0.555  24.422  0.00  0.00    -0.311 NA
ATOM     22  H   UNL     1      -6.133  -0.026  24.221  0.00  0.00    +0.122 HD
ENDROOT
BRANCH   3  11
ATOM     11  C   UNL     1      -4.431  -0.152  25.330  0.00  0.00    +0.100 C 
BRANCH  11   5
ATOM      2  N   UNL     1      -2.304  -1.472  25.472  0.00  0.00    -0.298 NA
ATOM      4  C   UNL     1      -0.973   0.133  23.915  0.00  0.00    -0.000 C 
ATOM      5  C   UNL     1      -3.240  -0.743  24.573  0.00  0.00    +0.071 C 
ATOM      6  C   UNL     1      -0.596   0.369  25.397  0.00  0.00    +0.028 C 
ATOM      7  C   UNL     1      -2.494   0.330  23.749  0.00  0.00    +0.024 C 
ATOM      8  C   UNL     1      -0.660  -1.341  23.597  0.00  0.00    +0.019 C 
ATOM      9  C   UNL     1      -1.512  -0.512  26.280  0.00  0.00    +0.092 C 
ATOM     10  C   UNL     1      -1.364  -2.245  24.623  0.00  0.00    +0.085 C 
BRANCH   6  12
ATOM     12  C   UNL     1      -0.662   1.813  25.793  0.00  0.00    -0.030 C 
ATOM     13  C   UNL     1       0.219   2.408  26.604  0.00  0.00    +0.004 C 
ENDBRANCH   6  12
ENDBRANCH  11   5
ENDBRANCH   3  11
BRANCH   3  14
ATOM     14  C   UNL     1      -5.750   1.825  24.994  0.00  0.00    +0.116 C 
BRANCH  14  15
ATOM     15  C   UNL     1      -4.623   2.821  25.061  0.00  0.00    -0.033 A 
ATOM     16  C   UNL     1      -4.254   3.353  26.289  0.00  0.00    +0.008 A 
ATOM     17  C   UNL     1      -3.970   3.192  23.894  0.00  0.00    +0.008 A 
ATOM     18  C   UNL     1      -3.210   4.276  26.350  0.00  0.00    +0.046 A 
ATOM     19  C   UNL     1      -2.926   4.115  23.957  0.00  0.00    +0.046 A 
ATOM     20  C   UNL     1      -2.545   4.657  25.184  0.00  0.00    +0.120 A 
BRANCH  20   1
ATOM      1  O   UNL     1      -1.526   5.557  25.246  0.00  0.00    -0.495 OA
ATOM     21  C   UNL     1      -0.363   5.274  24.470  0.00  0.00    +0.277 C 
ENDBRANCH  20   1
ENDBRANCH  14  15
ENDBRANCH   3  14
TORSDOF 6
ENDMDL
MODEL 4
REMARK VINA RESULT:      -4.7      2.595      5.965
REMARK  Name = 11943564
REMARK  7 active torsions:
REMARK  status: ('A' for Active; 'I' for Inactive)
REMARK    1  A    between atoms: O_1  and  C_20
REMARK    2  A    between atoms: O_1  and  C_21
REMARK    3  A    between atoms: N_3  and  C_11
REMARK    4  A    between atoms: N_3  and  C_14
REMARK    5  A    between atoms: C_5  and  C_11
REMARK    6  A    between atoms: C_6  and  C_12
REMARK    7  A    between atoms: C_14  and  C_15
REMARK                            x       y       z     vdW  Elec       q    Type
REMARK                         _______ _______ _______ _____ _____    ______ ____
ROOT
ATOM      3  N   UNL     1      -5.070   2.553  24.849  0.00  0.00    -0.311 NA
ATOM     22  H   UNL     1      -4.350   2.512  24.128  0.00  0.00    +0.122 HD
ENDROOT
BRANCH   3  11
ATOM     11  C   UNL     1      -4.485   3.031  26.090  0.00  0.00    +0.100 C 
BRANCH  11   5
ATOM      2  N   UNL     1      -3.140   4.249  24.360  0.00  0.00    -0.298 NA
ATOM      4  C   UNL     1      -0.846   3.572  25.382  0.00  0.00    -0.000 C 
ATOM      5  C   UNL     1      -3.297   3.953  25.810  0.00  0.00    +0.071 C 
ATOM      6  C   UNL     1      -1.162   2.718  24.131  0.00  0.00    +0.028 C 
ATOM      7  C   UNL     1      -1.985   3.397  26.407  0.00  0.00    +0.024 C 
ATOM      8  C   UNL     1      -0.846   5.046  24.937  0.00  0.00    +0.019 C 
ATOM      9  C   UNL     1      -2.589   3.068  23.649  0.00  0.00    +0.092 C 
ATOM     10  C   UNL     1      -2.170   5.363  24.223  0.00  0.00    +0.085 C 
BRANCH   6  12
ATOM     12  C   UNL     1      -0.999   1.248  24.372  0.00  0.00    -0.030 C 
ATOM     13  C   UNL     1      -0.062   0.493  23.789  0.00  0.00    +0.004 C 
ENDBRANCH   6  12
ENDBRANCH  11   5
ENDBRANCH   3  11
BRANCH   3  14
ATOM     14  C   UNL     1      -5.666   1.234  25.024  0.00  0.00    +0.116 C 
BRANCH  14  15
ATOM     15  C   UNL     1      -4.641   0.137  24.919  0.00  0.00    -0.033 A 
ATOM     16  C   UNL     1      -4.375  -0.434  23.681  0.00  0.00    +0.008 A 
ATOM     17  C   UNL     1      -3.975  -0.286  26.060  0.00  0.00    +0.008 A 
ATOM     18  C   UNL     1      -3.425  -1.450  23.585  0.00  0.00    +0.046 A 
ATOM     19  C   UNL     1      -3.024  -1.303  25.963  0.00  0.00    +0.046 A 
ATOM     20  C   UNL     1      -2.749  -1.885  24.725  0.00  0.00    +0.120 A 
BRANCH  20   1
ATOM      1  O   UNL     1      -1.822  -2.876  24.629  0.00  0.00    -0.495 OA
ATOM     21  C   UNL     1      -0.534  -2.615  25.184  0.00  0.00    +0.277 C 
ENDBRANCH  20   1
ENDBRANCH  14  15
ENDBRANCH   3  14
TORSDOF 6
ENDMDL
MODEL 5
REMARK VINA RESULT:      -4.3      2.523      5.061
REMARK  Name = 11943564
REMARK  7 active torsions:
REMARK  status: ('A' for Active; 'I' for Inactive)
REMARK    1  A    between atoms: O_1  and  C_20
REMARK    2  A    between atoms: O_1  and  C_21
REMARK    3  A    between atoms: N_3  and  C_11
REMARK    4  A    between atoms: N_3  and  C_14
REMARK    5  A    between atoms: C_5  and  C_11
REMARK    6  A    between atoms: C_6  and  C_12
REMARK    7  A    between atoms: C_14  and  C_15
REMARK                            x       y       z     vdW  Elec       q    Type
REMARK                         _______ _______ _______ _____ _____    ______ ____
ROOT
ATOM      3  N   UNL     1      -0.522   3.347  24.931  0.00  0.00    -0.311 NA
ATOM     22  H   UNL     1      -0.029   4.210  24.701  0.00  0.00    +0.122 HD
ENDROOT
BRANCH   3  11
ATOM     11  C   UNL     1      -1.315   3.547  26.132  0.00  0.00    +0.100 C 
BRANCH  11   5
ATOM      2  N   UNL     1      -3.754   2.973  26.237  0.00  0.00    -0.298 NA
ATOM      4  C   UNL     1      -4.216   3.626  23.761  0.00  0.00    -0.000 C 
ATOM      5  C   UNL     1      -2.744   3.963  25.775  0.00  0.00    +0.071 C 
ATOM      6  C   UNL     1      -4.134   2.089  23.916  0.00  0.00    +0.028 C 
ATOM      7  C   UNL     1      -2.898   4.250  24.265  0.00  0.00    +0.024 C 
ATOM      8  C   UNL     1      -5.344   4.116  24.688  0.00  0.00    +0.019 C 
ATOM      9  C   UNL     1      -3.725   1.766  25.373  0.00  0.00    +0.092 C 
ATOM     10  C   UNL     1      -5.094   3.595  26.113  0.00  0.00    +0.085 C 
BRANCH   6  12
ATOM     12  C   UNL     1      -3.210   1.451  22.923  0.00  0.00    -0.030 C 
ATOM     13  C   UNL     1      -2.560   2.122  21.966  0.00  0.00    +0.004 C 
ENDBRANCH   6  12
ENDBRANCH  11   5
ENDBRANCH   3  11
BRANCH   3  14
ATOM     14  C   UNL     1       0.439   2.265  25.112  0.00  0.00    +0.116 C 
BRANCH  14  15
ATOM     15  C   UNL     1      -0.193   0.914  24.914  0.00  0.00    -0.033 A 
ATOM     16  C   UNL     1      -0.982   0.374  25.921  0.00  0.00    +0.008 A 
ATOM     17  C   UNL     1       0.020   0.228  23.727  0.00  0.00    +0.008 A 
ATOM     18  C   UNL     1      -1.567  -0.878  25.737  0.00  0.00    +0.046 A 
ATOM     19  C   UNL     1      -0.566  -1.025  23.543  0.00  0.00    +0.046 A 
ATOM     20  C   UNL     1      -1.360  -1.577  24.548  0.00  0.00    +0.120 A 
BRANCH  20   1
ATOM      1  O   UNL     1      -1.933  -2.799  24.370  0.00  0.00    -0.495 OA
ATOM     21  C   UNL     1      -3.353  -2.872  24.486  0.00  0.00    +0.277 C 
ENDBRANCH  20   1
ENDBRANCH  14  15
ENDBRANCH   3  14
TORSDOF 6
ENDMDL
MODEL 6
REMARK VINA RESULT:      -4.0      2.287      5.248
REMARK  Name = 11943564
REMARK  7 active torsions:
REMARK  status: ('A' for Active; 'I' for Inactive)
REMARK    1  A    between atoms: O_1  and  C_20
REMARK    2  A    between atoms: O_1  and  C_21
REMARK    3  A    between atoms: N_3  and  C_11
REMARK    4  A    between atoms: N_3  and  C_14
REMARK    5  A    between atoms: C_5  and  C_11
REMARK    6  A    between atoms: C_6  and  C_12
REMARK    7  A    between atoms: C_14  and  C_15
REMARK                            x       y       z     vdW  Elec       q    Type
REMARK                         _______ _______ _______ _____ _____    ______ ____
ROOT
ATOM      3  N   UNL     1       0.017   1.423  25.407  0.00  0.00    -0.311 NA
ATOM     22  H   UNL     1       0.050   2.355  25.818  0.00  0.00    +0.122 HD
ENDROOT
BRANCH   3  11
ATOM     11  C   UNL     1      -0.847   1.439  24.239  0.00  0.00    +0.100 C 
BRANCH  11   5
ATOM      2  N   UNL     1      -1.696   3.529  25.335  0.00  0.00    -0.298 NA
ATOM      4  C   UNL     1      -3.832   3.672  23.856  0.00  0.00    -0.000 C 
ATOM      5  C   UNL     1      -1.469   2.824  24.044  0.00  0.00    +0.071 C 
ATOM      6  C   UNL     1      -4.175   3.129  25.264  0.00  0.00    +0.028 C 
ATOM      7  C   UNL     1      -2.770   2.757  23.213  0.00  0.00    +0.024 C 
ATOM      8  C   UNL     1      -3.192   5.059  24.049  0.00  0.00    +0.019 C 
ATOM      9  C   UNL     1      -2.855   2.938  26.049  0.00  0.00    +0.092 C 
ATOM     10  C   UNL     1      -2.015   4.945  25.032  0.00  0.00    +0.085 C 
BRANCH   6  12
ATOM     12  C   UNL     1      -4.986   1.869  25.222  0.00  0.00    -0.030 C 
ATOM     13  C   UNL     1      -6.320   1.834  25.315  0.00  0.00    +0.004 C 
ENDBRANCH   6  12
ENDBRANCH  11   5
ENDBRANCH   3  11
BRANCH   3  14
ATOM     14  C   UNL     1      -0.462   0.466  26.399  0.00  0.00    +0.116 C 
BRANCH  14  15
ATOM     15  C   UNL     1      -1.355  -0.578  25.784  0.00  0.00    -0.033 A 
ATOM     16  C   UNL     1      -0.799  -1.573  24.992  0.00  0.00    +0.008 A 
ATOM     17  C   UNL     1      -2.722  -0.531  26.020  0.00  0.00    +0.008 A 
ATOM     18  C   UNL     1      -1.628  -2.540  24.423  0.00  0.00    +0.046 A 
ATOM     19  C   UNL     1      -3.550  -1.499  25.450  0.00  0.00    +0.046 A 
ATOM     20  C   UNL     1      -3.003  -2.503  24.652  0.00  0.00    +0.120 A 
BRANCH  20   1
ATOM      1  O   UNL     1      -3.810  -3.448  24.096  0.00  0.00    -0.495 OA
ATOM     21  C   UNL     1      -4.924  -2.983  23.336  0.00  0.00    +0.277 C 
ENDBRANCH  20   1
ENDBRANCH  14  15
ENDBRANCH   3  14
TORSDOF 6
ENDMDL
MODEL 7
REMARK VINA RESULT:      -4.0      2.524      5.719
REMARK  Name = 11943564
REMARK  7 active torsions:
REMARK  status: ('A' for Active; 'I' for Inactive)
REMARK    1  A    between atoms: O_1  and  C_20
REMARK    2  A    between atoms: O_1  and  C_21
REMARK    3  A    between atoms: N_3  and  C_11
REMARK    4  A    between atoms: N_3  and  C_14
REMARK    5  A    between atoms: C_5  and  C_11
REMARK    6  A    between atoms: C_6  and  C_12
REMARK    7  A    between atoms: C_14  and  C_15
REMARK                            x       y       z     vdW  Elec       q    Type
REMARK                         _______ _______ _______ _____ _____    ______ ____
ROOT
ATOM      3  N   UNL     1      -5.055   2.365  25.587  0.00  0.00    -0.311 NA
ATOM     22  H   UNL     1      -5.788   3.014  25.874  0.00  0.00    +0.122 HD
ENDROOT
BRANCH   3  11
ATOM     11  C   UNL     1      -4.212   3.000  24.587  0.00  0.00    +0.100 C 
BRANCH  11   5
ATOM      2  N   UNL     1      -2.146   2.160  25.736  0.00  0.00    -0.298 NA
ATOM      4  C   UNL     1      -0.539   2.948  23.848  0.00  0.00    -0.000 C 
ATOM      5  C   UNL     1      -2.883   2.254  24.446  0.00  0.00    +0.071 C 
ATOM      6  C   UNL     1      -0.480   3.912  25.057  0.00  0.00    +0.028 C 
ATOM      7  C   UNL     1      -1.994   2.869  23.343  0.00  0.00    +0.024 C 
ATOM      8  C   UNL     1      -0.152   1.550  24.364  0.00  0.00    +0.019 C 
ATOM      9  C   UNL     1      -1.549   3.473  26.085  0.00  0.00    +0.092 C 
ATOM     10  C   UNL     1      -1.044   1.184  25.562  0.00  0.00    +0.085 C 
BRANCH   6  12
ATOM     12  C   UNL     1      -0.640   5.350  24.664  0.00  0.00    -0.030 C 
ATOM     13  C   UNL     1      -1.722   6.086  24.943  0.00  0.00    +0.004 C 
ENDBRANCH   6  12
ENDBRANCH  11   5
ENDBRANCH   3  11
BRANCH   3  14
ATOM     14  C   UNL     1      -5.656   1.144  25.064  0.00  0.00    +0.116 C 
BRANCH  14  15
ATOM     15  C   UNL     1      -4.654   0.025  24.962  0.00  0.00    -0.033 A 
ATOM     16  C   UNL     1      -4.317  -0.478  23.712  0.00  0.00    +0.008 A 
ATOM     17  C   UNL     1      -4.081  -0.485  26.117  0.00  0.00    +0.008 A 
ATOM     18  C   UNL     1      -3.389  -1.515  23.619  0.00  0.00    +0.046 A 
ATOM     19  C   UNL     1      -3.152  -1.522  26.022  0.00  0.00    +0.046 A 
ATOM     20  C   UNL     1      -2.806  -2.037  24.773  0.00  0.00    +0.120 A 
BRANCH  20   1
ATOM      1  O   UNL     1      -1.900  -3.048  24.679  0.00  0.00    -0.495 OA
ATOM     21  C   UNL     1      -0.543  -2.733  24.989  0.00  0.00    +0.277 C 
ENDBRANCH  20   1
ENDBRANCH  14  15
ENDBRANCH   3  14
TORSDOF 6
ENDMDL
MODEL 8
REMARK VINA RESULT:      -3.9      2.595      5.743
REMARK  Name = 11943564
REMARK  7 active torsions:
REMARK  status: ('A' for Active; 'I' for Inactive)
REMARK    1  A    between atoms: O_1  and  C_20
REMARK    2  A    between atoms: O_1  and  C_21
REMARK    3  A    between atoms: N_3  and  C_11
REMARK    4  A    between atoms: N_3  and  C_14
REMARK    5  A    between atoms: C_5  and  C_11
REMARK    6  A    between atoms: C_6  and  C_12
REMARK    7  A    between atoms: C_14  and  C_15
REMARK                            x       y       z     vdW  Elec       q    Type
REMARK                         _______ _______ _______ _____ _____    ______ ____
ROOT
ATOM      3  N   UNL     1      -5.081   2.881  25.036  0.00  0.00    -0.311 NA
ATOM     22  H   UNL     1      -4.827   2.776  24.054  0.00  0.00    +0.122 HD
ENDROOT
BRANCH   3  11
ATOM     11  C   UNL     1      -3.911   3.286  25.798  0.00  0.00    +0.100 C 
BRANCH  11   5
ATOM      2  N   UNL     1      -2.082   2.276  24.410  0.00  0.00    -0.298 NA
ATOM      4  C   UNL     1      -0.264   3.940  25.242  0.00  0.00    -0.000 C 
ATOM      5  C   UNL     1      -2.721   3.539  24.870  0.00  0.00    +0.071 C 
ATOM      6  C   UNL     1      -0.110   2.568  25.939  0.00  0.00    +0.028 C 
ATOM      7  C   UNL     1      -1.682   4.483  25.515  0.00  0.00    +0.024 C 
ATOM      8  C   UNL     1      -0.146   3.696  23.727  0.00  0.00    +0.019 C 
ATOM      9  C   UNL     1      -1.293   1.667  25.510  0.00  0.00    +0.092 C 
ATOM     10  C   UNL     1      -1.151   2.611  23.306  0.00  0.00    +0.085 C 
BRANCH   6  12
ATOM     12  C   UNL     1      -0.006   2.679  27.430  0.00  0.00    -0.030 C 
ATOM     13  C   UNL     1       1.109   2.424  28.124  0.00  0.00    +0.004 C 
ENDBRANCH   6  12
ENDBRANCH  11   5
ENDBRANCH   3  11
BRANCH   3  14
ATOM     14  C   UNL     1      -5.625   1.625  25.540  0.00  0.00    +0.116 C 
BRANCH  14  15
ATOM     15  C   UNL     1      -4.739   0.455  25.203  0.00  0.00    -0.033 A 
ATOM     16  C   UNL     1      -4.107  -0.240  26.225  0.00  0.00    +0.008 A 
ATOM     17  C   UNL     1      -4.569   0.088  23.876  0.00  0.00    +0.008 A 
ATOM     18  C   UNL     1      -3.286  -1.323  25.912  0.00  0.00    +0.046 A 
ATOM     19  C   UNL     1      -3.748  -0.996  23.564  0.00  0.00    +0.046 A 
ATOM     20  C   UNL     1      -3.107  -1.702  24.582  0.00  0.00    +0.120 A 
BRANCH  20   1
ATOM      1  O   UNL     1      -2.306  -2.760  24.279  0.00  0.00    -0.495 OA
ATOM     21  C   UNL     1      -0.920  -2.633  24.590  0.00  0.00    +0.277 C 
ENDBRANCH  20   1
ENDBRANCH  14  15
ENDBRANCH   3  14
TORSDOF 6
ENDMDL
MODEL 9
REMARK VINA RESULT:      -3.7      1.206      2.204
REMARK  Name = 11943564
REMARK  7 active torsions:
REMARK  status: ('A' for Active; 'I' for Inactive)
REMARK    1  A    between atoms: O_1  and  C_20
REMARK    2  A    between atoms: O_1  and  C_21
REMARK    3  A    between atoms: N_3  and  C_11
REMARK    4  A    between atoms: N_3  and  C_14
REMARK    5  A    between atoms: C_5  and  C_11
REMARK    6  A    between atoms: C_6  and  C_12
REMARK    7  A    between atoms: C_14  and  C_15
REMARK                            x       y       z     vdW  Elec       q    Type
REMARK                         _______ _______ _______ _____ _____    ______ ____
ROOT
ATOM      3  N   UNL     1       0.310   1.580  24.160  0.00  0.00    -0.311 NA
ATOM     22  H   UNL     1       1.113   1.349  23.576  0.00  0.00    +0.122 HD
ENDROOT
BRANCH   3  11
ATOM     11  C   UNL     1      -0.771   0.647  23.886  0.00  0.00    +0.100 C 
BRANCH  11   5
ATOM      2  N   UNL     1      -0.803  -1.157  25.627  0.00  0.00    -0.298 NA
ATOM      4  C   UNL     1      -3.399  -1.277  25.738  0.00  0.00    -0.000 C 
ATOM      5  C   UNL     1      -1.391   0.138  25.189  0.00  0.00    +0.071 C 
ATOM      6  C   UNL     1      -2.831  -2.462  24.922  0.00  0.00    +0.028 C 
ATOM      7  C   UNL     1      -2.930   0.044  25.094  0.00  0.00    +0.024 C 
ATOM      8  C   UNL     1      -2.776  -1.353  27.144  0.00  0.00    +0.019 C 
ATOM      9  C   UNL     1      -1.303  -2.265  24.775  0.00  0.00    +0.092 C 
ATOM     10  C   UNL     1      -1.245  -1.412  27.020  0.00  0.00    +0.085 C 
BRANCH   6  12
ATOM     12  C   UNL     1      -3.502  -2.630  23.593  0.00  0.00    -0.030 C 
ATOM     13  C   UNL     1      -4.816  -2.480  23.393  0.00  0.00    +0.004 C 
ENDBRANCH   6  12
ENDBRANCH  11   5
ENDBRANCH   3  11
BRANCH   3  14
ATOM     14  C   UNL     1      -0.106   2.954  23.904  0.00  0.00    +0.116 C 
BRANCH  14  15
ATOM     15  C   UNL     1      -1.521   3.204  24.353  0.00  0.00    -0.033 A 
ATOM     16  C   UNL     1      -2.565   3.024  23.456  0.00  0.00    +0.008 A 
ATOM     17  C   UNL     1      -1.761   3.609  25.658  0.00  0.00    +0.008 A 
ATOM     18  C   UNL     1      -3.875   3.257  23.873  0.00  0.00    +0.046 A 
ATOM     19  C   UNL     1      -3.072   3.841  26.075  0.00  0.00    +0.046 A 
ATOM     20  C   UNL     1      -4.129   3.665  25.182  0.00  0.00    +0.120 A 
BRANCH  20   1
ATOM      1  O   UNL     1      -5.409   3.890  25.588  0.00  0.00    -0.495 OA
ATOM     21  C   UNL     1      -6.162   2.757  26.016  0.00  0.00    +0.277 C 
ENDBRANCH  20   1
ENDBRANCH  14  15
ENDBRANCH   3  14
TORSDOF 6
ENDMDL
MODEL 10
REMARK VINA RESULT:      -3.6     16.107     18.585
REMARK  Name = 11943564
REMARK  7 active torsions:
REMARK  status: ('A' for Active; 'I' for Inactive)
REMARK    1  A    between atoms: O_1  and  C_20
REMARK    2  A    between atoms: O_1  and  C_21
REMARK    3  A    between atoms: N_3  and  C_11
REMARK    4  A    between atoms: N_3  and  C_14
REMARK    5  A    between atoms: C_5  and  C_11
REMARK    6  A    between atoms: C_6  and  C_12
REMARK    7  A    between atoms: C_14  and  C_15
REMARK                            x       y       z     vdW  Elec       q    Type
REMARK                         _______ _______ _______ _____ _____    ______ ____
ROOT
ATOM      3  N   UNL     1      -5.345  -9.832   9.600  0.00  0.00    -0.311 NA
ATOM     22  H   UNL     1      -5.550 -10.554   8.910  0.00  0.00    +0.122 HD
ENDROOT
BRANCH   3  11
ATOM     11  C   UNL     1      -6.089  -8.626   9.276  0.00  0.00    +0.100 C 
BRANCH  11   5
ATOM      2  N   UNL     1      -8.545  -8.126   9.171  0.00  0.00    -0.298 NA
ATOM      4  C   UNL     1      -9.255 -10.628   9.204  0.00  0.00    -0.000 C 
ATOM      5  C   UNL     1      -7.440  -8.976   8.648  0.00  0.00    +0.071 C 
ATOM      6  C   UNL     1      -9.467  -9.980  10.593  0.00  0.00    +0.028 C 
ATOM      7  C   UNL     1      -7.774 -10.476   8.803  0.00  0.00    +0.024 C 
ATOM      8  C   UNL     1     -10.094  -9.823   8.195  0.00  0.00    +0.019 C 
ATOM      9  C   UNL     1      -8.904  -8.540  10.551  0.00  0.00    +0.092 C 
ATOM     10  C   UNL     1      -9.730  -8.333   8.305  0.00  0.00    +0.085 C 
BRANCH   6  12
ATOM     12  C   UNL     1      -8.868 -10.781  11.709  0.00  0.00    -0.030 C 
ATOM     13  C   UNL     1      -7.844 -10.365  12.463  0.00  0.00    +0.004 C 
ENDBRANCH   6  12
ENDBRANCH  11   5
ENDBRANCH   3  11
BRANCH   3  14
ATOM     14  C   UNL     1      -3.910  -9.570   9.627  0.00  0.00    +0.116 C 
BRANCH  14  15
ATOM     15  C   UNL     1      -3.306  -9.894  10.967  0.00  0.00    -0.033 A 
ATOM     16  C   UNL     1      -1.970  -9.600  11.203  0.00  0.00    +0.008 A 
ATOM     17  C   UNL     1      -4.094 -10.479  11.947  0.00  0.00    +0.008 A 
ATOM     18  C   UNL     1      -1.411  -9.901  12.445  0.00  0.00    +0.046 A 
ATOM     19  C   UNL     1      -3.534 -10.779  13.190  0.00  0.00    +0.046 A 
ATOM     20  C   UNL     1      -2.193 -10.490  13.438  0.00  0.00    +0.120 A 
BRANCH  20   1
ATOM      1  O   UNL     1      -1.646 -10.781  14.650  0.00  0.00    -0.495 OA
ATOM     21  C   UNL     1      -1.061  -9.700  15.374  0.00  0.00    +0.277 C 
ENDBRANCH  20   1
ENDBRANCH  14  15
ENDBRANCH   3  14
TORSDOF 6
ENDMDL
