MODEL 1
REMARK VINA RESULT:      -7.2      0.000      0.000
REMARK  Name = 75368545
REMARK  4 active torsions:
REMARK  status: ('A' for Active; 'I' for Inactive)
REMARK    1  A    between atoms: N_3  and  C_10
REMARK    2  A    between atoms: C_10  and  C_12
REMARK    3  A    between atoms: C_12  and  C_13
REMARK    4  A    between atoms: C_13  and  C_14
REMARK                            x       y       z     vdW  Elec       q    Type
REMARK                         _______ _______ _______ _____ _____    ______ ____
ROOT
ATOM      1  O   UNL     1       0.821   2.752  26.944  0.00  0.00    -0.253 OA
ATOM      2  N   UNL     1      -0.911   2.998  25.371  0.00  0.00    -0.279 N 
ATOM      3  N   UNL     1      -3.520   3.175  24.337  0.00  0.00    -0.299 NA
ATOM      4  N   UNL     1       0.810   1.641  24.878  0.00  0.00    -0.297 N 
ATOM      5  C   UNL     1      -1.154   2.581  24.005  0.00  0.00    +0.109 C 
ATOM      6  C   UNL     1      -2.604   2.127  23.841  0.00  0.00    +0.108 C 
ATOM      7  C   UNL     1      -1.834   3.913  26.009  0.00  0.00    +0.125 C 
ATOM      8  C   UNL     1      -3.274   3.455  25.767  0.00  0.00    +0.103 C 
ATOM      9  C   UNL     1      -0.109   1.494  23.772  0.00  0.00    +0.129 C 
ATOM     11  C   UNL     1       0.300   2.504  25.866  0.00  0.00    +0.303 C 
ATOM     20  H   UNL     1       1.677   1.122  24.974  0.00  0.00    +0.150 HD
ENDROOT
BRANCH   3  10
ATOM     10  C   UNL     1      -4.911   2.776  24.128  0.00  0.00    +0.085 C 
BRANCH  10  12
ATOM     12  C   UNL     1      -5.333   1.753  25.181  0.00  0.00    +0.020 C 
BRANCH  12  13
ATOM     13  C   UNL     1      -5.605   0.387  24.545  0.00  0.00    +0.036 C 
BRANCH  13  14
ATOM     14  C   UNL     1      -4.431  -0.546  24.704  0.00  0.00    -0.047 A 
ATOM     15  C   UNL     1      -3.432  -0.258  25.634  0.00  0.00    +0.003 A 
ATOM     16  C   UNL     1      -4.345  -1.698  23.922  0.00  0.00    +0.003 A 
ATOM     17  C   UNL     1      -2.345  -1.121  25.781  0.00  0.00    +0.000 A 
ATOM     18  C   UNL     1      -3.259  -2.560  24.069  0.00  0.00    +0.000 A 
ATOM     19  C   UNL     1      -2.260  -2.272  24.998  0.00  0.00    +0.000 A 
ENDBRANCH  13  14
ENDBRANCH  12  13
ENDBRANCH  10  12
ENDBRANCH   3  10
TORSDOF 4
ENDMDL
MODEL 2
REMARK VINA RESULT:      -6.9      2.110      4.175
REMARK  Name = 75368545
REMARK  4 active torsions:
REMARK  status: ('A' for Active; 'I' for Inactive)
REMARK    1  A    between atoms: N_3  and  C_10
REMARK    2  A    between atoms: C_10  and  C_12
REMARK    3  A    between atoms: C_12  and  C_13
REMARK    4  A    between atoms: C_13  and  C_14
REMARK                            x       y       z     vdW  Elec       q    Type
REMARK                         _______ _______ _______ _____ _____    ______ ____
ROOT
ATOM      1  O   UNL     1      -5.931   2.485  24.641  0.00  0.00    -0.253 OA
ATOM      2  N   UNL     1      -3.626   2.906  24.423  0.00  0.00    -0.279 N 
ATOM      3  N   UNL     1      -0.905   2.439  23.887  0.00  0.00    -0.299 NA
ATOM      4  N   UNL     1      -4.688   3.641  26.261  0.00  0.00    -0.297 N 
ATOM      5  C   UNL     1      -2.628   3.672  25.141  0.00  0.00    +0.109 C 
ATOM      6  C   UNL     1      -1.321   2.884  25.233  0.00  0.00    +0.108 C 
ATOM      7  C   UNL     1      -3.278   2.297  23.157  0.00  0.00    +0.125 C 
ATOM      8  C   UNL     1      -1.935   1.572  23.278  0.00  0.00    +0.103 C 
ATOM      9  C   UNL     1      -3.297   3.966  26.481  0.00  0.00    +0.129 C 
ATOM     11  C   UNL     1      -4.876   2.952  25.048  0.00  0.00    +0.303 C 
ATOM     20  H   UNL     1      -5.428   3.809  26.936  0.00  0.00    +0.150 HD
ENDROOT
BRANCH   3  10
ATOM     10  C   UNL     1       0.375   1.736  23.957  0.00  0.00    +0.085 C 
BRANCH  10  12
ATOM     12  C   UNL     1       0.221   0.301  23.456  0.00  0.00    +0.020 C 
BRANCH  12  13
ATOM     13  C   UNL     1       0.180  -0.689  24.623  0.00  0.00    +0.036 C 
BRANCH  13  14
ATOM     14  C   UNL     1      -1.207  -1.237  24.841  0.00  0.00    -0.047 A 
ATOM     15  C   UNL     1      -1.650  -2.331  24.098  0.00  0.00    +0.003 A 
ATOM     16  C   UNL     1      -2.047  -0.651  25.788  0.00  0.00    +0.003 A 
ATOM     17  C   UNL     1      -2.934  -2.838  24.299  0.00  0.00    +0.000 A 
ATOM     18  C   UNL     1      -3.331  -1.158  25.989  0.00  0.00    +0.000 A 
ATOM     19  C   UNL     1      -3.774  -2.251  25.246  0.00  0.00    +0.000 A 
ENDBRANCH  13  14
ENDBRANCH  12  13
ENDBRANCH  10  12
ENDBRANCH   3  10
TORSDOF 4
ENDMDL
MODEL 3
REMARK VINA RESULT:      -6.5      1.545      3.793
REMARK  Name = 75368545
REMARK  4 active torsions:
REMARK  status: ('A' for Active; 'I' for Inactive)
REMARK    1  A    between atoms: N_3  and  C_10
REMARK    2  A    between atoms: C_10  and  C_12
REMARK    3  A    between atoms: C_12  and  C_13
REMARK    4  A    between atoms: C_13  and  C_14
REMARK                            x       y       z     vdW  Elec       q    Type
REMARK                         _______ _______ _______ _____ _____    ______ ____
ROOT
ATOM      1  O   UNL     1       0.124   4.215  23.401  0.00  0.00    -0.253 OA
ATOM      2  N   UNL     1      -0.076   2.162  24.535  0.00  0.00    -0.279 N 
ATOM      3  N   UNL     1      -0.551  -0.578  24.951  0.00  0.00    -0.299 NA
ATOM      4  N   UNL     1      -0.977   3.999  25.462  0.00  0.00    -0.297 N 
ATOM      5  C   UNL     1      -0.553   1.722  25.829  0.00  0.00    +0.109 C 
ATOM      6  C   UNL     1      -1.349   0.425  25.687  0.00  0.00    +0.108 C 
ATOM      7  C   UNL     1       0.592   1.217  23.665  0.00  0.00    +0.125 C 
ATOM      8  C   UNL     1      -0.206  -0.087  23.600  0.00  0.00    +0.103 C 
ATOM      9  C   UNL     1      -1.355   2.915  26.341  0.00  0.00    +0.129 C 
ATOM     11  C   UNL     1      -0.255   3.536  24.346  0.00  0.00    +0.303 C 
ATOM     20  H   UNL     1      -1.268   4.964  25.586  0.00  0.00    +0.150 HD
ENDROOT
BRANCH   3  10
ATOM     10  C   UNL     1      -1.281  -1.843  24.862  0.00  0.00    +0.085 C 
BRANCH  10  12
ATOM     12  C   UNL     1      -2.726  -1.654  25.319  0.00  0.00    +0.020 C 
BRANCH  12  13
ATOM     13  C   UNL     1      -3.618  -1.212  24.156  0.00  0.00    +0.036 C 
BRANCH  13  14
ATOM     14  C   UNL     1      -4.010   0.240  24.274  0.00  0.00    -0.047 A 
ATOM     15  C   UNL     1      -4.946   0.634  25.231  0.00  0.00    +0.003 A 
ATOM     16  C   UNL     1      -3.436   1.188  23.428  0.00  0.00    +0.003 A 
ATOM     17  C   UNL     1      -5.309   1.976  25.340  0.00  0.00    +0.000 A 
ATOM     18  C   UNL     1      -3.799   2.531  23.538  0.00  0.00    +0.000 A 
ATOM     19  C   UNL     1      -4.735   2.925  24.493  0.00  0.00    +0.000 A 
ENDBRANCH  13  14
ENDBRANCH  12  13
ENDBRANCH  10  12
ENDBRANCH   3  10
TORSDOF 4
ENDMDL
MODEL 4
REMARK VINA RESULT:      -6.3      2.092      4.125
REMARK  Name = 75368545
REMARK  4 active torsions:
REMARK  status: ('A' for Active; 'I' for Inactive)
REMARK    1  A    between atoms: N_3  and  C_10
REMARK    2  A    between atoms: C_10  and  C_12
REMARK    3  A    between atoms: C_12  and  C_13
REMARK    4  A    between atoms: C_13  and  C_14
REMARK                            x       y       z     vdW  Elec       q    Type
REMARK                         _______ _______ _______ _____ _____    ______ ____
ROOT
ATOM      1  O   UNL     1       1.784  -0.093  22.528  0.00  0.00    -0.253 OA
ATOM      2  N   UNL     1       0.182  -0.186  24.249  0.00  0.00    -0.279 N 
ATOM      3  N   UNL     1      -2.192  -0.854  25.599  0.00  0.00    -0.299 NA
ATOM      4  N   UNL     1       1.122   1.794  23.756  0.00  0.00    -0.297 N 
ATOM      5  C   UNL     1      -0.335   0.723  25.251  0.00  0.00    +0.109 C 
ATOM      6  C   UNL     1      -1.850   0.566  25.377  0.00  0.00    +0.108 C 
ATOM      7  C   UNL     1      -0.211  -1.579  24.284  0.00  0.00    +0.125 C 
ATOM      8  C   UNL     1      -1.726  -1.690  24.474  0.00  0.00    +0.103 C 
ATOM      9  C   UNL     1       0.132   2.093  24.765  0.00  0.00    +0.129 C 
ATOM     11  C   UNL     1       1.112   0.430  23.406  0.00  0.00    +0.303 C 
ATOM     20  H   UNL     1       1.696   2.492  23.293  0.00  0.00    +0.150 HD
ENDROOT
BRANCH   3  10
ATOM     10  C   UNL     1      -3.636  -1.006  25.782  0.00  0.00    +0.085 C 
BRANCH  10  12
ATOM     12  C   UNL     1      -4.366  -0.754  24.464  0.00  0.00    +0.020 C 
BRANCH  12  13
ATOM     13  C   UNL     1      -5.499   0.260  24.647  0.00  0.00    +0.036 C 
BRANCH  13  14
ATOM     14  C   UNL     1      -4.978   1.674  24.699  0.00  0.00    -0.047 A 
ATOM     15  C   UNL     1      -5.378   2.527  25.728  0.00  0.00    +0.003 A 
ATOM     16  C   UNL     1      -4.097   2.128  23.718  0.00  0.00    +0.003 A 
ATOM     17  C   UNL     1      -4.897   3.836  25.775  0.00  0.00    +0.000 A 
ATOM     18  C   UNL     1      -3.616   3.437  23.766  0.00  0.00    +0.000 A 
ATOM     19  C   UNL     1      -4.015   4.290  24.794  0.00  0.00    +0.000 A 
ENDBRANCH  13  14
ENDBRANCH  12  13
ENDBRANCH  10  12
ENDBRANCH   3  10
TORSDOF 4
ENDMDL
MODEL 5
REMARK VINA RESULT:      -6.2      2.120      3.970
REMARK  Name = 75368545
REMARK  4 active torsions:
REMARK  status: ('A' for Active; 'I' for Inactive)
REMARK    1  A    between atoms: N_3  and  C_10
REMARK    2  A    between atoms: C_10  and  C_12
REMARK    3  A    between atoms: C_12  and  C_13
REMARK    4  A    between atoms: C_13  and  C_14
REMARK                            x       y       z     vdW  Elec       q    Type
REMARK                         _______ _______ _______ _____ _____    ______ ____
ROOT
ATOM      1  O   UNL     1      -6.056   4.875  25.824  0.00  0.00    -0.253 OA
ATOM      2  N   UNL     1      -4.197   3.439  25.685  0.00  0.00    -0.279 N 
ATOM      3  N   UNL     1      -1.589   2.560  25.106  0.00  0.00    -0.299 NA
ATOM      4  N   UNL     1      -6.213   2.654  25.082  0.00  0.00    -0.297 N 
ATOM      5  C   UNL     1      -3.975   2.035  25.409  0.00  0.00    +0.109 C 
ATOM      6  C   UNL     1      -2.747   1.858  24.516  0.00  0.00    +0.108 C 
ATOM      7  C   UNL     1      -3.089   4.259  26.130  0.00  0.00    +0.125 C 
ATOM      8  C   UNL     1      -1.865   4.005  25.247  0.00  0.00    +0.103 C 
ATOM      9  C   UNL     1      -5.293   1.579  24.788  0.00  0.00    +0.129 C 
ATOM     11  C   UNL     1      -5.545   3.794  25.569  0.00  0.00    +0.303 C 
ATOM     20  H   UNL     1      -7.208   2.626  24.882  0.00  0.00    +0.150 HD
ENDROOT
BRANCH   3  10
ATOM     10  C   UNL     1      -0.395   2.347  24.290  0.00  0.00    +0.085 C 
BRANCH  10  12
ATOM     12  C   UNL     1      -0.466   0.990  23.590  0.00  0.00    +0.020 C 
BRANCH  12  13
ATOM     13  C   UNL     1      -0.106  -0.145  24.552  0.00  0.00    +0.036 C 
BRANCH  13  14
ATOM     14  C   UNL     1      -1.291  -1.034  24.834  0.00  0.00    -0.047 A 
ATOM     15  C   UNL     1      -2.094  -0.793  25.949  0.00  0.00    +0.003 A 
ATOM     16  C   UNL     1      -1.584  -2.097  23.979  0.00  0.00    +0.003 A 
ATOM     17  C   UNL     1      -3.189  -1.617  26.210  0.00  0.00    +0.000 A 
ATOM     18  C   UNL     1      -2.680  -2.920  24.241  0.00  0.00    +0.000 A 
ATOM     19  C   UNL     1      -3.482  -2.680  25.355  0.00  0.00    +0.000 A 
ENDBRANCH  13  14
ENDBRANCH  12  13
ENDBRANCH  10  12
ENDBRANCH   3  10
TORSDOF 4
ENDMDL
MODEL 6
REMARK VINA RESULT:      -6.1      1.938      4.320
REMARK  Name = 75368545
REMARK  4 active torsions:
REMARK  status: ('A' for Active; 'I' for Inactive)
REMARK    1  A    between atoms: N_3  and  C_10
REMARK    2  A    between atoms: C_10  and  C_12
REMARK    3  A    between atoms: C_12  and  C_13
REMARK    4  A    between atoms: C_13  and  C_14
REMARK                            x       y       z     vdW  Elec       q    Type
REMARK                         _______ _______ _______ _____ _____    ______ ____
ROOT
ATOM      1  O   UNL     1       0.595   0.388  23.274  0.00  0.00    -0.253 OA
ATOM      2  N   UNL     1      -1.684   0.207  23.832  0.00  0.00    -0.279 N 
ATOM      3  N   UNL     1      -4.327   0.992  24.383  0.00  0.00    -0.299 NA
ATOM      4  N   UNL     1      -0.184  -0.958  25.032  0.00  0.00    -0.297 N 
ATOM      5  C   UNL     1      -2.482  -0.600  24.732  0.00  0.00    +0.109 C 
ATOM      6  C   UNL     1      -3.552   0.259  25.405  0.00  0.00    +0.108 C 
ATOM      7  C   UNL     1      -2.345   1.080  22.884  0.00  0.00    +0.125 C 
ATOM      8  C   UNL     1      -3.448   1.874  23.588  0.00  0.00    +0.103 C 
ATOM      9  C   UNL     1      -1.451  -1.205  25.680  0.00  0.00    +0.129 C 
ATOM     11  C   UNL     1      -0.317  -0.062  23.953  0.00  0.00    +0.303 C 
ATOM     20  H   UNL     1       0.708  -1.315  25.362  0.00  0.00    +0.150 HD
ENDROOT
BRANCH   3  10
ATOM     10  C   UNL     1      -5.393   1.770  25.014  0.00  0.00    +0.085 C 
BRANCH  10  12
ATOM     12  C   UNL     1      -5.036   3.256  25.014  0.00  0.00    +0.020 C 
BRANCH  12  13
ATOM     13  C   UNL     1      -4.171   3.615  26.225  0.00  0.00    +0.036 C 
BRANCH  13  14
ATOM     14  C   UNL     1      -2.736   3.861  25.832  0.00  0.00    -0.047 A 
ATOM     15  C   UNL     1      -1.758   2.914  26.134  0.00  0.00    +0.003 A 
ATOM     16  C   UNL     1      -2.388   5.036  25.165  0.00  0.00    +0.003 A 
ATOM     17  C   UNL     1      -0.431   3.142  25.771  0.00  0.00    +0.000 A 
ATOM     18  C   UNL     1      -1.060   5.263  24.802  0.00  0.00    +0.000 A 
ATOM     19  C   UNL     1      -0.082   4.317  25.105  0.00  0.00    +0.000 A 
ENDBRANCH  13  14
ENDBRANCH  12  13
ENDBRANCH  10  12
ENDBRANCH   3  10
TORSDOF 4
ENDMDL
MODEL 7
REMARK VINA RESULT:      -6.0      2.502      5.038
REMARK  Name = 75368545
REMARK  4 active torsions:
REMARK  status: ('A' for Active; 'I' for Inactive)
REMARK    1  A    between atoms: N_3  and  C_10
REMARK    2  A    between atoms: C_10  and  C_12
REMARK    3  A    between atoms: C_12  and  C_13
REMARK    4  A    between atoms: C_13  and  C_14
REMARK                            x       y       z     vdW  Elec       q    Type
REMARK                         _______ _______ _______ _____ _____    ______ ____
ROOT
ATOM      1  O   UNL     1      -1.326  -3.287  24.112  0.00  0.00    -0.253 OA
ATOM      2  N   UNL     1      -1.575  -0.958  24.337  0.00  0.00    -0.279 N 
ATOM      3  N   UNL     1      -0.893   1.724  24.832  0.00  0.00    -0.299 NA
ATOM      4  N   UNL     1      -3.130  -2.303  25.243  0.00  0.00    -0.297 N 
ATOM      5  C   UNL     1      -2.593  -0.056  24.835  0.00  0.00    +0.109 C 
ATOM      6  C   UNL     1      -1.950   1.077  25.635  0.00  0.00    +0.108 C 
ATOM      7  C   UNL     1      -0.415  -0.416  23.661  0.00  0.00    +0.125 C 
ATOM      8  C   UNL     1       0.158   0.754  24.465  0.00  0.00    +0.103 C 
ATOM      9  C   UNL     1      -3.517  -0.967  25.639  0.00  0.00    +0.129 C 
ATOM     11  C   UNL     1      -1.930  -2.300  24.507  0.00  0.00    +0.303 C 
ATOM     20  H   UNL     1      -3.614  -3.147  25.531  0.00  0.00    +0.150 HD
ENDROOT
BRANCH   3  10
ATOM     10  C   UNL     1      -0.314   2.849  25.566  0.00  0.00    +0.085 C 
BRANCH  10  12
ATOM     12  C   UNL     1      -0.528   4.151  24.796  0.00  0.00    +0.020 C 
BRANCH  12  13
ATOM     13  C   UNL     1      -1.765   4.896  25.306  0.00  0.00    +0.036 C 
BRANCH  13  14
ATOM     14  C   UNL     1      -3.024   4.091  25.105  0.00  0.00    -0.047 A 
ATOM     15  C   UNL     1      -3.337   3.590  23.841  0.00  0.00    +0.003 A 
ATOM     16  C   UNL     1      -3.874   3.847  26.183  0.00  0.00    +0.003 A 
ATOM     17  C   UNL     1      -4.502   2.847  23.656  0.00  0.00    +0.000 A 
ATOM     18  C   UNL     1      -5.039   3.102  25.997  0.00  0.00    +0.000 A 
ATOM     19  C   UNL     1      -5.353   2.602  24.734  0.00  0.00    +0.000 A 
ENDBRANCH  13  14
ENDBRANCH  12  13
ENDBRANCH  10  12
ENDBRANCH   3  10
TORSDOF 4
ENDMDL
MODEL 8
REMARK VINA RESULT:      -5.8      2.017      3.960
REMARK  Name = 75368545
REMARK  4 active torsions:
REMARK  status: ('A' for Active; 'I' for Inactive)
REMARK    1  A    between atoms: N_3  and  C_10
REMARK    2  A    between atoms: C_10  and  C_12
REMARK    3  A    between atoms: C_12  and  C_13
REMARK    4  A    between atoms: C_13  and  C_14
REMARK                            x       y       z     vdW  Elec       q    Type
REMARK                         _______ _______ _______ _____ _____    ______ ____
ROOT
ATOM      1  O   UNL     1      -4.041   4.147  26.414  0.00  0.00    -0.253 OA
ATOM      2  N   UNL     1      -4.257   2.343  24.919  0.00  0.00    -0.279 N 
ATOM      3  N   UNL     1      -4.361  -0.312  23.998  0.00  0.00    -0.299 NA
ATOM      4  N   UNL     1      -2.972   4.088  24.325  0.00  0.00    -0.297 N 
ATOM      5  C   UNL     1      -3.859   2.057  23.556  0.00  0.00    +0.109 C 
ATOM      6  C   UNL     1      -3.357   0.618  23.441  0.00  0.00    +0.108 C 
ATOM      7  C   UNL     1      -5.125   1.416  25.614  0.00  0.00    +0.125 C 
ATOM      8  C   UNL     1      -4.620  -0.016  25.422  0.00  0.00    +0.103 C 
ATOM      9  C   UNL     1      -2.815   3.129  23.255  0.00  0.00    +0.129 C 
ATOM     11  C   UNL     1      -3.796   3.590  25.353  0.00  0.00    +0.303 C 
ATOM     20  H   UNL     1      -2.483   4.976  24.375  0.00  0.00    +0.150 HD
ENDROOT
BRANCH   3  10
ATOM     10  C   UNL     1      -3.916  -1.696  23.837  0.00  0.00    +0.085 C 
BRANCH  10  12
ATOM     12  C   UNL     1      -3.111  -2.138  25.058  0.00  0.00    +0.020 C 
BRANCH  12  13
ATOM     13  C   UNL     1      -1.619  -2.232  24.730  0.00  0.00    +0.036 C 
BRANCH  13  14
ATOM     14  C   UNL     1      -0.961  -0.875  24.732  0.00  0.00    -0.047 A 
ATOM     15  C   UNL     1      -1.216   0.022  25.770  0.00  0.00    +0.003 A 
ATOM     16  C   UNL     1      -0.096  -0.518  23.698  0.00  0.00    +0.003 A 
ATOM     17  C   UNL     1      -0.608   1.277  25.771  0.00  0.00    +0.000 A 
ATOM     18  C   UNL     1       0.512   0.738  23.700  0.00  0.00    +0.000 A 
ATOM     19  C   UNL     1       0.257   1.635  24.737  0.00  0.00    +0.000 A 
ENDBRANCH  13  14
ENDBRANCH  12  13
ENDBRANCH  10  12
ENDBRANCH   3  10
TORSDOF 4
ENDMDL
MODEL 9
REMARK VINA RESULT:      -5.8      2.073      3.568
REMARK  Name = 75368545
REMARK  4 active torsions:
REMARK  status: ('A' for Active; 'I' for Inactive)
REMARK    1  A    between atoms: N_3  and  C_10
REMARK    2  A    between atoms: C_10  and  C_12
REMARK    3  A    between atoms: C_12  and  C_13
REMARK    4  A    between atoms: C_13  and  C_14
REMARK                            x       y       z     vdW  Elec       q    Type
REMARK                         _______ _______ _______ _____ _____    ______ ____
ROOT
ATOM      1  O   UNL     1      -0.963  -1.397  25.698  0.00  0.00    -0.253 OA
ATOM      2  N   UNL     1      -0.287   0.808  25.231  0.00  0.00    -0.279 N 
ATOM      3  N   UNL     1      -0.366   3.617  25.127  0.00  0.00    -0.299 NA
ATOM      4  N   UNL     1      -0.076  -0.748  23.625  0.00  0.00    -0.297 N 
ATOM      5  C   UNL     1       0.394   1.489  24.150  0.00  0.00    +0.109 C 
ATOM      6  C   UNL     1      -0.267   2.839  23.874  0.00  0.00    +0.108 C 
ATOM      7  C   UNL     1      -0.569   1.526  26.457  0.00  0.00    +0.125 C 
ATOM      8  C   UNL     1      -1.172   2.895  26.132  0.00  0.00    +0.103 C 
ATOM      9  C   UNL     1       0.324   0.491  22.997  0.00  0.00    +0.129 C 
ATOM     11  C   UNL     1      -0.498  -0.546  24.953  0.00  0.00    +0.303 C 
ATOM     20  H   UNL     1      -0.130  -1.641  23.145  0.00  0.00    +0.150 HD
ENDROOT
BRANCH   3  10
ATOM     10  C   UNL     1      -0.942   4.935  24.863  0.00  0.00    +0.085 C 
BRANCH  10  12
ATOM     12  C   UNL     1      -2.392   4.985  25.340  0.00  0.00    +0.020 C 
BRANCH  12  13
ATOM     13  C   UNL     1      -3.353   4.553  24.229  0.00  0.00    +0.036 C 
BRANCH  13  14
ATOM     14  C   UNL     1      -4.053   3.261  24.567  0.00  0.00    -0.047 A 
ATOM     15  C   UNL     1      -5.122   3.261  25.463  0.00  0.00    +0.003 A 
ATOM     16  C   UNL     1      -3.631   2.067  23.983  0.00  0.00    +0.003 A 
ATOM     17  C   UNL     1      -5.769   2.065  25.776  0.00  0.00    +0.000 A 
ATOM     18  C   UNL     1      -4.279   0.871  24.297  0.00  0.00    +0.000 A 
ATOM     19  C   UNL     1      -5.347   0.871  25.192  0.00  0.00    +0.000 A 
ENDBRANCH  13  14
ENDBRANCH  12  13
ENDBRANCH  10  12
ENDBRANCH   3  10
TORSDOF 4
ENDMDL
MODEL 10
REMARK VINA RESULT:      -5.6      3.412      6.033
REMARK  Name = 75368545
REMARK  4 active torsions:
REMARK  status: ('A' for Active; 'I' for Inactive)
REMARK    1  A    between atoms: N_3  and  C_10
REMARK    2  A    between atoms: C_10  and  C_12
REMARK    3  A    between atoms: C_12  and  C_13
REMARK    4  A    between atoms: C_13  and  C_14
REMARK                            x       y       z     vdW  Elec       q    Type
REMARK                         _______ _______ _______ _____ _____    ______ ____
ROOT
ATOM      1  O   UNL     1      -5.973   1.972  24.816  0.00  0.00    -0.253 OA
ATOM      2  N   UNL     1      -3.688   2.331  24.385  0.00  0.00    -0.279 N 
ATOM      3  N   UNL     1      -0.969   1.753  23.957  0.00  0.00    -0.299 NA
ATOM      4  N   UNL     1      -4.724   3.650  25.879  0.00  0.00    -0.297 N 
ATOM      5  C   UNL     1      -2.695   3.319  24.751  0.00  0.00    +0.109 C 
ATOM      6  C   UNL     1      -1.364   2.640  25.071  0.00  0.00    +0.108 C 
ATOM      7  C   UNL     1      -3.354   1.318  23.405  0.00  0.00    +0.125 C 
ATOM      8  C   UNL     1      -1.988   0.708  23.730  0.00  0.00    +0.103 C 
ATOM      9  C   UNL     1      -3.338   4.058  25.921  0.00  0.00    +0.129 C 
ATOM     11  C   UNL     1      -4.923   2.572  24.995  0.00  0.00    +0.303 C 
ATOM     20  H   UNL     1      -5.452   4.033  26.474  0.00  0.00    +0.150 HD
ENDROOT
BRANCH   3  10
ATOM     10  C   UNL     1       0.333   1.145  24.228  0.00  0.00    +0.085 C 
BRANCH  10  12
ATOM     12  C   UNL     1       0.479  -0.162  23.449  0.00  0.00    +0.020 C 
BRANCH  12  13
ATOM     13  C   UNL     1       1.521  -0.026  22.336  0.00  0.00    +0.036 C 
BRANCH  13  14
ATOM     14  C   UNL     1       2.927  -0.129  22.872  0.00  0.00    -0.047 A 
ATOM     15  C   UNL     1       3.795   0.958  22.769  0.00  0.00    +0.003 A 
ATOM     16  C   UNL     1       3.359  -1.312  23.471  0.00  0.00    +0.003 A 
ATOM     17  C   UNL     1       5.095   0.861  23.264  0.00  0.00    +0.000 A 
ATOM     18  C   UNL     1       4.660  -1.408  23.967  0.00  0.00    +0.000 A 
ATOM     19  C   UNL     1       5.527  -0.322  23.863  0.00  0.00    +0.000 A 
ENDBRANCH  13  14
ENDBRANCH  12  13
ENDBRANCH  10  12
ENDBRANCH   3  10
TORSDOF 4
ENDMDL
