MODEL 1
REMARK VINA RESULT:      -7.0      0.000      0.000
REMARK  Name = 11943278
REMARK  5 active torsions:
REMARK  status: ('A' for Active; 'I' for Inactive)
REMARK    1  A    between atoms: N_4  and  C_13
REMARK    2  A    between atoms: C_6  and  C_12
REMARK    3  A    between atoms: C_7  and  C_13
REMARK    4  A    between atoms: C_12  and  C_14
REMARK    5  A    between atoms: C_15  and  C_16
REMARK                            x       y       z     vdW  Elec       q    Type
REMARK                         _______ _______ _______ _____ _____    ______ ____
ROOT
ATOM      3  N   UNL     1      -1.198   1.153  25.171  0.00  0.00    -0.298 NA
ATOM      5  C   UNL     1      -3.402   1.936  24.034  0.00  0.00    -0.004 C 
ATOM      6  C   UNL     1      -3.651   0.699  24.926  0.00  0.00    +0.006 C 
ATOM      7  C   UNL     1      -0.996   1.282  23.703  0.00  0.00    +0.074 C 
ATOM      8  C   UNL     1      -2.326   1.600  22.985  0.00  0.00    +0.024 C 
ATOM      9  C   UNL     1      -2.292   0.193  25.458  0.00  0.00    +0.088 C 
ATOM     10  C   UNL     1      -2.825   3.036  24.945  0.00  0.00    +0.019 C 
ATOM     11  C   UNL     1      -1.601   2.481  25.695  0.00  0.00    +0.085 C 
ENDROOT
BRANCH   6  12
ATOM     12  C   UNL     1      -4.426  -0.410  24.217  0.00  0.00    +0.002 C 
ATOM     14  C   UNL     1      -3.674  -1.726  24.261  0.00  0.00    +0.004 C 
ENDBRANCH   6  12
BRANCH   7  13
ATOM     13  C   UNL     1      -0.303   0.058  23.100  0.00  0.00    +0.123 C 
BRANCH  13   4
ATOM      1  O   UNL     1       1.836  -0.301  21.299  0.00  0.00    -0.267 OA
ATOM      4  N   UNL     1       1.085   0.036  23.445  0.00  0.00    -0.307 N 
ATOM     15  C   UNL     1       2.097  -0.148  22.493  0.00  0.00    +0.279 C 
ATOM     20  H   UNL     1       1.344   0.166  24.419  0.00  0.00    +0.149 HD
BRANCH  15  16
ATOM      2  O   UNL     1       3.896  -1.207  23.642  0.00  0.00    -0.458 OA
ATOM     16  C   UNL     1       3.477  -0.113  22.996  0.00  0.00    +0.189 A 
ATOM     17  C   UNL     1       4.405   0.857  22.913  0.00  0.00    +0.054 A 
ATOM     18  C   UNL     1       5.538   0.326  23.576  0.00  0.00    +0.042 A 
ATOM     19  C   UNL     1       5.177  -0.931  24.001  0.00  0.00    +0.196 A 
ENDBRANCH  15  16
ENDBRANCH  13   4
ENDBRANCH   7  13
TORSDOF 4
ENDMDL
MODEL 2
REMARK VINA RESULT:      -6.3      3.219      5.244
REMARK  Name = 11943278
REMARK  5 active torsions:
REMARK  status: ('A' for Active; 'I' for Inactive)
REMARK    1  A    between atoms: N_4  and  C_13
REMARK    2  A    between atoms: C_6  and  C_12
REMARK    3  A    between atoms: C_7  and  C_13
REMARK    4  A    between atoms: C_12  and  C_14
REMARK    5  A    between atoms: C_15  and  C_16
REMARK                            x       y       z     vdW  Elec       q    Type
REMARK                         _______ _______ _______ _____ _____    ______ ____
ROOT
ATOM      3  N   UNL     1      -2.170  -1.500  23.705  0.00  0.00    -0.298 NA
ATOM      5  C   UNL     1      -3.401  -1.012  25.942  0.00  0.00    -0.004 C 
ATOM      6  C   UNL     1      -4.093  -0.291  24.764  0.00  0.00    +0.006 C 
ATOM      7  C   UNL     1      -1.201  -1.014  24.723  0.00  0.00    +0.074 C 
ATOM      8  C   UNL     1      -1.927  -0.574  26.014  0.00  0.00    +0.024 C 
ATOM      9  C   UNL     1      -3.241  -0.497  23.492  0.00  0.00    +0.088 C 
ATOM     10  C   UNL     1      -3.416  -2.518  25.616  0.00  0.00    +0.019 C 
ATOM     11  C   UNL     1      -2.796  -2.740  24.225  0.00  0.00    +0.085 C 
ENDROOT
BRANCH   6  12
ATOM     12  C   UNL     1      -4.354   1.190  25.033  0.00  0.00    +0.002 C 
ATOM     14  C   UNL     1      -5.840   1.491  25.075  0.00  0.00    +0.004 C 
ENDBRANCH   6  12
BRANCH   7  13
ATOM     13  C   UNL     1      -0.289   0.088  24.181  0.00  0.00    +0.123 C 
BRANCH  13   4
ATOM      1  O   UNL     1       0.645   2.116  25.904  0.00  0.00    -0.267 OA
ATOM      4  N   UNL     1      -0.886   1.377  24.356  0.00  0.00    -0.307 N 
ATOM     15  C   UNL     1      -0.365   2.338  25.233  0.00  0.00    +0.279 C 
ATOM     20  H   UNL     1      -1.717   1.602  23.817  0.00  0.00    +0.149 HD
BRANCH  15  16
ATOM      2  O   UNL     1      -2.234   3.637  25.942  0.00  0.00    -0.458 OA
ATOM     16  C   UNL     1      -1.071   3.626  25.280  0.00  0.00    +0.189 A 
ATOM     17  C   UNL     1      -0.733   4.817  24.756  0.00  0.00    +0.054 A 
ATOM     18  C   UNL     1      -1.792   5.682  25.122  0.00  0.00    +0.042 A 
ATOM     19  C   UNL     1      -2.679   4.916  25.841  0.00  0.00    +0.196 A 
ENDBRANCH  15  16
ENDBRANCH  13   4
ENDBRANCH   7  13
TORSDOF 4
ENDMDL
MODEL 3
REMARK VINA RESULT:      -6.2      1.209      2.528
REMARK  Name = 11943278
REMARK  5 active torsions:
REMARK  status: ('A' for Active; 'I' for Inactive)
REMARK    1  A    between atoms: N_4  and  C_13
REMARK    2  A    between atoms: C_6  and  C_12
REMARK    3  A    between atoms: C_7  and  C_13
REMARK    4  A    between atoms: C_12  and  C_14
REMARK    5  A    between atoms: C_15  and  C_16
REMARK                            x       y       z     vdW  Elec       q    Type
REMARK                         _______ _______ _______ _____ _____    ______ ____
ROOT
ATOM      3  N   UNL     1      -2.370  -1.308  23.645  0.00  0.00    -0.298 NA
ATOM      5  C   UNL     1      -3.193  -0.708  26.037  0.00  0.00    -0.004 C 
ATOM      6  C   UNL     1      -4.143  -0.128  24.966  0.00  0.00    +0.006 C 
ATOM      7  C   UNL     1      -1.265  -0.684  24.421  0.00  0.00    +0.074 C 
ATOM      8  C   UNL     1      -1.766  -0.182  25.793  0.00  0.00    +0.024 C 
ATOM      9  C   UNL     1      -3.531  -0.389  23.571  0.00  0.00    +0.088 C 
ATOM     10  C   UNL     1      -3.159  -2.234  25.827  0.00  0.00    +0.019 C 
ATOM     11  C   UNL     1      -2.797  -2.535  24.362  0.00  0.00    +0.085 C 
ENDROOT
BRANCH   6  12
ATOM     12  C   UNL     1      -4.455   1.353  25.175  0.00  0.00    +0.002 C 
ATOM     14  C   UNL     1      -3.961   2.192  24.013  0.00  0.00    +0.004 C 
ENDBRANCH   6  12
BRANCH   7  13
ATOM     13  C   UNL     1      -0.553   0.420  23.637  0.00  0.00    +0.123 C 
BRANCH  13   4
ATOM      1  O   UNL     1       1.271  -0.348  21.628  0.00  0.00    -0.267 OA
ATOM      4  N   UNL     1       0.867   0.319  23.790  0.00  0.00    -0.307 N 
ATOM     15  C   UNL     1       1.713  -0.070  22.744  0.00  0.00    +0.279 C 
ATOM     20  H   UNL     1       1.273   0.546  24.693  0.00  0.00    +0.149 HD
BRANCH  15  16
ATOM      2  O   UNL     1       3.610  -1.203  23.640  0.00  0.00    -0.458 OA
ATOM     16  C   UNL     1       3.151  -0.094  23.046  0.00  0.00    +0.189 A 
ATOM     17  C   UNL     1       4.099   0.832  22.820  0.00  0.00    +0.054 A 
ATOM     18  C   UNL     1       5.290   0.255  23.322  0.00  0.00    +0.042 A 
ATOM     19  C   UNL     1       4.940  -0.981  23.810  0.00  0.00    +0.196 A 
ENDBRANCH  15  16
ENDBRANCH  13   4
ENDBRANCH   7  13
TORSDOF 4
ENDMDL
MODEL 4
REMARK VINA RESULT:      -6.0      3.367      5.039
REMARK  Name = 11943278
REMARK  5 active torsions:
REMARK  status: ('A' for Active; 'I' for Inactive)
REMARK    1  A    between atoms: N_4  and  C_13
REMARK    2  A    between atoms: C_6  and  C_12
REMARK    3  A    between atoms: C_7  and  C_13
REMARK    4  A    between atoms: C_12  and  C_14
REMARK    5  A    between atoms: C_15  and  C_16
REMARK                            x       y       z     vdW  Elec       q    Type
REMARK                         _______ _______ _______ _____ _____    ______ ____
ROOT
ATOM      3  N   UNL     1      -1.003   3.706  25.471  0.00  0.00    -0.298 NA
ATOM      5  C   UNL     1      -3.172   3.886  24.048  0.00  0.00    -0.004 C 
ATOM      6  C   UNL     1      -3.485   3.354  25.465  0.00  0.00    +0.006 C 
ATOM      7  C   UNL     1      -0.821   3.000  24.174  0.00  0.00    +0.074 C 
ATOM      8  C   UNL     1      -2.141   2.963  23.372  0.00  0.00    +0.024 C 
ATOM      9  C   UNL     1      -2.151   3.131  26.212  0.00  0.00    +0.088 C 
ATOM     10  C   UNL     1      -2.505   5.264  24.223  0.00  0.00    +0.019 C 
ATOM     11  C   UNL     1      -1.307   5.128  25.179  0.00  0.00    +0.085 C 
ENDROOT
BRANCH   6  12
ATOM     12  C   UNL     1      -4.345   2.092  25.458  0.00  0.00    +0.002 C 
ATOM     14  C   UNL     1      -5.817   2.426  25.321  0.00  0.00    +0.004 C 
ENDBRANCH   6  12
BRANCH   7  13
ATOM     13  C   UNL     1      -0.222   1.603  24.349  0.00  0.00    +0.123 C 
BRANCH  13   4
ATOM      1  O   UNL     1      -1.163  -0.325  26.180  0.00  0.00    -0.267 OA
ATOM      4  N   UNL     1      -1.196   0.593  24.072  0.00  0.00    -0.307 N 
ATOM     15  C   UNL     1      -1.617  -0.335  25.034  0.00  0.00    +0.279 C 
ATOM     20  H   UNL     1      -1.601   0.554  23.141  0.00  0.00    +0.149 HD
BRANCH  15  16
ATOM      2  O   UNL     1      -2.393  -2.582  24.853  0.00  0.00    -0.458 OA
ATOM     16  C   UNL     1      -2.648  -1.291  24.608  0.00  0.00    +0.189 A 
ATOM     17  C   UNL     1      -3.829  -1.078  24.000  0.00  0.00    +0.054 A 
ATOM     18  C   UNL     1      -4.387  -2.369  23.839  0.00  0.00    +0.042 A 
ATOM     19  C   UNL     1      -3.475  -3.248  24.374  0.00  0.00    +0.196 A 
ENDBRANCH  15  16
ENDBRANCH  13   4
ENDBRANCH   7  13
TORSDOF 4
ENDMDL
MODEL 5
REMARK VINA RESULT:      -5.5      3.381      5.822
REMARK  Name = 11943278
REMARK  5 active torsions:
REMARK  status: ('A' for Active; 'I' for Inactive)
REMARK    1  A    between atoms: N_4  and  C_13
REMARK    2  A    between atoms: C_6  and  C_12
REMARK    3  A    between atoms: C_7  and  C_13
REMARK    4  A    between atoms: C_12  and  C_14
REMARK    5  A    between atoms: C_15  and  C_16
REMARK                            x       y       z     vdW  Elec       q    Type
REMARK                         _______ _______ _______ _____ _____    ______ ____
ROOT
ATOM      3  N   UNL     1      -3.608  -1.354  25.819  0.00  0.00    -0.298 NA
ATOM      5  C   UNL     1      -2.076  -1.553  23.727  0.00  0.00    -0.004 C 
ATOM      6  C   UNL     1      -1.267  -1.096  24.962  0.00  0.00    +0.006 C 
ATOM      7  C   UNL     1      -4.191  -0.585  24.687  0.00  0.00    +0.074 C 
ATOM      8  C   UNL     1      -3.229  -0.562  23.478  0.00  0.00    +0.024 C 
ATOM      9  C   UNL     1      -2.247  -0.856  26.132  0.00  0.00    +0.088 C 
ATOM     10  C   UNL     1      -2.710  -2.911  24.085  0.00  0.00    +0.019 C 
ATOM     11  C   UNL     1      -3.496  -2.772  25.400  0.00  0.00    +0.085 C 
ENDROOT
BRANCH   6  12
ATOM     12  C   UNL     1      -0.399   0.132  24.693  0.00  0.00    +0.002 C 
ATOM     14  C   UNL     1       0.411  -0.031  23.422  0.00  0.00    +0.004 C 
ENDBRANCH   6  12
BRANCH   7  13
ATOM     13  C   UNL     1      -4.620   0.824  25.098  0.00  0.00    +0.123 C 
BRANCH  13   4
ATOM      1  O   UNL     1      -4.681   3.558  25.789  0.00  0.00    -0.267 OA
ATOM      4  N   UNL     1      -3.553   1.758  24.911  0.00  0.00    -0.307 N 
ATOM     15  C   UNL     1      -3.654   3.106  25.279  0.00  0.00    +0.279 C 
ATOM     20  H   UNL     1      -2.686   1.424  24.499  0.00  0.00    +0.149 HD
BRANCH  15  16
ATOM      2  O   UNL     1      -1.425   3.325  24.463  0.00  0.00    -0.458 OA
ATOM     16  C   UNL     1      -2.460   3.933  25.053  0.00  0.00    +0.189 A 
ATOM     17  C   UNL     1      -2.235   5.226  25.348  0.00  0.00    +0.054 A 
ATOM     18  C   UNL     1      -0.915   5.470  24.899  0.00  0.00    +0.042 A 
ATOM     19  C   UNL     1      -0.466   4.283  24.369  0.00  0.00    +0.196 A 
ENDBRANCH  15  16
ENDBRANCH  13   4
ENDBRANCH   7  13
TORSDOF 4
ENDMDL
MODEL 6
REMARK VINA RESULT:      -4.9      3.702      6.069
REMARK  Name = 11943278
REMARK  5 active torsions:
REMARK  status: ('A' for Active; 'I' for Inactive)
REMARK    1  A    between atoms: N_4  and  C_13
REMARK    2  A    between atoms: C_6  and  C_12
REMARK    3  A    between atoms: C_7  and  C_13
REMARK    4  A    between atoms: C_12  and  C_14
REMARK    5  A    between atoms: C_15  and  C_16
REMARK                            x       y       z     vdW  Elec       q    Type
REMARK                         _______ _______ _______ _____ _____    ______ ____
ROOT
ATOM      3  N   UNL     1      -2.788   4.104  24.166  0.00  0.00    -0.298 NA
ATOM      5  C   UNL     1      -0.640   3.509  25.504  0.00  0.00    -0.004 C 
ATOM      6  C   UNL     1      -0.798   2.585  24.275  0.00  0.00    +0.006 C 
ATOM      7  C   UNL     1      -3.123   3.899  25.600  0.00  0.00    +0.074 C 
ATOM      8  C   UNL     1      -1.894   3.398  26.391  0.00  0.00    +0.024 C 
ATOM      9  C   UNL     1      -2.157   2.886  23.605  0.00  0.00    +0.088 C 
ATOM     10  C   UNL     1      -0.582   4.954  24.973  0.00  0.00    +0.019 C 
ATOM     11  C   UNL     1      -1.808   5.214  24.080  0.00  0.00    +0.085 C 
ENDROOT
BRANCH   6  12
ATOM     12  C   UNL     1      -0.654   1.102  24.614  0.00  0.00    +0.002 C 
ATOM     14  C   UNL     1       0.168   0.374  23.568  0.00  0.00    +0.004 C 
ENDBRANCH   6  12
BRANCH   7  13
ATOM     13  C   UNL     1      -4.334   2.983  25.791  0.00  0.00    +0.123 C 
BRANCH  13   4
ATOM      1  O   UNL     1      -5.880   1.013  24.495  0.00  0.00    -0.267 OA
ATOM      4  N   UNL     1      -3.967   1.610  25.620  0.00  0.00    -0.307 N 
ATOM     15  C   UNL     1      -4.788   0.685  24.963  0.00  0.00    +0.279 C 
ATOM     20  H   UNL     1      -3.071   1.301  25.986  0.00  0.00    +0.149 HD
BRANCH  15  16
ATOM      2  O   UNL     1      -3.626  -1.167  25.911  0.00  0.00    -0.458 OA
ATOM     16  C   UNL     1      -4.259  -0.680  24.838  0.00  0.00    +0.189 A 
ATOM     17  C   UNL     1      -4.307  -1.536  23.801  0.00  0.00    +0.054 A 
ATOM     18  C   UNL     1      -3.634  -2.693  24.261  0.00  0.00    +0.042 A 
ATOM     19  C   UNL     1      -3.238  -2.418  25.549  0.00  0.00    +0.196 A 
ENDBRANCH  15  16
ENDBRANCH  13   4
ENDBRANCH   7  13
TORSDOF 4
ENDMDL
MODEL 7
REMARK VINA RESULT:      -4.8      1.406      1.698
REMARK  Name = 11943278
REMARK  5 active torsions:
REMARK  status: ('A' for Active; 'I' for Inactive)
REMARK    1  A    between atoms: N_4  and  C_13
REMARK    2  A    between atoms: C_6  and  C_12
REMARK    3  A    between atoms: C_7  and  C_13
REMARK    4  A    between atoms: C_12  and  C_14
REMARK    5  A    between atoms: C_15  and  C_16
REMARK                            x       y       z     vdW  Elec       q    Type
REMARK                         _______ _______ _______ _____ _____    ______ ____
ROOT
ATOM      3  N   UNL     1      -1.501   2.421  25.256  0.00  0.00    -0.298 NA
ATOM      5  C   UNL     1      -3.469   3.235  23.763  0.00  0.00    -0.004 C 
ATOM      6  C   UNL     1      -3.988   2.387  24.946  0.00  0.00    +0.006 C 
ATOM      7  C   UNL     1      -1.240   2.071  23.834  0.00  0.00    +0.074 C 
ATOM      8  C   UNL     1      -2.458   2.408  22.947  0.00  0.00    +0.024 C 
ATOM      9  C   UNL     1      -2.774   1.813  25.711  0.00  0.00    +0.088 C 
ATOM     10  C   UNL     1      -2.700   4.425  24.370  0.00  0.00    +0.019 C 
ATOM     11  C   UNL     1      -1.636   3.896  25.346  0.00  0.00    +0.085 C 
ENDROOT
BRANCH   6  12
ATOM     12  C   UNL     1      -4.956   1.285  24.518  0.00  0.00    +0.002 C 
ATOM     14  C   UNL     1      -6.306   1.443  25.190  0.00  0.00    +0.004 C 
ENDBRANCH   6  12
BRANCH   7  13
ATOM     13  C   UNL     1      -0.798   0.616  23.664  0.00  0.00    +0.123 C 
BRANCH  13   4
ATOM      1  O   UNL     1       0.985  -0.435  21.748  0.00  0.00    -0.267 OA
ATOM      4  N   UNL     1       0.619   0.491  23.820  0.00  0.00    -0.307 N 
ATOM     15  C   UNL     1       1.445  -0.042  22.822  0.00  0.00    +0.279 C 
ATOM     20  H   UNL     1       1.039   0.809  24.689  0.00  0.00    +0.149 HD
BRANCH  15  16
ATOM      2  O   UNL     1       3.552   1.067  22.920  0.00  0.00    -0.458 OA
ATOM     16  C   UNL     1       2.884  -0.075  23.118  0.00  0.00    +0.189 A 
ATOM     17  C   UNL     1       3.653  -1.084  23.564  0.00  0.00    +0.054 A 
ATOM     18  C   UNL     1       4.952  -0.527  23.661  0.00  0.00    +0.042 A 
ATOM     19  C   UNL     1       4.837   0.782  23.258  0.00  0.00    +0.196 A 
ENDBRANCH  15  16
ENDBRANCH  13   4
ENDBRANCH   7  13
TORSDOF 4
ENDMDL
MODEL 8
REMARK VINA RESULT:      -4.1      3.334      6.536
REMARK  Name = 11943278
REMARK  5 active torsions:
REMARK  status: ('A' for Active; 'I' for Inactive)
REMARK    1  A    between atoms: N_4  and  C_13
REMARK    2  A    between atoms: C_6  and  C_12
REMARK    3  A    between atoms: C_7  and  C_13
REMARK    4  A    between atoms: C_12  and  C_14
REMARK    5  A    between atoms: C_15  and  C_16
REMARK                            x       y       z     vdW  Elec       q    Type
REMARK                         _______ _______ _______ _____ _____    ______ ____
ROOT
ATOM      3  N   UNL     1      -0.329   1.120  23.425  0.00  0.00    -0.298 NA
ATOM      5  C   UNL     1      -0.775  -0.794  25.127  0.00  0.00    -0.004 C 
ATOM      6  C   UNL     1      -1.934  -0.678  24.111  0.00  0.00    +0.006 C 
ATOM      7  C   UNL     1      -0.185   1.631  24.814  0.00  0.00    +0.074 C 
ATOM      8  C   UNL     1      -0.590   0.555  25.846  0.00  0.00    +0.024 C 
ATOM      9  C   UNL     1      -1.687   0.560  23.220  0.00  0.00    +0.088 C 
ATOM     10  C   UNL     1       0.507  -1.059  24.315  0.00  0.00    +0.019 C 
ATOM     11  C   UNL     1       0.655   0.027  23.235  0.00  0.00    +0.085 C 
ENDROOT
BRANCH   6  12
ATOM     12  C   UNL     1      -3.311  -0.631  24.771  0.00  0.00    +0.002 C 
ATOM     14  C   UNL     1      -4.310  -1.499  24.029  0.00  0.00    +0.004 C 
ENDBRANCH   6  12
BRANCH   7  13
ATOM     13  C   UNL     1      -0.941   2.943  25.035  0.00  0.00    +0.123 C 
BRANCH  13   4
ATOM      1  O   UNL     1      -3.222   3.633  23.527  0.00  0.00    -0.267 OA
ATOM      4  N   UNL     1      -2.298   2.693  25.410  0.00  0.00    -0.307 N 
ATOM     15  C   UNL     1      -3.385   3.065  24.608  0.00  0.00    +0.279 C 
ATOM     20  H   UNL     1      -2.476   2.220  26.292  0.00  0.00    +0.149 HD
BRANCH  15  16
ATOM      2  O   UNL     1      -5.452   1.910  24.333  0.00  0.00    -0.458 OA
ATOM     16  C   UNL     1      -4.718   2.710  25.115  0.00  0.00    +0.189 A 
ATOM     17  C   UNL     1      -5.333   3.066  26.257  0.00  0.00    +0.054 A 
ATOM     18  C   UNL     1      -6.594   2.424  26.199  0.00  0.00    +0.042 A 
ATOM     19  C   UNL     1      -6.617   1.735  25.010  0.00  0.00    +0.196 A 
ENDBRANCH  15  16
ENDBRANCH  13   4
ENDBRANCH   7  13
TORSDOF 4
ENDMDL
MODEL 9
REMARK VINA RESULT:      -4.1      1.800      3.174
REMARK  Name = 11943278
REMARK  5 active torsions:
REMARK  status: ('A' for Active; 'I' for Inactive)
REMARK    1  A    between atoms: N_4  and  C_13
REMARK    2  A    between atoms: C_6  and  C_12
REMARK    3  A    between atoms: C_7  and  C_13
REMARK    4  A    between atoms: C_12  and  C_14
REMARK    5  A    between atoms: C_15  and  C_16
REMARK                            x       y       z     vdW  Elec       q    Type
REMARK                         _______ _______ _______ _____ _____    ______ ____
ROOT
ATOM      3  N   UNL     1      -2.517  -0.143  23.766  0.00  0.00    -0.298 NA
ATOM      5  C   UNL     1      -4.662   0.161  25.204  0.00  0.00    -0.004 C 
ATOM      6  C   UNL     1      -4.343   1.448  24.411  0.00  0.00    +0.006 C 
ATOM      7  C   UNL     1      -2.241  -0.522  25.179  0.00  0.00    +0.074 C 
ATOM      8  C   UNL     1      -3.453  -0.209  26.084  0.00  0.00    +0.024 C 
ATOM      9  C   UNL     1      -2.988   1.261  23.693  0.00  0.00    +0.088 C 
ATOM     10  C   UNL     1      -4.839  -0.968  24.172  0.00  0.00    +0.019 C 
ATOM     11  C   UNL     1      -3.601  -1.021  23.261  0.00  0.00    +0.085 C 
ENDROOT
BRANCH   6  12
ATOM     12  C   UNL     1      -4.352   2.708  25.276  0.00  0.00    +0.002 C 
ATOM     14  C   UNL     1      -5.766   3.123  25.632  0.00  0.00    +0.004 C 
ENDBRANCH   6  12
BRANCH   7  13
ATOM     13  C   UNL     1      -0.955   0.112  25.712  0.00  0.00    +0.123 C 
BRANCH  13   4
ATOM      1  O   UNL     1       0.332   2.197  24.316  0.00  0.00    -0.267 OA
ATOM      4  N   UNL     1       0.117  -0.044  24.777  0.00  0.00    -0.307 N 
ATOM     15  C   UNL     1       0.710   1.041  24.119  0.00  0.00    +0.279 C 
ATOM     20  H   UNL     1       0.463  -0.981  24.591  0.00  0.00    +0.149 HD
BRANCH  15  16
ATOM      2  O   UNL     1       2.968   1.376  23.435  0.00  0.00    -0.458 OA
ATOM     16  C   UNL     1       1.822   0.723  23.213  0.00  0.00    +0.189 A 
ATOM     17  C   UNL     1       1.876  -0.133  22.176  0.00  0.00    +0.054 A 
ATOM     18  C   UNL     1       3.198  -0.015  21.684  0.00  0.00    +0.042 A 
ATOM     19  C   UNL     1       3.822   0.915  22.483  0.00  0.00    +0.196 A 
ENDBRANCH  15  16
ENDBRANCH  13   4
ENDBRANCH   7  13
TORSDOF 4
ENDMDL
MODEL 10
REMARK VINA RESULT:      -4.1      3.510      5.174
REMARK  Name = 11943278
REMARK  5 active torsions:
REMARK  status: ('A' for Active; 'I' for Inactive)
REMARK    1  A    between atoms: N_4  and  C_13
REMARK    2  A    between atoms: C_6  and  C_12
REMARK    3  A    between atoms: C_7  and  C_13
REMARK    4  A    between atoms: C_12  and  C_14
REMARK    5  A    between atoms: C_15  and  C_16
REMARK                            x       y       z     vdW  Elec       q    Type
REMARK                         _______ _______ _______ _____ _____    ______ ____
ROOT
ATOM      3  N   UNL     1      -1.972   3.238  26.189  0.00  0.00    -0.298 NA
ATOM      5  C   UNL     1      -1.481   3.804  23.699  0.00  0.00    -0.004 C 
ATOM      6  C   UNL     1      -2.868   3.139  23.850  0.00  0.00    +0.006 C 
ATOM      7  C   UNL     1      -0.652   2.680  25.791  0.00  0.00    +0.074 C 
ATOM      8  C   UNL     1      -0.402   2.872  24.279  0.00  0.00    +0.024 C 
ATOM      9  C   UNL     1      -3.044   2.695  25.319  0.00  0.00    +0.088 C 
ATOM     10  C   UNL     1      -1.499   5.077  24.567  0.00  0.00    +0.019 C 
ATOM     11  C   UNL     1      -1.924   4.708  25.999  0.00  0.00    +0.085 C 
ENDROOT
BRANCH   6  12
ATOM     12  C   UNL     1      -3.088   1.978  22.881  0.00  0.00    +0.002 C 
ATOM     14  C   UNL     1      -2.594   2.319  21.489  0.00  0.00    +0.004 C 
ENDBRANCH   6  12
BRANCH   7  13
ATOM     13  C   UNL     1      -0.485   1.219  26.215  0.00  0.00    +0.123 C 
BRANCH  13   4
ATOM      1  O   UNL     1      -0.188  -1.457  25.376  0.00  0.00    -0.267 OA
ATOM      4  N   UNL     1      -1.513   0.402  25.646  0.00  0.00    -0.307 N 
ATOM     15  C   UNL     1      -1.292  -0.924  25.251  0.00  0.00    +0.279 C 
ATOM     20  H   UNL     1      -2.440   0.802  25.531  0.00  0.00    +0.149 HD
BRANCH  15  16
ATOM      2  O   UNL     1      -3.487  -0.888  24.324  0.00  0.00    -0.458 OA
ATOM     16  C   UNL     1      -2.455  -1.644  24.714  0.00  0.00    +0.189 A 
ATOM     17  C   UNL     1      -2.654  -2.963  24.548  0.00  0.00    +0.054 A 
ATOM     18  C   UNL     1      -3.953  -3.061  23.992  0.00  0.00    +0.042 A 
ATOM     19  C   UNL     1      -4.417  -1.772  23.876  0.00  0.00    +0.196 A 
ENDBRANCH  15  16
ENDBRANCH  13   4
ENDBRANCH   7  13
TORSDOF 4
ENDMDL
