MODEL 1
REMARK VINA RESULT:      -5.4      0.000      0.000
REMARK  Name = 38027263
REMARK  12 active torsions:
REMARK  status: ('A' for Active; 'I' for Inactive)
REMARK    1  A    between atoms: S_1  and  N_5
REMARK    2  A    between atoms: S_1  and  C_25
REMARK    3  A    between atoms: N_5  and  C_14
REMARK    4  A    between atoms: N_6  and  C_18
REMARK    5  A    between atoms: C_7  and  C_11
REMARK    6  A    between atoms: C_8  and  C_14
REMARK    7  A    between atoms: C_10  and  C_15
REMARK    8  A    between atoms: C_11  and  C_16
REMARK    9  A    between atoms: C_11  and  C_17
REMARK   10  A    between atoms: C_12  and  C_19
REMARK   11  A    between atoms: C_15  and  C_20
REMARK   12  A    between atoms: C_25  and  C_26
REMARK                            x       y       z     vdW  Elec       q    Type
REMARK                         _______ _______ _______ _____ _____    ______ ____
ROOT
ATOM      7  C   UNL     1      -2.304  -1.293  24.324  0.00  0.00    +0.000 C 
ATOM      8  C   UNL     1      -2.903  -0.505  25.515  0.00  0.00    +0.030 C 
ATOM      9  C   UNL     1      -0.790  -1.476  24.508  0.00  0.00    +0.012 C 
ATOM     10  C   UNL     1      -0.050  -0.129  24.623  0.00  0.00    +0.023 C 
ATOM     12  C   UNL     1      -0.742   0.812  25.589  0.00  0.00    -0.073 C 
ATOM     13  C   UNL     1      -2.012   0.621  25.986  0.00  0.00    -0.023 C 
ATOM     19  C   UNL     1       0.077   1.955  26.124  0.00  0.00    +0.039 C 
ENDROOT
BRANCH   7  11
ATOM     11  C   UNL     1      -2.974  -2.660  24.153  0.00  0.00    -0.013 C 
ATOM     16  C   UNL     1      -3.185  -3.322  25.512  0.00  0.00    +0.007 C 
ATOM     17  C   UNL     1      -4.300  -2.514  23.413  0.00  0.00    +0.007 C 
ENDBRANCH   7  11
BRANCH   8  14
ATOM     14  C   UNL     1      -4.289   0.052  25.169  0.00  0.00    +0.113 C 
BRANCH  14   5
ATOM      5  N   UNL     1      -4.378   1.445  25.633  0.00  0.00    -0.194 NA
ATOM     32  H   UNL     1      -3.725   1.672  26.394  0.00  0.00    +0.148 HD
BRANCH   5   1
ATOM      1  S   UNL     1      -5.909   2.198  25.729  0.00  0.00    +0.033 S 
ATOM      3  O   UNL     1      -6.416   2.105  27.084  0.00  0.00    -0.158 OA
ATOM      4  O   UNL     1      -6.712   1.756  24.604  0.00  0.00    -0.158 OA
BRANCH   1  25
ATOM     25  C   UNL     1      -5.458   3.891  25.427  0.00  0.00    +0.220 C 
BRANCH  25  26
ATOM     26  C   UNL     1      -4.021   3.913  25.007  0.00  0.00    -0.025 A 
ATOM     27  C   UNL     1      -3.067   4.531  25.816  0.00  0.00    +0.005 A 
ATOM     28  C   UNL     1      -3.637   3.318  23.805  0.00  0.00    +0.005 A 
ATOM     29  C   UNL     1      -1.728   4.552  25.424  0.00  0.00    +0.000 A 
ATOM     30  C   UNL     1      -2.298   3.340  23.413  0.00  0.00    +0.000 A 
ATOM     31  C   UNL     1      -1.344   3.957  24.222  0.00  0.00    +0.000 A 
ENDBRANCH  25  26
ENDBRANCH   1  25
ENDBRANCH   5   1
ENDBRANCH  14   5
ENDBRANCH   8  14
BRANCH  10  15
ATOM     15  C   UNL     1       0.122   0.526  23.248  0.00  0.00    +0.103 C 
BRANCH  15  20
ATOM      2  O   UNL     1       1.129  -0.544  21.325  0.00  0.00    -0.276 OA
ATOM      6  N   UNL     1       2.431  -0.090  23.195  0.00  0.00    -0.312 N 
ATOM     20  C   UNL     1       1.254  -0.096  22.461  0.00  0.00    +0.214 C 
ATOM     33  H   UNL     1       2.435   0.352  24.111  0.00  0.00    +0.149 HD
BRANCH   6  18
ATOM     18  C   UNL     1       3.674  -0.622  22.694  0.00  0.00    +0.073 C 
ATOM     21  C   UNL     1       4.406  -1.436  23.755  0.00  0.00    +0.022 C 
ATOM     22  C   UNL     1       4.674   0.480  22.366  0.00  0.00    +0.022 C 
ATOM     23  C   UNL     1       5.131  -0.395  24.603  0.00  0.00    +0.002 C 
ATOM     24  C   UNL     1       5.341   0.819  23.698  0.00  0.00    +0.002 C 
ENDBRANCH   6  18
ENDBRANCH  15  20
ENDBRANCH  10  15
TORSDOF 9
ENDMDL
MODEL 2
REMARK VINA RESULT:      -2.2      2.001      6.698
REMARK  Name = 38027263
REMARK  12 active torsions:
REMARK  status: ('A' for Active; 'I' for Inactive)
REMARK    1  A    between atoms: S_1  and  N_5
REMARK    2  A    between atoms: S_1  and  C_25
REMARK    3  A    between atoms: N_5  and  C_14
REMARK    4  A    between atoms: N_6  and  C_18
REMARK    5  A    between atoms: C_7  and  C_11
REMARK    6  A    between atoms: C_8  and  C_14
REMARK    7  A    between atoms: C_10  and  C_15
REMARK    8  A    between atoms: C_11  and  C_16
REMARK    9  A    between atoms: C_11  and  C_17
REMARK   10  A    between atoms: C_12  and  C_19
REMARK   11  A    between atoms: C_15  and  C_20
REMARK   12  A    between atoms: C_25  and  C_26
REMARK                            x       y       z     vdW  Elec       q    Type
REMARK                         _______ _______ _______ _____ _____    ______ ____
ROOT
ATOM      7  C   UNL     1      -3.482  -0.730  25.079  0.00  0.00    +0.000 C 
ATOM      8  C   UNL     1      -2.286  -0.174  24.267  0.00  0.00    +0.030 C 
ATOM      9  C   UNL     1      -4.807  -0.407  24.371  0.00  0.00    +0.012 C 
ATOM     10  C   UNL     1      -5.010   1.108  24.180  0.00  0.00    +0.023 C 
ATOM     12  C   UNL     1      -3.767   1.777  23.629  0.00  0.00    -0.073 C 
ATOM     13  C   UNL     1      -2.562   1.184  23.665  0.00  0.00    -0.023 C 
ATOM     19  C   UNL     1      -3.951   3.128  22.994  0.00  0.00    +0.039 C 
ENDROOT
BRANCH   7  11
ATOM     11  C   UNL     1      -3.366  -2.242  25.296  0.00  0.00    -0.013 C 
ATOM     16  C   UNL     1      -4.102  -2.996  24.192  0.00  0.00    +0.007 C 
ATOM     17  C   UNL     1      -1.901  -2.661  25.351  0.00  0.00    +0.007 C 
ENDBRANCH   7  11
BRANCH   8  14
ATOM     14  C   UNL     1      -1.019  -0.103  25.128  0.00  0.00    +0.113 C 
BRANCH  14   5
ATOM      5  N   UNL     1       0.145  -0.460  24.301  0.00  0.00    -0.194 NA
ATOM     32  H   UNL     1       0.837  -1.043  24.789  0.00  0.00    +0.148 HD
BRANCH   5   1
ATOM      1  S   UNL     1       0.787   0.696  23.220  0.00  0.00    +0.033 S 
ATOM      3  O   UNL     1       1.611   1.643  23.947  0.00  0.00    -0.158 OA
ATOM      4  O   UNL     1      -0.278   1.155  22.348  0.00  0.00    -0.158 OA
BRANCH   1  25
ATOM     25  C   UNL     1       1.864  -0.332  22.248  0.00  0.00    +0.220 C 
BRANCH  25  26
ATOM     26  C   UNL     1       3.225  -0.287  22.872  0.00  0.00    -0.025 A 
ATOM     27  C   UNL     1       3.709  -1.393  23.570  0.00  0.00    +0.005 A 
ATOM     28  C   UNL     1       4.007   0.863  22.757  0.00  0.00    +0.005 A 
ATOM     29  C   UNL     1       4.976  -1.351  24.152  0.00  0.00    +0.000 A 
ATOM     30  C   UNL     1       5.274   0.905  23.339  0.00  0.00    +0.000 A 
ATOM     31  C   UNL     1       5.758  -0.202  24.037  0.00  0.00    +0.000 A 
ENDBRANCH  25  26
ENDBRANCH   1  25
ENDBRANCH   5   1
ENDBRANCH  14   5
ENDBRANCH   8  14
BRANCH  10  15
ATOM     15  C   UNL     1      -5.459   1.775  25.486  0.00  0.00    +0.103 C 
BRANCH  15  20
ATOM      2  O   UNL     1      -5.296   4.189  25.531  0.00  0.00    -0.276 OA
ATOM      6  N   UNL     1      -3.462   2.906  26.155  0.00  0.00    -0.312 N 
ATOM     20  C   UNL     1      -4.764   3.097  25.716  0.00  0.00    +0.214 C 
ATOM     33  H   UNL     1      -3.137   1.957  26.322  0.00  0.00    +0.149 HD
BRANCH   6  18
ATOM     18  C   UNL     1      -2.563   3.992  26.453  0.00  0.00    +0.073 C 
ATOM     21  C   UNL     1      -2.139   4.734  25.191  0.00  0.00    +0.022 C 
ATOM     22  C   UNL     1      -1.235   3.495  27.013  0.00  0.00    +0.022 C 
ATOM     23  C   UNL     1      -1.010   3.889  24.610  0.00  0.00    +0.002 C 
ATOM     24  C   UNL     1      -0.403   3.125  25.787  0.00  0.00    +0.002 C 
ENDBRANCH   6  18
ENDBRANCH  15  20
ENDBRANCH  10  15
TORSDOF 9
ENDMDL
MODEL 3
REMARK VINA RESULT:      -2.1      1.346      4.576
REMARK  Name = 38027263
REMARK  12 active torsions:
REMARK  status: ('A' for Active; 'I' for Inactive)
REMARK    1  A    between atoms: S_1  and  N_5
REMARK    2  A    between atoms: S_1  and  C_25
REMARK    3  A    between atoms: N_5  and  C_14
REMARK    4  A    between atoms: N_6  and  C_18
REMARK    5  A    between atoms: C_7  and  C_11
REMARK    6  A    between atoms: C_8  and  C_14
REMARK    7  A    between atoms: C_10  and  C_15
REMARK    8  A    between atoms: C_11  and  C_16
REMARK    9  A    between atoms: C_11  and  C_17
REMARK   10  A    between atoms: C_12  and  C_19
REMARK   11  A    between atoms: C_15  and  C_20
REMARK   12  A    between atoms: C_25  and  C_26
REMARK                            x       y       z     vdW  Elec       q    Type
REMARK                         _______ _______ _______ _____ _____    ______ ____
ROOT
ATOM      7  C   UNL     1      -1.983   3.682  24.995  0.00  0.00    +0.000 C 
ATOM      8  C   UNL     1      -3.193   3.832  24.038  0.00  0.00    +0.030 C 
ATOM      9  C   UNL     1      -0.724   3.288  24.209  0.00  0.00    +0.012 C 
ATOM     10  C   UNL     1      -0.906   1.964  23.442  0.00  0.00    +0.023 C 
ATOM     12  C   UNL     1      -2.216   1.931  22.682  0.00  0.00    -0.073 C 
ATOM     13  C   UNL     1      -3.221   2.781  22.953  0.00  0.00    -0.023 C 
ATOM     19  C   UNL     1      -2.329   0.924  21.570  0.00  0.00    +0.039 C 
ENDROOT
BRANCH   7  11
ATOM     11  C   UNL     1      -1.721   4.969  25.784  0.00  0.00    -0.013 C 
ATOM     16  C   UNL     1      -1.302   6.094  24.842  0.00  0.00    +0.007 C 
ATOM     17  C   UNL     1      -2.959   5.365  26.582  0.00  0.00    +0.007 C 
ENDBRANCH   7  11
BRANCH   8  14
ATOM     14  C   UNL     1      -4.516   3.805  24.812  0.00  0.00    +0.113 C 
BRANCH  14   5
ATOM      5  N   UNL     1      -5.349   2.705  24.300  0.00  0.00    -0.194 NA
ATOM     32  H   UNL     1      -6.107   3.014  23.677  0.00  0.00    +0.148 HD
BRANCH   5   1
ATOM      1  S   UNL     1      -5.732   1.398  25.332  0.00  0.00    +0.033 S 
ATOM      3  O   UNL     1      -6.342   0.330  24.563  0.00  0.00    -0.158 OA
ATOM      4  O   UNL     1      -6.380   1.921  26.519  0.00  0.00    -0.158 OA
BRANCH   1  25
ATOM     25  C   UNL     1      -4.102   0.869  25.805  0.00  0.00    +0.220 C 
BRANCH  25  26
ATOM     26  C   UNL     1      -3.903  -0.520  25.283  0.00  0.00    -0.025 A 
ATOM     27  C   UNL     1      -3.329  -1.496  26.098  0.00  0.00    +0.005 A 
ATOM     28  C   UNL     1      -4.290  -0.838  23.981  0.00  0.00    +0.005 A 
ATOM     29  C   UNL     1      -3.143  -2.790  25.612  0.00  0.00    +0.000 A 
ATOM     30  C   UNL     1      -4.104  -2.133  23.495  0.00  0.00    +0.000 A 
ATOM     31  C   UNL     1      -3.530  -3.108  24.310  0.00  0.00    +0.000 A 
ENDBRANCH  25  26
ENDBRANCH   1  25
ENDBRANCH   5   1
ENDBRANCH  14   5
ENDBRANCH   8  14
BRANCH  10  15
ATOM     15  C   UNL     1      -0.786   0.760  24.382  0.00  0.00    +0.103 C 
BRANCH  15  20
ATOM      2  O   UNL     1      -0.197  -1.518  23.816  0.00  0.00    -0.276 OA
ATOM      6  N   UNL     1       1.259   0.210  23.275  0.00  0.00    -0.312 N 
ATOM     20  C   UNL     1       0.095  -0.325  23.805  0.00  0.00    +0.214 C 
ATOM     33  H   UNL     1       1.378   1.220  23.274  0.00  0.00    +0.149 HD
BRANCH   6  18
ATOM     18  C   UNL     1       2.286  -0.593  22.659  0.00  0.00    +0.073 C 
ATOM     21  C   UNL     1       3.397  -0.938  23.643  0.00  0.00    +0.022 C 
ATOM     22  C   UNL     1       3.028   0.170  21.568  0.00  0.00    +0.022 C 
ATOM     23  C   UNL     1       4.295   0.295  23.656  0.00  0.00    +0.002 C 
ATOM     24  C   UNL     1       4.089   0.983  22.306  0.00  0.00    +0.002 C 
ENDBRANCH   6  18
ENDBRANCH  15  20
ENDBRANCH  10  15
TORSDOF 9
ENDMDL
