MODEL 1
REMARK VINA RESULT:      -2.0      0.000      0.000
REMARK  Name = 56774551
REMARK  7 active torsions:
REMARK  status: ('A' for Active; 'I' for Inactive)
REMARK    1  A    between atoms: O_2  and  C_15
REMARK    2  A    between atoms: N_5  and  C_18
REMARK    3  A    between atoms: N_6  and  C_21
REMARK    4  A    between atoms: C_7  and  C_14
REMARK    5  A    between atoms: C_13  and  C_15
REMARK    6  A    between atoms: C_15  and  C_17
REMARK    7  A    between atoms: C_18  and  C_26
REMARK                            x       y       z     vdW  Elec       q    Type
REMARK                         _______ _______ _______ _____ _____    ______ ____
ROOT
ATOM     17  C   UNL     1      -1.533   2.918  25.602  0.00  0.00    -0.017 A 
ATOM     21  C   UNL     1       0.692   1.978  24.206  0.00  0.00    +0.033 A 
ATOM     22  C   UNL     1      -0.950   3.704  24.608  0.00  0.00    +0.008 A 
ATOM     23  C   UNL     1      -1.003   1.662  25.899  0.00  0.00    +0.008 A 
ATOM     24  C   UNL     1       0.162   3.233  23.910  0.00  0.00    +0.023 A 
ATOM     25  C   UNL     1       0.109   1.192  25.201  0.00  0.00    +0.023 A 
ENDROOT
BRANCH  21   6
ATOM      3  O   UNL     1       1.196  -0.689  22.904  0.00  0.00    -0.275 OA
ATOM      6  N   UNL     1       1.804   1.507  23.508  0.00  0.00    -0.285 N 
ATOM     14  C   UNL     1       1.988   0.248  22.921  0.00  0.00    +0.220 C 
ATOM     27  H   UNL     1       2.567   2.175  23.417  0.00  0.00    +0.155 HD
BRANCH  14   7
ATOM      7  C   UNL     1       3.330   0.133  22.260  0.00  0.00    +0.075 C 
ATOM      8  C   UNL     1       3.899  -1.273  22.462  0.00  0.00    +0.013 C 
ATOM      9  C   UNL     1       4.278   1.231  22.746  0.00  0.00    +0.013 C 
ATOM     10  C   UNL     1       4.446  -1.500  23.871  0.00  0.00    +0.001 C 
ATOM     11  C   UNL     1       4.840   0.974  24.144  0.00  0.00    +0.001 C 
ATOM     12  C   UNL     1       5.447  -0.419  24.265  0.00  0.00    +0.000 C 
ENDBRANCH  14   7
ENDBRANCH  21   6
BRANCH  17  15
ATOM     15  C   UNL     1      -2.736   3.426  26.357  0.00  0.00    +0.167 C 
BRANCH  15  13
ATOM      1  O   UNL     1      -4.174   4.425  24.002  0.00  0.00    -0.369 OA
ATOM      4  O   UNL     1      -3.211   1.219  22.647  0.00  0.00    -0.273 OA
ATOM      5  N   UNL     1      -3.766   1.780  24.838  0.00  0.00    -0.292 N 
ATOM     13  C   UNL     1      -4.041   2.854  25.799  0.00  0.00    +0.135 C 
ATOM     16  C   UNL     1      -4.879   3.942  25.139  0.00  0.00    +0.185 C 
ATOM     19  C   UNL     1      -3.609   2.038  23.477  0.00  0.00    +0.242 C 
ATOM     20  C   UNL     1      -4.055   3.422  23.018  0.00  0.00    +0.255 C 
BRANCH   5  18
ATOM     18  C   UNL     1      -3.477   0.456  25.371  0.00  0.00    +0.105 C 
ATOM     26  C   UNL     1      -4.275  -0.616  24.657  0.00  0.00    +0.024 C 
ENDBRANCH   5  18
ENDBRANCH  15  13
BRANCH  15   2
ATOM      2  O   UNL     1      -2.775   4.848  26.286  0.00  0.00    -0.385 OA
ATOM     28  H   UNL     1      -2.509   5.132  25.396  0.00  0.00    +0.210 HD
ENDBRANCH  15   2
ENDBRANCH  17  15
TORSDOF 6
ENDMDL
MODEL 2
REMARK VINA RESULT:      -1.3      1.821      2.970
REMARK  Name = 56774551
REMARK  7 active torsions:
REMARK  status: ('A' for Active; 'I' for Inactive)
REMARK    1  A    between atoms: O_2  and  C_15
REMARK    2  A    between atoms: N_5  and  C_18
REMARK    3  A    between atoms: N_6  and  C_21
REMARK    4  A    between atoms: C_7  and  C_14
REMARK    5  A    between atoms: C_13  and  C_15
REMARK    6  A    between atoms: C_15  and  C_17
REMARK    7  A    between atoms: C_18  and  C_26
REMARK                            x       y       z     vdW  Elec       q    Type
REMARK                         _______ _______ _______ _____ _____    ______ ____
ROOT
ATOM     17  C   UNL     1      -2.626   0.297  24.203  0.00  0.00    -0.017 A 
ATOM     21  C   UNL     1      -0.010  -0.027  23.287  0.00  0.00    +0.033 A 
ATOM     22  C   UNL     1      -1.723  -0.480  24.929  0.00  0.00    +0.008 A 
ATOM     23  C   UNL     1      -2.221   0.911  23.017  0.00  0.00    +0.008 A 
ATOM     24  C   UNL     1      -0.415  -0.640  24.472  0.00  0.00    +0.023 A 
ATOM     25  C   UNL     1      -0.913   0.749  22.560  0.00  0.00    +0.023 A 
ENDROOT
BRANCH  21   6
ATOM      3  O   UNL     1       2.405   1.741  23.610  0.00  0.00    -0.275 OA
ATOM      6  N   UNL     1       1.298  -0.188  22.829  0.00  0.00    -0.285 N 
ATOM     14  C   UNL     1       2.389   0.673  23.007  0.00  0.00    +0.220 C 
ATOM     27  H   UNL     1       1.466  -1.045  22.307  0.00  0.00    +0.155 HD
BRANCH  14   7
ATOM      7  C   UNL     1       3.631   0.138  22.357  0.00  0.00    +0.075 C 
ATOM      8  C   UNL     1       3.790  -1.352  22.667  0.00  0.00    +0.013 C 
ATOM      9  C   UNL     1       4.858   0.960  22.757  0.00  0.00    +0.013 C 
ATOM     10  C   UNL     1       4.283  -1.617  24.089  0.00  0.00    +0.001 C 
ATOM     11  C   UNL     1       5.356   0.661  24.170  0.00  0.00    +0.001 C 
ATOM     12  C   UNL     1       5.553  -0.833  24.399  0.00  0.00    +0.000 C 
ENDBRANCH  14   7
ENDBRANCH  21   6
BRANCH  17  15
ATOM     15  C   UNL     1      -4.039   0.472  24.698  0.00  0.00    +0.167 C 
BRANCH  15  13
ATOM      1  O   UNL     1      -6.344   1.804  25.931  0.00  0.00    -0.369 OA
ATOM      4  O   UNL     1      -3.833   4.214  26.891  0.00  0.00    -0.273 OA
ATOM      5  N   UNL     1      -3.964   2.923  24.958  0.00  0.00    -0.292 N 
ATOM     13  C   UNL     1      -4.632   1.815  24.264  0.00  0.00    +0.135 C 
ATOM     16  C   UNL     1      -6.132   1.863  24.526  0.00  0.00    +0.185 C 
ATOM     19  C   UNL     1      -4.435   3.411  26.176  0.00  0.00    +0.242 C 
ATOM     20  C   UNL     1      -5.836   2.954  26.568  0.00  0.00    +0.255 C 
BRANCH   5  18
ATOM     18  C   UNL     1      -2.686   3.378  24.429  0.00  0.00    +0.105 C 
ATOM     26  C   UNL     1      -1.614   3.384  25.500  0.00  0.00    +0.024 C 
ENDBRANCH   5  18
ENDBRANCH  15  13
BRANCH  15   2
ATOM      2  O   UNL     1      -4.059   0.384  26.118  0.00  0.00    -0.385 OA
ATOM     28  H   UNL     1      -4.881   0.778  26.453  0.00  0.00    +0.210 HD
ENDBRANCH  15   2
ENDBRANCH  17  15
TORSDOF 6
ENDMDL
MODEL 3
REMARK VINA RESULT:      -0.9      1.309      2.450
REMARK  Name = 56774551
REMARK  7 active torsions:
REMARK  status: ('A' for Active; 'I' for Inactive)
REMARK    1  A    between atoms: O_2  and  C_15
REMARK    2  A    between atoms: N_5  and  C_18
REMARK    3  A    between atoms: N_6  and  C_21
REMARK    4  A    between atoms: C_7  and  C_14
REMARK    5  A    between atoms: C_13  and  C_15
REMARK    6  A    between atoms: C_15  and  C_17
REMARK    7  A    between atoms: C_18  and  C_26
REMARK                            x       y       z     vdW  Elec       q    Type
REMARK                         _______ _______ _______ _____ _____    ______ ____
ROOT
ATOM     17  C   UNL     1      -1.594   2.833  25.163  0.00  0.00    -0.017 A 
ATOM     21  C   UNL     1       0.760   1.916  23.979  0.00  0.00    +0.033 A 
ATOM     22  C   UNL     1      -1.184   1.513  25.354  0.00  0.00    +0.008 A 
ATOM     23  C   UNL     1      -0.826   3.694  24.378  0.00  0.00    +0.008 A 
ATOM     24  C   UNL     1      -0.006   1.055  24.763  0.00  0.00    +0.023 A 
ATOM     25  C   UNL     1       0.351   3.236  23.786  0.00  0.00    +0.023 A 
ENDROOT
BRANCH  21   6
ATOM      3  O   UNL     1       1.397  -0.724  22.680  0.00  0.00    -0.275 OA
ATOM      6  N   UNL     1       1.938   1.458  23.387  0.00  0.00    -0.285 N 
ATOM     14  C   UNL     1       2.181   0.211  22.796  0.00  0.00    +0.220 C 
ATOM     27  H   UNL     1       2.705   2.127  23.387  0.00  0.00    +0.155 HD
BRANCH  14   7
ATOM      7  C   UNL     1       3.583   0.109  22.270  0.00  0.00    +0.075 C 
ATOM      8  C   UNL     1       4.130  -1.303  22.498  0.00  0.00    +0.013 C 
ATOM      9  C   UNL     1       4.477   1.194  22.875  0.00  0.00    +0.013 C 
ATOM     10  C   UNL     1       4.533  -1.561  23.949  0.00  0.00    +0.001 C 
ATOM     11  C   UNL     1       4.895   0.905  24.316  0.00  0.00    +0.001 C 
ATOM     12  C   UNL     1       5.488  -0.492  24.466  0.00  0.00    +0.000 C 
ENDBRANCH  14   7
ENDBRANCH  21   6
BRANCH  17  15
ATOM     15  C   UNL     1      -2.866   3.328  25.802  0.00  0.00    +0.167 C 
BRANCH  15  13
ATOM      1  O   UNL     1      -3.865   1.043  24.257  0.00  0.00    -0.369 OA
ATOM      4  O   UNL     1      -6.779   1.522  26.335  0.00  0.00    -0.273 OA
ATOM      5  N   UNL     1      -5.302   3.111  25.490  0.00  0.00    -0.292 N 
ATOM     13  C   UNL     1      -4.028   3.363  24.806  0.00  0.00    +0.135 C 
ATOM     16  C   UNL     1      -3.825   2.347  23.690  0.00  0.00    +0.185 C 
ATOM     19  C   UNL     1      -5.813   1.821  25.632  0.00  0.00    +0.242 C 
ATOM     20  C   UNL     1      -5.146   0.755  24.770  0.00  0.00    +0.255 C 
BRANCH   5  18
ATOM     18  C   UNL     1      -5.931   4.229  26.179  0.00  0.00    +0.105 C 
ATOM     26  C   UNL     1      -6.284   5.345  25.218  0.00  0.00    +0.024 C 
ENDBRANCH   5  18
ENDBRANCH  15  13
BRANCH  15   2
ATOM      2  O   UNL     1      -2.655   4.635  26.327  0.00  0.00    -0.385 OA
ATOM     28  H   UNL     1      -3.288   5.250  25.921  0.00  0.00    +0.210 HD
ENDBRANCH  15   2
ENDBRANCH  17  15
TORSDOF 6
ENDMDL
MODEL 4
REMARK VINA RESULT:      -0.6      1.510      2.010
REMARK  Name = 56774551
REMARK  7 active torsions:
REMARK  status: ('A' for Active; 'I' for Inactive)
REMARK    1  A    between atoms: O_2  and  C_15
REMARK    2  A    between atoms: N_5  and  C_18
REMARK    3  A    between atoms: N_6  and  C_21
REMARK    4  A    between atoms: C_7  and  C_14
REMARK    5  A    between atoms: C_13  and  C_15
REMARK    6  A    between atoms: C_15  and  C_17
REMARK    7  A    between atoms: C_18  and  C_26
REMARK                            x       y       z     vdW  Elec       q    Type
REMARK                         _______ _______ _______ _____ _____    ______ ____
ROOT
ATOM     17  C   UNL     1      -1.791   2.582  24.106  0.00  0.00    -0.017 A 
ATOM     21  C   UNL     1       0.550   1.275  23.335  0.00  0.00    +0.033 A 
ATOM     22  C   UNL     1      -1.827   1.629  23.089  0.00  0.00    +0.008 A 
ATOM     23  C   UNL     1      -0.584   2.882  24.739  0.00  0.00    +0.008 A 
ATOM     24  C   UNL     1      -0.656   0.975  22.704  0.00  0.00    +0.023 A 
ATOM     25  C   UNL     1       0.586   2.228  24.353  0.00  0.00    +0.023 A 
ENDROOT
BRANCH  21   6
ATOM      3  O   UNL     1       1.675  -1.383  24.190  0.00  0.00    -0.275 OA
ATOM      6  N   UNL     1       1.721   0.621  22.951  0.00  0.00    -0.285 N 
ATOM     14  C   UNL     1       2.200  -0.622  23.384  0.00  0.00    +0.220 C 
ATOM     27  H   UNL     1       2.284   1.120  22.264  0.00  0.00    +0.155 HD
BRANCH  14   7
ATOM      7  C   UNL     1       3.504  -0.975  22.729  0.00  0.00    +0.075 C 
ATOM      8  C   UNL     1       4.471  -1.559  23.761  0.00  0.00    +0.013 C 
ATOM      9  C   UNL     1       4.088   0.228  21.984  0.00  0.00    +0.013 C 
ATOM     10  C   UNL     1       5.086  -0.498  24.673  0.00  0.00    +0.001 C 
ATOM     11  C   UNL     1       4.725   1.265  22.909  0.00  0.00    +0.001 C 
ATOM     12  C   UNL     1       5.723   0.631  23.870  0.00  0.00    +0.000 C 
ENDBRANCH  14   7
ENDBRANCH  21   6
BRANCH  17  15
ATOM     15  C   UNL     1      -3.057   3.288  24.523  0.00  0.00    +0.167 C 
BRANCH  15  13
ATOM      1  O   UNL     1      -5.381   4.292  26.006  0.00  0.00    -0.369 OA
ATOM      4  O   UNL     1      -6.994   1.457  24.457  0.00  0.00    -0.273 OA
ATOM      5  N   UNL     1      -4.796   1.673  25.193  0.00  0.00    -0.292 N 
ATOM     13  C   UNL     1      -3.749   2.575  25.688  0.00  0.00    +0.135 C 
ATOM     16  C   UNL     1      -4.345   3.577  26.669  0.00  0.00    +0.185 C 
ATOM     19  C   UNL     1      -6.111   2.104  25.024  0.00  0.00    +0.242 C 
ATOM     20  C   UNL     1      -6.453   3.438  25.677  0.00  0.00    +0.255 C 
BRANCH   5  18
ATOM     18  C   UNL     1      -4.384   0.364  24.708  0.00  0.00    +0.105 C 
ATOM     26  C   UNL     1      -3.593  -0.393  25.756  0.00  0.00    +0.024 C 
ENDBRANCH   5  18
ENDBRANCH  15  13
BRANCH  15   2
ATOM      2  O   UNL     1      -3.948   3.357  23.416  0.00  0.00    -0.385 OA
ATOM     28  H   UNL     1      -4.266   4.270  23.316  0.00  0.00    +0.210 HD
ENDBRANCH  15   2
ENDBRANCH  17  15
TORSDOF 6
ENDMDL
MODEL 5
REMARK VINA RESULT:       0.1      1.781      2.687
REMARK  Name = 56774551
REMARK  7 active torsions:
REMARK  status: ('A' for Active; 'I' for Inactive)
REMARK    1  A    between atoms: O_2  and  C_15
REMARK    2  A    between atoms: N_5  and  C_18
REMARK    3  A    between atoms: N_6  and  C_21
REMARK    4  A    between atoms: C_7  and  C_14
REMARK    5  A    between atoms: C_13  and  C_15
REMARK    6  A    between atoms: C_15  and  C_17
REMARK    7  A    between atoms: C_18  and  C_26
REMARK                            x       y       z     vdW  Elec       q    Type
REMARK                         _______ _______ _______ _____ _____    ______ ____
ROOT
ATOM     17  C   UNL     1      -2.570   0.599  23.954  0.00  0.00    -0.017 A 
ATOM     21  C   UNL     1       0.062   0.153  23.143  0.00  0.00    +0.033 A 
ATOM     22  C   UNL     1      -1.998   1.404  22.969  0.00  0.00    +0.008 A 
ATOM     23  C   UNL     1      -1.826  -0.428  24.535  0.00  0.00    +0.008 A 
ATOM     24  C   UNL     1      -0.682   1.180  22.563  0.00  0.00    +0.023 A 
ATOM     25  C   UNL     1      -0.510  -0.651  24.129  0.00  0.00    +0.023 A 
ENDROOT
BRANCH  21   6
ATOM      3  O   UNL     1       2.541   1.810  23.553  0.00  0.00    -0.275 OA
ATOM      6  N   UNL     1       1.378  -0.071  22.738  0.00  0.00    -0.285 N 
ATOM     14  C   UNL     1       2.500   0.740  22.956  0.00  0.00    +0.220 C 
ATOM     27  H   UNL     1       1.527  -0.939  22.227  0.00  0.00    +0.155 HD
BRANCH  14   7
ATOM      7  C   UNL     1       3.741   0.144  22.358  0.00  0.00    +0.075 C 
ATOM      8  C   UNL     1       3.814  -1.351  22.675  0.00  0.00    +0.013 C 
ATOM      9  C   UNL     1       4.989   0.907  22.809  0.00  0.00    +0.013 C 
ATOM     10  C   UNL     1       4.234  -1.637  24.117  0.00  0.00    +0.001 C 
ATOM     11  C   UNL     1       5.412   0.587  24.242  0.00  0.00    +0.001 C 
ATOM     12  C   UNL     1       5.527  -0.914  24.479  0.00  0.00    +0.000 C 
ENDBRANCH  14   7
ENDBRANCH  21   6
BRANCH  17  15
ATOM     15  C   UNL     1      -3.993   0.840  24.392  0.00  0.00    +0.167 C 
BRANCH  15  13
ATOM      1  O   UNL     1      -2.578   3.327  25.043  0.00  0.00    -0.369 OA
ATOM      4  O   UNL     1      -5.936   4.651  25.140  0.00  0.00    -0.273 OA
ATOM      5  N   UNL     1      -5.176   2.534  25.739  0.00  0.00    -0.292 N 
ATOM     13  C   UNL     1      -4.059   1.581  25.730  0.00  0.00    +0.135 C 
ATOM     16  C   UNL     1      -2.752   2.308  26.020  0.00  0.00    +0.185 C 
ATOM     19  C   UNL     1      -5.014   3.853  25.320  0.00  0.00    +0.242 C 
ATOM     20  C   UNL     1      -3.571   4.320  25.167  0.00  0.00    +0.255 C 
BRANCH   5  18
ATOM     18  C   UNL     1      -6.505   2.011  26.024  0.00  0.00    +0.105 C 
ATOM     26  C   UNL     1      -6.542   1.288  27.355  0.00  0.00    +0.024 C 
ENDBRANCH   5  18
ENDBRANCH  15  13
BRANCH  15   2
ATOM      2  O   UNL     1      -4.671  -0.406  24.509  0.00  0.00    -0.385 OA
ATOM     28  H   UNL     1      -4.201  -1.078  23.987  0.00  0.00    +0.210 HD
ENDBRANCH  15   2
ENDBRANCH  17  15
TORSDOF 6
ENDMDL
MODEL 6
REMARK VINA RESULT:       0.4     14.829     17.752
REMARK  Name = 56774551
REMARK  7 active torsions:
REMARK  status: ('A' for Active; 'I' for Inactive)
REMARK    1  A    between atoms: O_2  and  C_15
REMARK    2  A    between atoms: N_5  and  C_18
REMARK    3  A    between atoms: N_6  and  C_21
REMARK    4  A    between atoms: C_7  and  C_14
REMARK    5  A    between atoms: C_13  and  C_15
REMARK    6  A    between atoms: C_15  and  C_17
REMARK    7  A    between atoms: C_18  and  C_26
REMARK                            x       y       z     vdW  Elec       q    Type
REMARK                         _______ _______ _______ _____ _____    ______ ____
ROOT
ATOM     17  C   UNL     1      -4.563  -9.830  11.967  0.00  0.00    -0.017 A 
ATOM     21  C   UNL     1      -6.909  -9.921  13.474  0.00  0.00    +0.033 A 
ATOM     22  C   UNL     1      -5.620  -8.971  11.666  0.00  0.00    +0.008 A 
ATOM     23  C   UNL     1      -4.679 -10.736  13.021  0.00  0.00    +0.008 A 
ATOM     24  C   UNL     1      -6.792  -9.016  12.420  0.00  0.00    +0.023 A 
ATOM     25  C   UNL     1      -5.853 -10.781  13.775  0.00  0.00    +0.023 A 
ENDROOT
BRANCH  21   6
ATOM      3  O   UNL     1      -7.316 -10.307  16.432  0.00  0.00    -0.275 OA
ATOM      6  N   UNL     1      -8.082  -9.967  14.229  0.00  0.00    -0.285 N 
ATOM     14  C   UNL     1      -8.214 -10.152  15.611  0.00  0.00    +0.220 C 
ATOM     27  H   UNL     1      -8.940  -9.843  13.695  0.00  0.00    +0.155 HD
BRANCH  14   7
ATOM      7  C   UNL     1      -9.653 -10.140  16.039  0.00  0.00    +0.075 C 
ATOM      8  C   UNL     1     -10.494  -9.346  15.037  0.00  0.00    +0.013 C 
ATOM      9  C   UNL     1      -9.795  -9.624  17.473  0.00  0.00    +0.013 C 
ATOM     10  C   UNL     1     -10.321  -7.834  15.177  0.00  0.00    +0.001 C 
ATOM     11  C   UNL     1      -9.649  -8.107  17.590  0.00  0.00    +0.001 C 
ATOM     12  C   UNL     1     -10.556  -7.371  16.611  0.00  0.00    +0.000 C 
ENDBRANCH  14   7
ENDBRANCH  21   6
BRANCH  17  15
ATOM     15  C   UNL     1      -3.295  -9.780  11.152  0.00  0.00    +0.167 C 
BRANCH  15  13
ATOM      1  O   UNL     1      -0.435  -9.259  10.757  0.00  0.00    -0.369 OA
ATOM      4  O   UNL     1      -0.641  -8.194  14.202  0.00  0.00    -0.273 OA
ATOM      5  N   UNL     1      -1.810  -9.891  13.118  0.00  0.00    -0.292 N 
ATOM     13  C   UNL     1      -2.148 -10.527  11.839  0.00  0.00    +0.135 C 
ATOM     16  C   UNL     1      -0.917 -10.585  10.943  0.00  0.00    +0.185 C 
ATOM     19  C   UNL     1      -0.850  -8.884  13.202  0.00  0.00    +0.242 C 
ATOM     20  C   UNL     1       0.035  -8.718  11.971  0.00  0.00    +0.255 C 
BRANCH   5  18
ATOM     18  C   UNL     1      -2.638 -10.214  14.271  0.00  0.00    +0.105 C 
ATOM     26  C   UNL     1      -1.807 -10.750  15.419  0.00  0.00    +0.024 C 
ENDBRANCH   5  18
ENDBRANCH  15  13
BRANCH  15   2
ATOM      2  O   UNL     1      -2.917  -8.424  10.944  0.00  0.00    -0.385 OA
ATOM     28  H   UNL     1      -3.714  -7.887  10.800  0.00  0.00    +0.210 HD
ENDBRANCH  15   2
ENDBRANCH  17  15
TORSDOF 6
ENDMDL
