MODEL 1
REMARK VINA RESULT:       3.6      0.000      0.000
REMARK  Name = 11879846
REMARK  7 active torsions:
REMARK  status: ('A' for Active; 'I' for Inactive)
REMARK    1  A    between atoms: S_1  and  N_11
REMARK    2  A    between atoms: S_1  and  C_25
REMARK    3  A    between atoms: O_4  and  C_24
REMARK    4  A    between atoms: O_8  and  C_30
REMARK    5  A    between atoms: O_8  and  C_31
REMARK    6  A    between atoms: N_11  and  C_22
REMARK    7  A    between atoms: C_21  and  C_24
REMARK                            x       y       z     vdW  Elec       q    Type
REMARK                         _______ _______ _______ _____ _____    ______ ____
ROOT
ATOM      2  O   UNL     1       0.095   1.561  26.701  0.00  0.00    -0.266 OA
ATOM      3  O   UNL     1      -4.278   1.708  23.213  0.00  0.00    -0.263 OA
ATOM      9  N   UNL     1      -1.119   3.280  25.672  0.00  0.00    -0.310 N 
ATOM     10  N   UNL     1      -4.218   3.409  24.815  0.00  0.00    -0.291 N 
ATOM     12  C   UNL     1      -3.095   4.458  26.791  0.00  0.00    +0.027 C 
ATOM     13  C   UNL     1      -2.419   5.106  24.519  0.00  0.00    +0.054 C 
ATOM     14  C   UNL     1      -2.708   5.643  25.918  0.00  0.00    +0.018 C 
ATOM     15  C   UNL     1      -1.895   3.508  26.897  0.00  0.00    +0.130 C 
ATOM     16  C   UNL     1      -4.343   3.749  26.233  0.00  0.00    +0.113 C 
ATOM     17  C   UNL     1      -3.695   4.466  23.945  0.00  0.00    +0.118 C 
ATOM     18  C   UNL     1      -1.295   4.086  24.539  0.00  0.00    +0.027 A 
ATOM     19  C   UNL     1      -0.493   3.941  23.468  0.00  0.00    +0.024 A 
ATOM     20  C   UNL     1      -0.119   2.288  25.732  0.00  0.00    +0.274 A 
ATOM     21  C   UNL     1      -4.679   2.224  24.249  0.00  0.00    +0.324 C 
ATOM     22  C   UNL     1       0.717   2.159  24.512  0.00  0.00    +0.112 A 
ATOM     23  C   UNL     1       0.546   2.947  23.450  0.00  0.00    +0.031 A 
ENDROOT
BRANCH  21  24
ATOM      5  O   UNL     1      -6.942   1.652  24.659  0.00  0.00    -0.240 OA
ATOM     24  C   UNL     1      -5.767   1.409  24.848  0.00  0.00    +0.392 C 
BRANCH  24   4
ATOM      4  O   UNL     1      -5.230   0.422  25.577  0.00  0.00    -0.474 OA
ATOM     33  H   UNL     1      -5.912  -0.129  26.016  0.00  0.00    +0.296 HD
ENDBRANCH  24   4
ENDBRANCH  21  24
BRANCH  22  11
ATOM     11  N   UNL     1       1.740   1.196  24.452  0.00  0.00    -0.211 N 
ATOM     32  H   UNL     1       2.681   1.613  24.444  0.00  0.00    +0.174 HD
BRANCH  11   1
ATOM      1  S   UNL     1       1.529  -0.085  23.365  0.00  0.00    +0.073 S 
ATOM      6  O   UNL     1       1.363   0.436  22.022  0.00  0.00    -0.150 OA
ATOM      7  O   UNL     1       2.512  -1.119  23.632  0.00  0.00    -0.150 OA
BRANCH   1  25
ATOM     25  C   UNL     1      -0.043  -0.703  23.889  0.00  0.00    +0.109 A 
ATOM     26  C   UNL     1      -0.090  -1.747  24.795  0.00  0.00    +0.032 A 
ATOM     27  C   UNL     1      -1.196  -0.132  23.380  0.00  0.00    +0.032 A 
ATOM     28  C   UNL     1      -1.331  -2.236  25.206  0.00  0.00    +0.047 A 
ATOM     29  C   UNL     1      -2.437  -0.620  23.791  0.00  0.00    +0.047 A 
ATOM     30  C   UNL     1      -2.503  -1.673  24.704  0.00  0.00    +0.120 A 
BRANCH  30   8
ATOM      8  O   UNL     1      -3.714  -2.149  25.106  0.00  0.00    -0.495 OA
ATOM     31  C   UNL     1      -4.586  -2.643  24.092  0.00  0.00    +0.277 C 
ENDBRANCH  30   8
ENDBRANCH   1  25
ENDBRANCH  11   1
ENDBRANCH  22  11
TORSDOF 6
ENDMDL
MODEL 2
REMARK VINA RESULT:       3.8      2.245      4.932
REMARK  Name = 11879846
REMARK  7 active torsions:
REMARK  status: ('A' for Active; 'I' for Inactive)
REMARK    1  A    between atoms: S_1  and  N_11
REMARK    2  A    between atoms: S_1  and  C_25
REMARK    3  A    between atoms: O_4  and  C_24
REMARK    4  A    between atoms: O_8  and  C_30
REMARK    5  A    between atoms: O_8  and  C_31
REMARK    6  A    between atoms: N_11  and  C_22
REMARK    7  A    between atoms: C_21  and  C_24
REMARK                            x       y       z     vdW  Elec       q    Type
REMARK                         _______ _______ _______ _____ _____    ______ ____
ROOT
ATOM      2  O   UNL     1      -3.559   0.301  22.295  0.00  0.00    -0.266 OA
ATOM      3  O   UNL     1      -1.131   2.682  26.739  0.00  0.00    -0.263 OA
ATOM      9  N   UNL     1      -4.270   1.827  23.926  0.00  0.00    -0.310 N 
ATOM     10  N   UNL     1      -2.608   4.051  25.553  0.00  0.00    -0.291 N 
ATOM     12  C   UNL     1      -4.155   4.362  23.609  0.00  0.00    +0.027 C 
ATOM     13  C   UNL     1      -5.016   3.435  25.717  0.00  0.00    +0.054 C 
ATOM     14  C   UNL     1      -5.331   4.400  24.576  0.00  0.00    +0.018 C 
ATOM     15  C   UNL     1      -4.049   2.954  23.012  0.00  0.00    +0.130 C 
ATOM     16  C   UNL     1      -2.852   4.789  24.312  0.00  0.00    +0.113 C 
ATOM     17  C   UNL     1      -3.754   3.915  26.455  0.00  0.00    +0.118 C 
ATOM     18  C   UNL     1      -4.808   2.022  25.204  0.00  0.00    +0.027 A 
ATOM     19  C   UNL     1      -5.114   0.968  25.983  0.00  0.00    +0.024 A 
ATOM     20  C   UNL     1      -4.015   0.538  23.414  0.00  0.00    +0.274 A 
ATOM     21  C   UNL     1      -1.356   3.605  25.966  0.00  0.00    +0.324 C 
ATOM     22  C   UNL     1      -4.350  -0.583  24.328  0.00  0.00    +0.112 A 
ATOM     23  C   UNL     1      -4.879  -0.378  25.535  0.00  0.00    +0.031 A 
ENDROOT
BRANCH  21  24
ATOM      5  O   UNL     1      -0.055   5.253  24.866  0.00  0.00    -0.240 OA
ATOM     24  C   UNL     1      -0.084   4.225  25.513  0.00  0.00    +0.392 C 
BRANCH  24   4
ATOM      4  O   UNL     1       0.946   3.480  25.935  0.00  0.00    -0.474 OA
ATOM     33  H   UNL     1       1.478   3.126  25.192  0.00  0.00    +0.296 HD
ENDBRANCH  24   4
ENDBRANCH  21  24
BRANCH  22  11
ATOM     11  N   UNL     1      -4.131  -1.914  23.929  0.00  0.00    -0.211 N 
ATOM     32  H   UNL     1      -4.995  -2.472  23.907  0.00  0.00    +0.174 HD
BRANCH  11   1
ATOM      1  S   UNL     1      -2.796  -2.708  24.601  0.00  0.00    +0.073 S 
ATOM      6  O   UNL     1      -3.001  -2.889  26.026  0.00  0.00    -0.150 OA
ATOM      7  O   UNL     1      -2.428  -3.837  23.767  0.00  0.00    -0.150 OA
BRANCH   1  25
ATOM     25  C   UNL     1      -1.544  -1.474  24.402  0.00  0.00    +0.109 A 
ATOM     26  C   UNL     1      -1.339  -0.552  25.412  0.00  0.00    +0.032 A 
ATOM     27  C   UNL     1      -0.796  -1.455  23.238  0.00  0.00    +0.032 A 
ATOM     28  C   UNL     1      -0.353   0.423  25.252  0.00  0.00    +0.047 A 
ATOM     29  C   UNL     1       0.190  -0.481  23.079  0.00  0.00    +0.047 A 
ATOM     30  C   UNL     1       0.411   0.458  24.086  0.00  0.00    +0.120 A 
BRANCH  30   8
ATOM      8  O   UNL     1       1.374   1.408  23.932  0.00  0.00    -0.495 OA
ATOM     31  C   UNL     1       2.534   1.042  23.189  0.00  0.00    +0.277 C 
ENDBRANCH  30   8
ENDBRANCH   1  25
ENDBRANCH  11   1
ENDBRANCH  22  11
TORSDOF 6
ENDMDL
MODEL 3
REMARK VINA RESULT:       4.3      2.185      5.443
REMARK  Name = 11879846
REMARK  7 active torsions:
REMARK  status: ('A' for Active; 'I' for Inactive)
REMARK    1  A    between atoms: S_1  and  N_11
REMARK    2  A    between atoms: S_1  and  C_25
REMARK    3  A    between atoms: O_4  and  C_24
REMARK    4  A    between atoms: O_8  and  C_30
REMARK    5  A    between atoms: O_8  and  C_31
REMARK    6  A    between atoms: N_11  and  C_22
REMARK    7  A    between atoms: C_21  and  C_24
REMARK                            x       y       z     vdW  Elec       q    Type
REMARK                         _______ _______ _______ _____ _____    ______ ____
ROOT
ATOM      2  O   UNL     1      -4.064   3.097  22.877  0.00  0.00    -0.266 OA
ATOM      3  O   UNL     1      -1.047  -0.149  26.296  0.00  0.00    -0.263 OA
ATOM      9  N   UNL     1      -2.256   3.475  24.319  0.00  0.00    -0.310 N 
ATOM     10  N   UNL     1       0.152   1.524  25.187  0.00  0.00    -0.291 N 
ATOM     12  C   UNL     1       0.182   3.414  23.546  0.00  0.00    +0.027 C 
ATOM     13  C   UNL     1      -0.336   3.857  25.907  0.00  0.00    +0.054 C 
ATOM     14  C   UNL     1       0.429   4.382  24.695  0.00  0.00    +0.018 C 
ATOM     15  C   UNL     1      -1.311   3.431  23.196  0.00  0.00    +0.130 C 
ATOM     16  C   UNL     1       0.674   1.999  23.904  0.00  0.00    +0.113 C 
ATOM     17  C   UNL     1       0.216   2.476  26.299  0.00  0.00    +0.118 C 
ATOM     18  C   UNL     1      -1.824   3.757  25.621  0.00  0.00    +0.027 A 
ATOM     19  C   UNL     1      -2.716   3.912  26.617  0.00  0.00    +0.024 A 
ATOM     20  C   UNL     1      -3.622   3.328  24.003  0.00  0.00    +0.274 A 
ATOM     21  C   UNL     1      -0.263   0.218  25.428  0.00  0.00    +0.324 C 
ATOM     22  C   UNL     1      -4.556   3.486  25.146  0.00  0.00    +0.112 A 
ATOM     23  C   UNL     1      -4.127   3.772  26.376  0.00  0.00    +0.031 A 
ENDROOT
BRANCH  21  24
ATOM      5  O   UNL     1       0.491  -0.866  23.460  0.00  0.00    -0.240 OA
ATOM     24  C   UNL     1       0.222  -0.946  24.642  0.00  0.00    +0.392 C 
BRANCH  24   4
ATOM      4  O   UNL     1       0.302  -2.018  25.441  0.00  0.00    -0.474 OA
ATOM     33  H   UNL     1      -0.538  -2.523  25.471  0.00  0.00    +0.296 HD
ENDBRANCH  24   4
ENDBRANCH  21  24
BRANCH  22  11
ATOM     11  N   UNL     1      -5.942   3.352  24.953  0.00  0.00    -0.211 N 
ATOM     32  H   UNL     1      -6.461   4.213  25.173  0.00  0.00    +0.174 HD
BRANCH  11   1
ATOM      1  S   UNL     1      -6.664   1.930  25.521  0.00  0.00    +0.073 S 
ATOM      6  O   UNL     1      -6.780   1.984  26.966  0.00  0.00    -0.150 OA
ATOM      7  O   UNL     1      -7.822   1.611  24.706  0.00  0.00    -0.150 OA
BRANCH   1  25
ATOM     25  C   UNL     1      -5.407   0.747  25.136  0.00  0.00    +0.109 A 
ATOM     26  C   UNL     1      -5.150   0.440  23.812  0.00  0.00    +0.032 A 
ATOM     27  C   UNL     1      -4.705   0.149  26.168  0.00  0.00    +0.032 A 
ATOM     28  C   UNL     1      -4.160  -0.495  23.510  0.00  0.00    +0.047 A 
ATOM     29  C   UNL     1      -3.714  -0.785  25.866  0.00  0.00    +0.047 A 
ATOM     30  C   UNL     1      -3.442  -1.107  24.536  0.00  0.00    +0.120 A 
BRANCH  30   8
ATOM      8  O   UNL     1      -2.475  -2.019  24.241  0.00  0.00    -0.495 OA
ATOM     31  C   UNL     1      -2.845  -3.395  24.286  0.00  0.00    +0.277 C 
ENDBRANCH  30   8
ENDBRANCH   1  25
ENDBRANCH  11   1
ENDBRANCH  22  11
TORSDOF 6
ENDMDL
MODEL 4
REMARK VINA RESULT:       5.3      1.801      2.312
REMARK  Name = 11879846
REMARK  7 active torsions:
REMARK  status: ('A' for Active; 'I' for Inactive)
REMARK    1  A    between atoms: S_1  and  N_11
REMARK    2  A    between atoms: S_1  and  C_25
REMARK    3  A    between atoms: O_4  and  C_24
REMARK    4  A    between atoms: O_8  and  C_30
REMARK    5  A    between atoms: O_8  and  C_31
REMARK    6  A    between atoms: N_11  and  C_22
REMARK    7  A    between atoms: C_21  and  C_24
REMARK                            x       y       z     vdW  Elec       q    Type
REMARK                         _______ _______ _______ _____ _____    ______ ____
ROOT
ATOM      2  O   UNL     1      -0.204   1.339  26.605  0.00  0.00    -0.266 OA
ATOM      3  O   UNL     1      -5.435   1.114  24.629  0.00  0.00    -0.263 OA
ATOM      9  N   UNL     1      -1.422   2.602  25.052  0.00  0.00    -0.310 N 
ATOM     10  N   UNL     1      -4.569   3.265  24.924  0.00  0.00    -0.291 N 
ATOM     12  C   UNL     1      -2.687   4.737  25.673  0.00  0.00    +0.027 C 
ATOM     13  C   UNL     1      -2.746   3.916  23.356  0.00  0.00    +0.054 C 
ATOM     14  C   UNL     1      -2.449   5.138  24.223  0.00  0.00    +0.018 C 
ATOM     15  C   UNL     1      -1.684   3.642  26.055  0.00  0.00    +0.130 C 
ATOM     16  C   UNL     1      -4.144   4.284  25.885  0.00  0.00    +0.113 C 
ATOM     17  C   UNL     1      -4.223   3.520  23.523  0.00  0.00    +0.118 C 
ATOM     18  C   UNL     1      -1.853   2.746  23.726  0.00  0.00    +0.027 A 
ATOM     19  C   UNL     1      -1.501   1.842  22.793  0.00  0.00    +0.024 A 
ATOM     20  C   UNL     1      -0.626   1.512  25.462  0.00  0.00    +0.274 A 
ATOM     21  C   UNL     1      -5.370   2.174  25.242  0.00  0.00    +0.324 C 
ATOM     22  C   UNL     1      -0.292   0.537  24.394  0.00  0.00    +0.112 A 
ATOM     23  C   UNL     1      -0.696   0.700  23.134  0.00  0.00    +0.031 A 
ENDROOT
BRANCH  21  24
ATOM      5  O   UNL     1      -6.553   1.142  27.018  0.00  0.00    -0.240 OA
ATOM     24  C   UNL     1      -6.296   2.158  26.403  0.00  0.00    +0.392 C 
BRANCH  24   4
ATOM      4  O   UNL     1      -6.751   3.399  26.623  0.00  0.00    -0.474 OA
ATOM     33  H   UNL     1      -6.963   3.555  27.568  0.00  0.00    +0.296 HD
ENDBRANCH  24   4
ENDBRANCH  21  24
BRANCH  22  11
ATOM     11  N   UNL     1       0.489  -0.596  24.688  0.00  0.00    -0.211 N 
ATOM     32  H   UNL     1       0.920  -1.011  23.851  0.00  0.00    +0.174 HD
BRANCH  11   1
ATOM      1  S   UNL     1      -0.162  -1.718  25.776  0.00  0.00    +0.073 S 
ATOM      6  O   UNL     1       0.564  -2.970  25.680  0.00  0.00    -0.150 OA
ATOM      7  O   UNL     1      -0.362  -1.086  27.067  0.00  0.00    -0.150 OA
BRANCH   1  25
ATOM     25  C   UNL     1      -1.759  -1.979  25.063  0.00  0.00    +0.109 A 
ATOM     26  C   UNL     1      -1.921  -2.973  24.114  0.00  0.00    +0.032 A 
ATOM     27  C   UNL     1      -2.816  -1.183  25.467  0.00  0.00    +0.032 A 
ATOM     28  C   UNL     1      -3.180  -3.177  23.550  0.00  0.00    +0.047 A 
ATOM     29  C   UNL     1      -4.076  -1.388  24.904  0.00  0.00    +0.047 A 
ATOM     30  C   UNL     1      -4.258  -2.384  23.945  0.00  0.00    +0.120 A 
BRANCH  30   8
ATOM      8  O   UNL     1      -5.487  -2.585  23.395  0.00  0.00    -0.495 OA
ATOM     31  C   UNL     1      -5.722  -3.846  22.774  0.00  0.00    +0.277 C 
ENDBRANCH  30   8
ENDBRANCH   1  25
ENDBRANCH  11   1
ENDBRANCH  22  11
TORSDOF 6
ENDMDL
MODEL 5
REMARK VINA RESULT:       5.8      2.142      3.622
REMARK  Name = 11879846
REMARK  7 active torsions:
REMARK  status: ('A' for Active; 'I' for Inactive)
REMARK    1  A    between atoms: S_1  and  N_11
REMARK    2  A    between atoms: S_1  and  C_25
REMARK    3  A    between atoms: O_4  and  C_24
REMARK    4  A    between atoms: O_8  and  C_30
REMARK    5  A    between atoms: O_8  and  C_31
REMARK    6  A    between atoms: N_11  and  C_22
REMARK    7  A    between atoms: C_21  and  C_24
REMARK                            x       y       z     vdW  Elec       q    Type
REMARK                         _______ _______ _______ _____ _____    ______ ____
ROOT
ATOM      2  O   UNL     1      -0.906  -0.379  27.036  0.00  0.00    -0.266 OA
ATOM      3  O   UNL     1      -4.248   2.663  23.735  0.00  0.00    -0.263 OA
ATOM      9  N   UNL     1      -0.539   1.266  25.408  0.00  0.00    -0.310 N 
ATOM     10  N   UNL     1      -2.359   3.777  24.545  0.00  0.00    -0.291 N 
ATOM     12  C   UNL     1      -0.296   3.751  25.964  0.00  0.00    +0.027 C 
ATOM     13  C   UNL     1      -0.177   3.009  23.623  0.00  0.00    +0.054 C 
ATOM     14  C   UNL     1       0.550   3.812  24.699  0.00  0.00    +0.018 C 
ATOM     15  C   UNL     1      -0.370   2.296  26.441  0.00  0.00    +0.130 C 
ATOM     16  C   UNL     1      -1.694   4.349  25.718  0.00  0.00    +0.113 C 
ATOM     17  C   UNL     1      -1.540   3.660  23.336  0.00  0.00    +0.118 C 
ATOM     18  C   UNL     1      -0.374   1.565  24.049  0.00  0.00    +0.027 A 
ATOM     19  C   UNL     1      -0.414   0.587  23.125  0.00  0.00    +0.024 A 
ATOM     20  C   UNL     1      -0.768  -0.051  25.857  0.00  0.00    +0.274 A 
ATOM     21  C   UNL     1      -3.716   3.474  24.485  0.00  0.00    +0.324 C 
ATOM     22  C   UNL     1      -0.827  -1.082  24.791  0.00  0.00    +0.112 A 
ATOM     23  C   UNL     1      -0.649  -0.780  23.504  0.00  0.00    +0.031 A 
ENDROOT
BRANCH  21  24
ATOM      5  O   UNL     1      -5.615   4.831  24.893  0.00  0.00    -0.240 OA
ATOM     24  C   UNL     1      -4.733   4.129  25.346  0.00  0.00    +0.392 C 
BRANCH  24   4
ATOM      4  O   UNL     1      -4.502   3.808  26.626  0.00  0.00    -0.474 OA
ATOM     33  H   UNL     1      -4.501   2.839  26.772  0.00  0.00    +0.296 HD
ENDBRANCH  24   4
ENDBRANCH  21  24
BRANCH  22  11
ATOM     11  N   UNL     1      -1.059  -2.429  25.119  0.00  0.00    -0.211 N 
ATOM     32  H   UNL     1      -0.250  -3.033  24.922  0.00  0.00    +0.174 HD
BRANCH  11   1
ATOM      1  S   UNL     1      -2.554  -3.085  24.669  0.00  0.00    +0.073 S 
ATOM      6  O   UNL     1      -2.551  -3.375  23.248  0.00  0.00    -0.150 OA
ATOM      7  O   UNL     1      -2.947  -4.105  25.623  0.00  0.00    -0.150 OA
BRANCH   1  25
ATOM     25  C   UNL     1      -3.613  -1.691  24.920  0.00  0.00    +0.109 A 
ATOM     26  C   UNL     1      -3.683  -1.113  26.175  0.00  0.00    +0.032 A 
ATOM     27  C   UNL     1      -4.352  -1.205  23.856  0.00  0.00    +0.032 A 
ATOM     28  C   UNL     1      -4.521  -0.015  26.373  0.00  0.00    +0.047 A 
ATOM     29  C   UNL     1      -5.189  -0.106  24.053  0.00  0.00    +0.047 A 
ATOM     30  C   UNL     1      -5.273   0.488  25.312  0.00  0.00    +0.120 A 
BRANCH  30   8
ATOM      8  O   UNL     1      -6.089   1.560  25.506  0.00  0.00    -0.495 OA
ATOM     31  C   UNL     1      -6.735   1.664  26.772  0.00  0.00    +0.277 C 
ENDBRANCH  30   8
ENDBRANCH   1  25
ENDBRANCH  11   1
ENDBRANCH  22  11
TORSDOF 6
ENDMDL
MODEL 6
REMARK VINA RESULT:       6.3      2.341      5.352
REMARK  Name = 11879846
REMARK  7 active torsions:
REMARK  status: ('A' for Active; 'I' for Inactive)
REMARK    1  A    between atoms: S_1  and  N_11
REMARK    2  A    between atoms: S_1  and  C_25
REMARK    3  A    between atoms: O_4  and  C_24
REMARK    4  A    between atoms: O_8  and  C_30
REMARK    5  A    between atoms: O_8  and  C_31
REMARK    6  A    between atoms: N_11  and  C_22
REMARK    7  A    between atoms: C_21  and  C_24
REMARK                            x       y       z     vdW  Elec       q    Type
REMARK                         _______ _______ _______ _____ _____    ______ ____
ROOT
ATOM      2  O   UNL     1      -0.231   1.817  22.454  0.00  0.00    -0.266 OA
ATOM      3  O   UNL     1      -4.451  -0.327  25.438  0.00  0.00    -0.263 OA
ATOM      9  N   UNL     1      -0.363   0.492  24.382  0.00  0.00    -0.310 N 
ATOM     10  N   UNL     1      -2.562  -1.691  25.256  0.00  0.00    -0.291 N 
ATOM     12  C   UNL     1      -0.266  -2.064  24.329  0.00  0.00    +0.027 C 
ATOM     13  C   UNL     1      -0.540  -0.899  26.477  0.00  0.00    +0.054 C 
ATOM     14  C   UNL     1       0.302  -1.936  25.736  0.00  0.00    +0.018 C 
ATOM     15  C   UNL     1      -0.097  -0.724  23.603  0.00  0.00    +0.130 C 
ATOM     16  C   UNL     1      -1.738  -2.515  24.369  0.00  0.00    +0.113 C 
ATOM     17  C   UNL     1      -1.992  -1.398  26.573  0.00  0.00    +0.118 C 
ATOM     18  C   UNL     1      -0.502   0.446  25.775  0.00  0.00    +0.027 A 
ATOM     19  C   UNL     1      -0.626   1.583  26.486  0.00  0.00    +0.024 A 
ATOM     20  C   UNL     1      -0.364   1.711  23.673  0.00  0.00    +0.274 A 
ATOM     21  C   UNL     1      -3.865  -1.297  24.971  0.00  0.00    +0.324 C 
ATOM     22  C   UNL     1      -0.530   2.927  24.507  0.00  0.00    +0.112 A 
ATOM     23  C   UNL     1      -0.642   2.865  25.835  0.00  0.00    +0.031 A 
ENDROOT
BRANCH  21  24
ATOM      5  O   UNL     1      -4.524  -3.182  23.694  0.00  0.00    -0.240 OA
ATOM     24  C   UNL     1      -4.752  -2.039  24.039  0.00  0.00    +0.392 C 
BRANCH  24   4
ATOM      4  O   UNL     1      -5.779  -1.255  23.686  0.00  0.00    -0.474 OA
ATOM     33  H   UNL     1      -6.535  -1.770  23.331  0.00  0.00    +0.296 HD
ENDBRANCH  24   4
ENDBRANCH  21  24
BRANCH  22  11
ATOM     11  N   UNL     1      -0.555   4.200  23.909  0.00  0.00    -0.211 N 
ATOM     32  H   UNL     1       0.386   4.588  23.757  0.00  0.00    +0.174 HD
BRANCH  11   1
ATOM      1  S   UNL     1      -1.686   5.308  24.506  0.00  0.00    +0.073 S 
ATOM      6  O   UNL     1      -1.281   5.759  25.823  0.00  0.00    -0.150 OA
ATOM      7  O   UNL     1      -2.017   6.272  23.473  0.00  0.00    -0.150 OA
BRANCH   1  25
ATOM     25  C   UNL     1      -3.094   4.258  24.718  0.00  0.00    +0.109 A 
ATOM     26  C   UNL     1      -3.726   4.217  25.947  0.00  0.00    +0.032 A 
ATOM     27  C   UNL     1      -3.535   3.497  23.650  0.00  0.00    +0.032 A 
ATOM     28  C   UNL     1      -4.835   3.387  26.115  0.00  0.00    +0.047 A 
ATOM     29  C   UNL     1      -4.644   2.668  23.816  0.00  0.00    +0.047 A 
ATOM     30  C   UNL     1      -5.294   2.613  25.049  0.00  0.00    +0.120 A 
BRANCH  30   8
ATOM      8  O   UNL     1      -6.377   1.804  25.213  0.00  0.00    -0.495 OA
ATOM     31  C   UNL     1      -6.798   1.546  26.550  0.00  0.00    +0.277 C 
ENDBRANCH  30   8
ENDBRANCH   1  25
ENDBRANCH  11   1
ENDBRANCH  22  11
TORSDOF 6
ENDMDL
MODEL 7
REMARK VINA RESULT:       7.3      2.521      5.529
REMARK  Name = 11879846
REMARK  7 active torsions:
REMARK  status: ('A' for Active; 'I' for Inactive)
REMARK    1  A    between atoms: S_1  and  N_11
REMARK    2  A    between atoms: S_1  and  C_25
REMARK    3  A    between atoms: O_4  and  C_24
REMARK    4  A    between atoms: O_8  and  C_30
REMARK    5  A    between atoms: O_8  and  C_31
REMARK    6  A    between atoms: N_11  and  C_22
REMARK    7  A    between atoms: C_21  and  C_24
REMARK                            x       y       z     vdW  Elec       q    Type
REMARK                         _______ _______ _______ _____ _____    ______ ____
ROOT
ATOM      2  O   UNL     1      -3.397   2.896  22.718  0.00  0.00    -0.266 OA
ATOM      3  O   UNL     1      -1.696  -0.876  26.486  0.00  0.00    -0.263 OA
ATOM      9  N   UNL     1      -1.303   2.216  23.522  0.00  0.00    -0.310 N 
ATOM     10  N   UNL     1      -0.326  -0.652  24.606  0.00  0.00    -0.291 N 
ATOM     12  C   UNL     1       0.112   0.416  22.384  0.00  0.00    +0.027 C 
ATOM     13  C   UNL     1       0.931   1.492  24.437  0.00  0.00    +0.054 C 
ATOM     14  C   UNL     1       1.297   1.153  22.993  0.00  0.00    +0.018 C 
ATOM     15  C   UNL     1      -1.095   1.361  22.348  0.00  0.00    +0.130 C 
ATOM     16  C   UNL     1      -0.191  -0.877  23.165  0.00  0.00    +0.113 C 
ATOM     17  C   UNL     1       0.703   0.189  25.223  0.00  0.00    +0.118 C 
ATOM     18  C   UNL     1      -0.313   2.359  24.503  0.00  0.00    +0.027 A 
ATOM     19  C   UNL     1      -0.472   3.238  25.509  0.00  0.00    +0.024 A 
ATOM     20  C   UNL     1      -2.498   2.964  23.556  0.00  0.00    +0.274 A 
ATOM     21  C   UNL     1      -1.268  -1.282  25.412  0.00  0.00    +0.324 C 
ATOM     22  C   UNL     1      -2.627   3.898  24.703  0.00  0.00    +0.112 A 
ATOM     23  C   UNL     1      -1.665   4.034  25.617  0.00  0.00    +0.031 A 
ENDROOT
BRANCH  21  24
ATOM      5  O   UNL     1      -1.458  -3.300  24.183  0.00  0.00    -0.240 OA
ATOM     24  C   UNL     1      -1.891  -2.586  25.065  0.00  0.00    +0.392 C 
BRANCH  24   4
ATOM      4  O   UNL     1      -2.943  -2.800  25.866  0.00  0.00    -0.474 OA
ATOM     33  H   UNL     1      -3.774  -2.433  25.495  0.00  0.00    +0.296 HD
ENDBRANCH  24   4
ENDBRANCH  21  24
BRANCH  22  11
ATOM     11  N   UNL     1      -3.780   4.691  24.847  0.00  0.00    -0.211 N 
ATOM     32  H   UNL     1      -3.566   5.692  24.950  0.00  0.00    +0.174 HD
BRANCH  11   1
ATOM      1  S   UNL     1      -4.982   4.117  25.891  0.00  0.00    +0.073 S 
ATOM      6  O   UNL     1      -4.498   4.145  27.258  0.00  0.00    -0.150 OA
ATOM      7  O   UNL     1      -6.254   4.729  25.553  0.00  0.00    -0.150 OA
BRANCH   1  25
ATOM     25  C   UNL     1      -5.064   2.421  25.396  0.00  0.00    +0.109 A 
ATOM     26  C   UNL     1      -6.192   1.963  24.738  0.00  0.00    +0.032 A 
ATOM     27  C   UNL     1      -4.000   1.584  25.679  0.00  0.00    +0.032 A 
ATOM     28  C   UNL     1      -6.257   0.624  24.351  0.00  0.00    +0.047 A 
ATOM     29  C   UNL     1      -4.064   0.245  25.290  0.00  0.00    +0.047 A 
ATOM     30  C   UNL     1      -5.193  -0.234  24.627  0.00  0.00    +0.120 A 
BRANCH  30   8
ATOM      8  O   UNL     1      -5.257  -1.540  24.247  0.00  0.00    -0.495 OA
ATOM     31  C   UNL     1      -4.341  -1.969  23.242  0.00  0.00    +0.277 C 
ENDBRANCH  30   8
ENDBRANCH   1  25
ENDBRANCH  11   1
ENDBRANCH  22  11
TORSDOF 6
ENDMDL
MODEL 8
REMARK VINA RESULT:       7.4      2.542      5.925
REMARK  Name = 11879846
REMARK  7 active torsions:
REMARK  status: ('A' for Active; 'I' for Inactive)
REMARK    1  A    between atoms: S_1  and  N_11
REMARK    2  A    between atoms: S_1  and  C_25
REMARK    3  A    between atoms: O_4  and  C_24
REMARK    4  A    between atoms: O_8  and  C_30
REMARK    5  A    between atoms: O_8  and  C_31
REMARK    6  A    between atoms: N_11  and  C_22
REMARK    7  A    between atoms: C_21  and  C_24
REMARK                            x       y       z     vdW  Elec       q    Type
REMARK                         _______ _______ _______ _____ _____    ______ ____
ROOT
ATOM      2  O   UNL     1      -4.467   2.402  26.237  0.00  0.00    -0.266 OA
ATOM      3  O   UNL     1       0.013  -0.487  24.533  0.00  0.00    -0.263 OA
ATOM      9  N   UNL     1      -4.112   0.729  24.635  0.00  0.00    -0.310 N 
ATOM     10  N   UNL     1      -1.990  -1.691  24.594  0.00  0.00    -0.291 N 
ATOM     12  C   UNL     1      -4.436  -1.761  25.121  0.00  0.00    +0.027 C 
ATOM     13  C   UNL     1      -3.689  -1.042  22.893  0.00  0.00    +0.054 C 
ATOM     14  C   UNL     1      -4.734  -1.874  23.632  0.00  0.00    +0.018 C 
ATOM     15  C   UNL     1      -4.615  -0.301  25.553  0.00  0.00    +0.130 C 
ATOM     16  C   UNL     1      -3.025  -2.288  25.441  0.00  0.00    +0.113 C 
ATOM     17  C   UNL     1      -2.291  -1.625  23.162  0.00  0.00    +0.118 C 
ATOM     18  C   UNL     1      -3.734   0.412  23.324  0.00  0.00    +0.027 A 
ATOM     19  C   UNL     1      -3.389   1.385  22.460  0.00  0.00    +0.024 A 
ATOM     20  C   UNL     1      -4.130   2.059  25.104  0.00  0.00    +0.274 A 
ATOM     21  C   UNL     1      -0.727  -1.318  25.045  0.00  0.00    +0.324 C 
ATOM     22  C   UNL     1      -3.717   3.084  24.113  0.00  0.00    +0.112 A 
ATOM     23  C   UNL     1      -3.378   2.765  22.864  0.00  0.00    +0.031 A 
ENDROOT
BRANCH  21  24
ATOM      5  O   UNL     1       0.653  -2.877  26.178  0.00  0.00    -0.240 OA
ATOM     24  C   UNL     1      -0.086  -1.915  26.245  0.00  0.00    +0.392 C 
BRANCH  24   4
ATOM      4  O   UNL     1      -0.455  -1.225  27.333  0.00  0.00    -0.474 OA
ATOM     33  H   UNL     1      -1.220  -1.633  27.790  0.00  0.00    +0.296 HD
ENDBRANCH  24   4
ENDBRANCH  21  24
BRANCH  22  11
ATOM     11  N   UNL     1      -3.688   4.444  24.470  0.00  0.00    -0.211 N 
ATOM     32  H   UNL     1      -3.825   5.071  23.666  0.00  0.00    +0.174 HD
BRANCH  11   1
ATOM      1  S   UNL     1      -2.474   4.932  25.544  0.00  0.00    +0.073 S 
ATOM      6  O   UNL     1      -2.081   6.297  25.250  0.00  0.00    -0.150 OA
ATOM      7  O   UNL     1      -2.836   4.552  26.897  0.00  0.00    -0.150 OA
BRANCH   1  25
ATOM     25  C   UNL     1      -1.145   3.881  25.038  0.00  0.00    +0.109 A 
ATOM     26  C   UNL     1      -0.556   4.084  23.803  0.00  0.00    +0.032 A 
ATOM     27  C   UNL     1      -0.721   2.873  25.886  0.00  0.00    +0.032 A 
ATOM     28  C   UNL     1       0.491   3.252  23.403  0.00  0.00    +0.047 A 
ATOM     29  C   UNL     1       0.326   2.042  25.488  0.00  0.00    +0.047 A 
ATOM     30  C   UNL     1       0.931   2.232  24.245  0.00  0.00    +0.120 A 
BRANCH  30   8
ATOM      8  O   UNL     1       1.953   1.422  23.855  0.00  0.00    -0.495 OA
ATOM     31  C   UNL     1       1.695   0.523  22.779  0.00  0.00    +0.277 C 
ENDBRANCH  30   8
ENDBRANCH   1  25
ENDBRANCH  11   1
ENDBRANCH  22  11
TORSDOF 6
ENDMDL
MODEL 9
REMARK VINA RESULT:       7.5      2.493      6.392
REMARK  Name = 11879846
REMARK  7 active torsions:
REMARK  status: ('A' for Active; 'I' for Inactive)
REMARK    1  A    between atoms: S_1  and  N_11
REMARK    2  A    between atoms: S_1  and  C_25
REMARK    3  A    between atoms: O_4  and  C_24
REMARK    4  A    between atoms: O_8  and  C_30
REMARK    5  A    between atoms: O_8  and  C_31
REMARK    6  A    between atoms: N_11  and  C_22
REMARK    7  A    between atoms: C_21  and  C_24
REMARK                            x       y       z     vdW  Elec       q    Type
REMARK                         _______ _______ _______ _____ _____    ______ ____
ROOT
ATOM      2  O   UNL     1      -0.286   2.450  26.693  0.00  0.00    -0.266 OA
ATOM      3  O   UNL     1       3.241   1.002  22.598  0.00  0.00    -0.263 OA
ATOM      9  N   UNL     1      -0.446   1.063  24.811  0.00  0.00    -0.310 N 
ATOM     10  N   UNL     1       1.807  -0.694  23.328  0.00  0.00    -0.291 N 
ATOM     12  C   UNL     1       0.004  -1.454  24.890  0.00  0.00    +0.027 C 
ATOM     13  C   UNL     1      -0.598  -0.391  22.757  0.00  0.00    +0.054 C 
ATOM     14  C   UNL     1      -0.959  -1.526  23.712  0.00  0.00    +0.018 C 
ATOM     15  C   UNL     1      -0.220  -0.132  25.634  0.00  0.00    +0.130 C 
ATOM     16  C   UNL     1       1.462  -1.609  24.418  0.00  0.00    +0.113 C 
ATOM     17  C   UNL     1       0.835  -0.599  22.237  0.00  0.00    +0.118 C 
ATOM     18  C   UNL     1      -0.708   0.961  23.439  0.00  0.00    +0.027 A 
ATOM     19  C   UNL     1      -1.031   2.055  22.724  0.00  0.00    +0.024 A 
ATOM     20  C   UNL     1      -0.491   2.299  25.489  0.00  0.00    +0.274 A 
ATOM     21  C   UNL     1       3.028  -0.035  23.216  0.00  0.00    +0.324 C 
ATOM     22  C   UNL     1      -0.827   3.471  24.643  0.00  0.00    +0.112 A 
ATOM     23  C   UNL     1      -1.092   3.352  23.341  0.00  0.00    +0.031 A 
ENDROOT
BRANCH  21  24
ATOM      5  O   UNL     1       4.582  -1.707  23.853  0.00  0.00    -0.240 OA
ATOM     24  C   UNL     1       4.278  -0.531  23.846  0.00  0.00    +0.392 C 
BRANCH  24   4
ATOM      4  O   UNL     1       4.955   0.504  24.360  0.00  0.00    -0.474 OA
ATOM     33  H   UNL     1       5.008   0.465  25.339  0.00  0.00    +0.296 HD
ENDBRANCH  24   4
ENDBRANCH  21  24
BRANCH  22  11
ATOM     11  N   UNL     1      -0.893   4.757  25.207  0.00  0.00    -0.211 N 
ATOM     32  H   UNL     1      -0.377   4.831  26.094  0.00  0.00    +0.174 HD
BRANCH  11   1
ATOM      1  S   UNL     1      -2.404   5.521  25.206  0.00  0.00    +0.073 S 
ATOM      6  O   UNL     1      -2.651   6.117  26.506  0.00  0.00    -0.150 OA
ATOM      7  O   UNL     1      -2.549   6.314  24.000  0.00  0.00    -0.150 OA
BRANCH   1  25
ATOM     25  C   UNL     1      -3.478   4.125  25.053  0.00  0.00    +0.109 A 
ATOM     26  C   UNL     1      -3.755   3.620  23.795  0.00  0.00    +0.032 A 
ATOM     27  C   UNL     1      -4.023   3.565  26.196  0.00  0.00    +0.032 A 
ATOM     28  C   UNL     1      -4.605   2.520  23.675  0.00  0.00    +0.047 A 
ATOM     29  C   UNL     1      -4.871   2.464  26.076  0.00  0.00    +0.047 A 
ATOM     30  C   UNL     1      -5.162   1.942  24.815  0.00  0.00    +0.120 A 
BRANCH  30   8
ATOM      8  O   UNL     1      -5.990   0.868  24.698  0.00  0.00    -0.495 OA
ATOM     31  C   UNL     1      -5.380  -0.398  24.459  0.00  0.00    +0.277 C 
ENDBRANCH  30   8
ENDBRANCH   1  25
ENDBRANCH  11   1
ENDBRANCH  22  11
TORSDOF 6
ENDMDL
MODEL 10
REMARK VINA RESULT:       7.6      2.288      6.553
REMARK  Name = 11879846
REMARK  7 active torsions:
REMARK  status: ('A' for Active; 'I' for Inactive)
REMARK    1  A    between atoms: S_1  and  N_11
REMARK    2  A    between atoms: S_1  and  C_25
REMARK    3  A    between atoms: O_4  and  C_24
REMARK    4  A    between atoms: O_8  and  C_30
REMARK    5  A    between atoms: O_8  and  C_31
REMARK    6  A    between atoms: N_11  and  C_22
REMARK    7  A    between atoms: C_21  and  C_24
REMARK                            x       y       z     vdW  Elec       q    Type
REMARK                         _______ _______ _______ _____ _____    ______ ____
ROOT
ATOM      2  O   UNL     1      -3.164   1.487  26.466  0.00  0.00    -0.266 OA
ATOM      3  O   UNL     1      -0.026   0.129  22.037  0.00  0.00    -0.263 OA
ATOM      9  N   UNL     1      -2.667  -0.522  25.369  0.00  0.00    -0.310 N 
ATOM     10  N   UNL     1      -0.013  -1.423  23.785  0.00  0.00    -0.291 N 
ATOM     12  C   UNL     1      -0.760  -2.070  26.085  0.00  0.00    +0.027 C 
ATOM     13  C   UNL     1      -2.144  -2.662  24.142  0.00  0.00    +0.054 C 
ATOM     14  C   UNL     1      -1.611  -3.176  25.477  0.00  0.00    +0.018 C 
ATOM     15  C   UNL     1      -1.656  -0.861  26.379  0.00  0.00    +0.130 C 
ATOM     16  C   UNL     1       0.414  -1.706  25.157  0.00  0.00    +0.113 C 
ATOM     17  C   UNL     1      -0.963  -2.372  23.200  0.00  0.00    +0.118 C 
ATOM     18  C   UNL     1      -2.977  -1.406  24.327  0.00  0.00    +0.027 A 
ATOM     19  C   UNL     1      -3.988  -1.134  23.480  0.00  0.00    +0.024 A 
ATOM     20  C   UNL     1      -3.378   0.680  25.563  0.00  0.00    +0.274 A 
ATOM     21  C   UNL     1       0.520  -0.411  22.992  0.00  0.00    +0.324 C 
ATOM     22  C   UNL     1      -4.464   0.936  24.583  0.00  0.00    +0.112 A 
ATOM     23  C   UNL     1      -4.757   0.074  23.609  0.00  0.00    +0.031 A 
ENDROOT
BRANCH  21  24
ATOM      5  O   UNL     1       2.888  -0.447  22.905  0.00  0.00    -0.240 OA
ATOM     24  C   UNL     1       1.876   0.156  23.203  0.00  0.00    +0.392 C 
BRANCH  24   4
ATOM      4  O   UNL     1       1.767   1.377  23.744  0.00  0.00    -0.474 OA
ATOM     33  H   UNL     1       2.640   1.792  23.905  0.00  0.00    +0.296 HD
ENDBRANCH  24   4
ENDBRANCH  21  24
BRANCH  22  11
ATOM     11  N   UNL     1      -5.237   2.108  24.672  0.00  0.00    -0.211 N 
ATOM     32  H   UNL     1      -6.223   1.955  24.425  0.00  0.00    +0.174 HD
BRANCH  11   1
ATOM      1  S   UNL     1      -4.562   3.524  24.034  0.00  0.00    +0.073 S 
ATOM      6  O   UNL     1      -4.481   3.419  22.590  0.00  0.00    -0.150 OA
ATOM      7  O   UNL     1      -5.185   4.681  24.649  0.00  0.00    -0.150 OA
BRANCH   1  25
ATOM     25  C   UNL     1      -2.913   3.415  24.664  0.00  0.00    +0.109 A 
ATOM     26  C   UNL     1      -2.628   3.950  25.908  0.00  0.00    +0.032 A 
ATOM     27  C   UNL     1      -1.939   2.798  23.900  0.00  0.00    +0.032 A 
ATOM     28  C   UNL     1      -1.327   3.866  26.403  0.00  0.00    +0.047 A 
ATOM     29  C   UNL     1      -0.637   2.712  24.395  0.00  0.00    +0.047 A 
ATOM     30  C   UNL     1      -0.332   3.247  25.647  0.00  0.00    +0.120 A 
BRANCH  30   8
ATOM      8  O   UNL     1       0.938   3.164  26.131  0.00  0.00    -0.495 OA
ATOM     31  C   UNL     1       1.095   2.672  27.460  0.00  0.00    +0.277 C 
ENDBRANCH  30   8
ENDBRANCH   1  25
ENDBRANCH  11   1
ENDBRANCH  22  11
TORSDOF 6
ENDMDL
