MODEL 1
REMARK VINA RESULT:      -4.2      0.000      0.000
REMARK  Name = 11912908
REMARK  5 active torsions:
REMARK  status: ('A' for Active; 'I' for Inactive)
REMARK    1  A    between atoms: N_4  and  C_10
REMARK    2  A    between atoms: N_4  and  C_15
REMARK    3  A    between atoms: N_5  and  C_11
REMARK    4  A    between atoms: C_14  and  C_15
REMARK    5  A    between atoms: C_22  and  C_25
REMARK                            x       y       z     vdW  Elec       q    Type
REMARK                         _______ _______ _______ _____ _____    ______ ____
ROOT
ATOM      2  O   UNL     1      -0.967  -0.978  26.209  0.00  0.00    -0.370 OA
ATOM      3  O   UNL     1      -2.556  -2.433  23.980  0.00  0.00    -0.370 OA
ATOM      8  C   UNL     1      -1.925  -1.143  24.042  0.00  0.00    +0.168 C 
ATOM      9  C   UNL     1      -2.129  -0.609  25.446  0.00  0.00    +0.171 C 
ATOM     10  C   UNL     1      -0.424  -1.285  23.913  0.00  0.00    +0.111 C 
ATOM     11  C   UNL     1      -3.341  -1.358  25.950  0.00  0.00    +0.130 C 
ATOM     12  C   UNL     1      -0.020  -1.619  25.341  0.00  0.00    +0.181 C 
ATOM     13  C   UNL     1      -3.241  -2.684  25.217  0.00  0.00    +0.185 C 
ENDROOT
BRANCH  11   5
ATOM      5  N   UNL     1      -4.549  -0.661  25.565  0.00  0.00    -0.306 N 
ATOM      6  N   UNL     1      -3.424   1.382  25.313  0.00  0.00    -0.214 NA
ATOM      7  N   UNL     1      -5.792   1.215  24.903  0.00  0.00    -0.223 NA
ATOM     21  C   UNL     1      -4.590   0.686  25.251  0.00  0.00    +0.216 A 
ATOM     22  C   UNL     1      -3.500   2.692  25.000  0.00  0.00    +0.083 A 
ATOM     23  C   UNL     1      -5.796   2.531  24.603  0.00  0.00    +0.116 A 
ATOM     24  C   UNL     1      -4.669   3.326  24.634  0.00  0.00    +0.049 A 
ATOM     30  H   UNL     1      -5.413  -1.182  25.465  0.00  0.00    +0.149 HD
BRANCH  22  25
ATOM      1  S   UNL     1      -0.841   2.559  25.566  0.00  0.00    -0.095 S 
ATOM     25  C   UNL     1      -2.251   3.403  25.076  0.00  0.00    +0.038 A 
ATOM     26  C   UNL     1      -1.983   4.730  24.803  0.00  0.00    +0.017 A 
ATOM     27  C   UNL     1      -0.610   5.054  24.999  0.00  0.00    +0.008 A 
ATOM     28  C   UNL     1       0.125   3.964  25.413  0.00  0.00    +0.046 A 
ENDBRANCH  22  25
ENDBRANCH  11   5
BRANCH  10   4
ATOM      4  N   UNL     1       0.179  -0.016  23.513  0.00  0.00    -0.309 NA
ATOM     29  H   UNL     1       0.517   0.479  24.340  0.00  0.00    +0.122 HD
BRANCH   4  15
ATOM     15  C   UNL     1       1.285  -0.236  22.593  0.00  0.00    +0.084 C 
BRANCH  15  14
ATOM     14  C   UNL     1       2.630  -0.061  23.293  0.00  0.00    +0.003 C 
ATOM     16  C   UNL     1       3.489   0.982  22.566  0.00  0.00    +0.005 C 
ATOM     17  C   UNL     1       3.368  -1.404  23.390  0.00  0.00    +0.005 C 
ATOM     18  C   UNL     1       4.861   1.136  23.217  0.00  0.00    +0.000 C 
ATOM     19  C   UNL     1       4.741  -1.247  24.040  0.00  0.00    +0.000 C 
ATOM     20  C   UNL     1       5.588  -0.201  23.320  0.00  0.00    +0.000 C 
ENDBRANCH  15  14
ENDBRANCH   4  15
ENDBRANCH  10   4
TORSDOF 5
ENDMDL
MODEL 2
REMARK VINA RESULT:      -0.3      2.058      4.146
REMARK  Name = 11912908
REMARK  5 active torsions:
REMARK  status: ('A' for Active; 'I' for Inactive)
REMARK    1  A    between atoms: N_4  and  C_10
REMARK    2  A    between atoms: N_4  and  C_15
REMARK    3  A    between atoms: N_5  and  C_11
REMARK    4  A    between atoms: C_14  and  C_15
REMARK    5  A    between atoms: C_22  and  C_25
REMARK                            x       y       z     vdW  Elec       q    Type
REMARK                         _______ _______ _______ _____ _____    ______ ____
ROOT
ATOM      2  O   UNL     1      -1.050   2.685  23.012  0.00  0.00    -0.370 OA
ATOM      3  O   UNL     1      -0.727   3.835  25.873  0.00  0.00    -0.370 OA
ATOM      8  C   UNL     1      -1.116   2.540  25.382  0.00  0.00    +0.168 C 
ATOM      9  C   UNL     1      -1.947   2.764  24.134  0.00  0.00    +0.171 C 
ATOM     10  C   UNL     1       0.097   1.780  24.890  0.00  0.00    +0.111 C 
ATOM     11  C   UNL     1      -2.465   4.175  24.287  0.00  0.00    +0.130 C 
ATOM     12  C   UNL     1       0.261   2.332  23.483  0.00  0.00    +0.181 C 
ATOM     13  C   UNL     1      -1.361   4.851  25.081  0.00  0.00    +0.185 C 
ENDROOT
BRANCH  11   5
ATOM      5  N   UNL     1      -3.698   4.170  25.045  0.00  0.00    -0.306 N 
ATOM      6  N   UNL     1      -3.877   1.833  24.950  0.00  0.00    -0.214 NA
ATOM      7  N   UNL     1      -5.537   3.156  26.090  0.00  0.00    -0.223 NA
ATOM     21  C   UNL     1      -4.392   3.019  25.371  0.00  0.00    +0.216 A 
ATOM     22  C   UNL     1      -4.579   0.730  25.287  0.00  0.00    +0.083 A 
ATOM     23  C   UNL     1      -6.188   2.013  26.392  0.00  0.00    +0.116 A 
ATOM     24  C   UNL     1      -5.752   0.761  26.013  0.00  0.00    +0.049 A 
ATOM     30  H   UNL     1      -4.061   5.044  25.408  0.00  0.00    +0.149 HD
BRANCH  22  25
ATOM      1  S   UNL     1      -2.645  -1.152  25.639  0.00  0.00    -0.095 S 
ATOM     25  C   UNL     1      -4.011  -0.509  24.826  0.00  0.00    +0.038 A 
ATOM     26  C   UNL     1      -4.408  -1.315  23.777  0.00  0.00    +0.017 A 
ATOM     27  C   UNL     1      -3.582  -2.467  23.641  0.00  0.00    +0.008 A 
ATOM     28  C   UNL     1      -2.584  -2.504  24.591  0.00  0.00    +0.046 A 
ENDBRANCH  22  25
ENDBRANCH  11   5
BRANCH  10   4
ATOM      4  N   UNL     1      -0.187   0.348  24.828  0.00  0.00    -0.309 NA
ATOM     29  H   UNL     1      -1.191   0.201  24.719  0.00  0.00    +0.122 HD
BRANCH   4  15
ATOM     15  C   UNL     1       0.520  -0.272  23.717  0.00  0.00    +0.084 C 
BRANCH  15  14
ATOM     14  C   UNL     1       2.027  -0.061  23.834  0.00  0.00    +0.003 C 
ATOM     16  C   UNL     1       2.533   0.873  22.726  0.00  0.00    +0.005 C 
ATOM     17  C   UNL     1       2.767  -1.406  23.794  0.00  0.00    +0.005 C 
ATOM     18  C   UNL     1       4.047   1.056  22.791  0.00  0.00    +0.000 C 
ATOM     19  C   UNL     1       4.281  -1.219  23.857  0.00  0.00    +0.000 C 
ATOM     20  C   UNL     1       4.778  -0.282  22.760  0.00  0.00    +0.000 C 
ENDBRANCH  15  14
ENDBRANCH   4  15
ENDBRANCH  10   4
TORSDOF 5
ENDMDL
