MODEL 1
REMARK VINA RESULT:      -4.6      0.000      0.000
REMARK  Name = 75536785
REMARK  7 active torsions:
REMARK  status: ('A' for Active; 'I' for Inactive)
REMARK    1  A    between atoms: O_2  and  C_8
REMARK    2  A    between atoms: N_4  and  C_7
REMARK    3  A    between atoms: N_4  and  C_12
REMARK    4  A    between atoms: N_4  and  C_13
REMARK    5  A    between atoms: N_5  and  C_11
REMARK    6  A    between atoms: C_9  and  C_11
REMARK    7  A    between atoms: C_14  and  C_15
REMARK                            x       y       z     vdW  Elec       q    Type
REMARK                         _______ _______ _______ _____ _____    ______ ____
ROOT
ATOM     11  C   UNL     1      -3.466  -2.096  25.570  0.00  0.00    +0.138 C 
ENDROOT
BRANCH  11   9
ATOM      1  O   UNL     1      -1.774  -2.633  23.929  0.00  0.00    -0.371 OA
ATOM      7  C   UNL     1      -0.081  -1.055  24.463  0.00  0.00    +0.113 C 
ATOM      8  C   UNL     1      -1.275  -0.827  25.372  0.00  0.00    +0.164 C 
ATOM      9  C   UNL     1      -1.979  -2.174  25.275  0.00  0.00    +0.165 C 
ATOM     10  C   UNL     1      -0.708  -1.866  23.342  0.00  0.00    +0.181 C 
BRANCH   7   4
ATOM      4  N   UNL     1       0.539   0.174  23.994  0.00  0.00    -0.301 NA
ATOM     12  C   UNL     1       1.259  -0.055  22.737  0.00  0.00    +0.105 C 
ATOM     13  C   UNL     1      -0.464   1.228  23.814  0.00  0.00    +0.105 C 
ENDBRANCH   7   4
BRANCH   8   2
ATOM      2  O   UNL     1      -0.899  -0.522  26.701  0.00  0.00    -0.388 OA
ATOM     20  H   UNL     1      -0.360   0.287  26.687  0.00  0.00    +0.210 HD
ENDBRANCH   8   2
ENDBRANCH  11   9
BRANCH  11   5
ATOM      3  O   UNL     1      -4.011  -0.274  23.420  0.00  0.00    -0.270 OA
ATOM      5  N   UNL     1      -3.904  -0.735  25.690  0.00  0.00    -0.309 N 
ATOM     14  C   UNL     1      -4.145   0.079  24.588  0.00  0.00    +0.244 C 
ATOM     21  H   UNL     1      -3.970  -0.360  26.630  0.00  0.00    +0.149 HD
BRANCH  14  15
ATOM      6  N   UNL     1      -5.363   4.093  25.439  0.00  0.00    -0.263 NA
ATOM     15  C   UNL     1      -4.568   1.472  24.882  0.00  0.00    +0.040 A 
ATOM     16  C   UNL     1      -3.771   2.542  24.488  0.00  0.00    +0.033 A 
ATOM     17  C   UNL     1      -5.762   1.712  25.553  0.00  0.00    +0.033 A 
ATOM     18  C   UNL     1      -4.210   3.822  24.788  0.00  0.00    +0.111 A 
ATOM     19  C   UNL     1      -6.111   3.029  25.805  0.00  0.00    +0.111 A 
ENDBRANCH  14  15
ENDBRANCH  11   5
TORSDOF 5
ENDMDL
MODEL 2
REMARK VINA RESULT:      -4.3      2.669      6.941
REMARK  Name = 75536785
REMARK  7 active torsions:
REMARK  status: ('A' for Active; 'I' for Inactive)
REMARK    1  A    between atoms: O_2  and  C_8
REMARK    2  A    between atoms: N_4  and  C_7
REMARK    3  A    between atoms: N_4  and  C_12
REMARK    4  A    between atoms: N_4  and  C_13
REMARK    5  A    between atoms: N_5  and  C_11
REMARK    6  A    between atoms: C_9  and  C_11
REMARK    7  A    between atoms: C_14  and  C_15
REMARK                            x       y       z     vdW  Elec       q    Type
REMARK                         _______ _______ _______ _____ _____    ______ ____
ROOT
ATOM     11  C   UNL     1      -0.652  -0.504  23.665  0.00  0.00    +0.138 C 
ENDROOT
BRANCH  11   9
ATOM      1  O   UNL     1      -0.443   1.056  25.500  0.00  0.00    -0.371 OA
ATOM      7  C   UNL     1      -2.416   2.354  25.243  0.00  0.00    +0.113 C 
ATOM      8  C   UNL     1      -2.343   1.336  24.119  0.00  0.00    +0.164 C 
ATOM      9  C   UNL     1      -1.387   0.311  24.714  0.00  0.00    +0.165 C 
ATOM     10  C   UNL     1      -0.975   2.374  25.725  0.00  0.00    +0.181 C 
BRANCH   7   4
ATOM      4  N   UNL     1      -2.888   3.661  24.818  0.00  0.00    -0.301 NA
ATOM     12  C   UNL     1      -4.265   3.889  25.268  0.00  0.00    +0.105 C 
ATOM     13  C   UNL     1      -2.013   4.722  25.324  0.00  0.00    +0.105 C 
ENDBRANCH   7   4
BRANCH   8   2
ATOM      2  O   UNL     1      -3.602   0.769  23.813  0.00  0.00    -0.388 OA
ATOM     20  H   UNL     1      -3.914   1.154  22.976  0.00  0.00    +0.210 HD
ENDBRANCH   8   2
ENDBRANCH  11   9
BRANCH  11   5
ATOM      3  O   UNL     1       1.313  -0.331  21.578  0.00  0.00    -0.270 OA
ATOM      5  N   UNL     1       0.770  -0.408  23.832  0.00  0.00    -0.309 N 
ATOM     14  C   UNL     1       1.652  -0.328  22.759  0.00  0.00    +0.244 C 
ATOM     21  H   UNL     1       1.121  -0.468  24.782  0.00  0.00    +0.149 HD
BRANCH  14  15
ATOM      6  N   UNL     1       5.814  -0.137  23.736  0.00  0.00    -0.263 NA
ATOM     15  C   UNL     1       3.096  -0.261  23.099  0.00  0.00    +0.040 A 
ATOM     16  C   UNL     1       3.823   0.894  22.832  0.00  0.00    +0.033 A 
ATOM     17  C   UNL     1       3.726  -1.353  23.685  0.00  0.00    +0.033 A 
ATOM     18  C   UNL     1       5.168   0.905  23.166  0.00  0.00    +0.111 A 
ATOM     19  C   UNL     1       5.075  -1.241  23.981  0.00  0.00    +0.111 A 
ENDBRANCH  14  15
ENDBRANCH  11   5
TORSDOF 5
ENDMDL
MODEL 3
REMARK VINA RESULT:      -4.3      2.483      5.281
REMARK  Name = 75536785
REMARK  7 active torsions:
REMARK  status: ('A' for Active; 'I' for Inactive)
REMARK    1  A    between atoms: O_2  and  C_8
REMARK    2  A    between atoms: N_4  and  C_7
REMARK    3  A    between atoms: N_4  and  C_12
REMARK    4  A    between atoms: N_4  and  C_13
REMARK    5  A    between atoms: N_5  and  C_11
REMARK    6  A    between atoms: C_9  and  C_11
REMARK    7  A    between atoms: C_14  and  C_15
REMARK                            x       y       z     vdW  Elec       q    Type
REMARK                         _______ _______ _______ _____ _____    ______ ____
ROOT
ATOM     11  C   UNL     1      -5.685   2.296  24.896  0.00  0.00    +0.138 C 
ENDROOT
BRANCH  11   9
ATOM      1  O   UNL     1      -4.597   3.454  26.718  0.00  0.00    -0.371 OA
ATOM      7  C   UNL     1      -2.751   4.454  25.606  0.00  0.00    +0.113 C 
ATOM      8  C   UNL     1      -3.536   3.618  24.611  0.00  0.00    +0.164 C 
ATOM      9  C   UNL     1      -4.884   3.517  25.311  0.00  0.00    +0.165 C 
ATOM     10  C   UNL     1      -3.240   3.885  26.928  0.00  0.00    +0.181 C 
BRANCH   7   4
ATOM      4  N   UNL     1      -1.310   4.353  25.446  0.00  0.00    -0.301 NA
ATOM     12  C   UNL     1      -0.946   3.086  24.802  0.00  0.00    +0.105 C 
ATOM     13  C   UNL     1      -0.792   5.480  24.666  0.00  0.00    +0.105 C 
ENDBRANCH   7   4
BRANCH   8   2
ATOM      2  O   UNL     1      -3.644   4.238  23.344  0.00  0.00    -0.388 OA
ATOM     20  H   UNL     1      -4.377   3.819  22.861  0.00  0.00    +0.210 HD
ENDBRANCH   8   2
ENDBRANCH  11   9
BRANCH  11   5
ATOM      3  O   UNL     1      -3.672   1.362  23.075  0.00  0.00    -0.270 OA
ATOM      5  N   UNL     1      -4.909   1.096  25.019  0.00  0.00    -0.309 N 
ATOM     14  C   UNL     1      -3.950   0.719  24.084  0.00  0.00    +0.244 C 
ATOM     21  H   UNL     1      -5.136   0.485  25.796  0.00  0.00    +0.149 HD
BRANCH  14  15
ATOM      6  N   UNL     1      -1.933  -2.983  24.824  0.00  0.00    -0.263 NA
ATOM     15  C   UNL     1      -3.250  -0.565  24.343  0.00  0.00    +0.040 A 
ATOM     16  C   UNL     1      -1.899  -0.571  24.671  0.00  0.00    +0.033 A 
ATOM     17  C   UNL     1      -3.944  -1.767  24.255  0.00  0.00    +0.033 A 
ATOM     18  C   UNL     1      -1.292  -1.796  24.900  0.00  0.00    +0.111 A 
ATOM     19  C   UNL     1      -3.245  -2.938  24.502  0.00  0.00    +0.111 A 
ENDBRANCH  14  15
ENDBRANCH  11   5
TORSDOF 5
ENDMDL
MODEL 4
REMARK VINA RESULT:      -4.3      2.794      6.932
REMARK  Name = 75536785
REMARK  7 active torsions:
REMARK  status: ('A' for Active; 'I' for Inactive)
REMARK    1  A    between atoms: O_2  and  C_8
REMARK    2  A    between atoms: N_4  and  C_7
REMARK    3  A    between atoms: N_4  and  C_12
REMARK    4  A    between atoms: N_4  and  C_13
REMARK    5  A    between atoms: N_5  and  C_11
REMARK    6  A    between atoms: C_9  and  C_11
REMARK    7  A    between atoms: C_14  and  C_15
REMARK                            x       y       z     vdW  Elec       q    Type
REMARK                         _______ _______ _______ _____ _____    ______ ____
ROOT
ATOM     11  C   UNL     1      -0.728  -0.426  23.777  0.00  0.00    +0.138 C 
ENDROOT
BRANCH  11   9
ATOM      1  O   UNL     1      -2.761   0.876  23.649  0.00  0.00    -0.371 OA
ATOM      7  C   UNL     1      -2.020   2.988  24.443  0.00  0.00    +0.113 C 
ATOM      8  C   UNL     1      -0.868   2.002  24.508  0.00  0.00    +0.164 C 
ATOM      9  C   UNL     1      -1.332   0.942  23.518  0.00  0.00    +0.165 C 
ATOM     10  C   UNL     1      -3.213   2.050  24.346  0.00  0.00    +0.181 C 
BRANCH   7   4
ATOM      4  N   UNL     1      -2.094   3.878  25.589  0.00  0.00    -0.301 NA
ATOM     12  C   UNL     1      -1.581   5.209  25.248  0.00  0.00    +0.105 C 
ATOM     13  C   UNL     1      -3.470   3.982  26.082  0.00  0.00    +0.105 C 
ENDBRANCH   7   4
BRANCH   8   2
ATOM      2  O   UNL     1       0.366   2.579  24.125  0.00  0.00    -0.388 OA
ATOM     20  H   UNL     1       0.661   2.150  23.304  0.00  0.00    +0.210 HD
ENDBRANCH   8   2
ENDBRANCH  11   9
BRANCH  11   5
ATOM      3  O   UNL     1       1.188  -0.354  21.640  0.00  0.00    -0.270 OA
ATOM      5  N   UNL     1       0.699  -0.350  23.908  0.00  0.00    -0.309 N 
ATOM     14  C   UNL     1       1.556  -0.319  22.812  0.00  0.00    +0.244 C 
ATOM     21  H   UNL     1       1.072  -0.385  24.850  0.00  0.00    +0.149 HD
BRANCH  14  15
ATOM      6  N   UNL     1       5.742  -0.163  23.691  0.00  0.00    -0.263 NA
ATOM     15  C   UNL     1       3.009  -0.266  23.115  0.00  0.00    +0.040 A 
ATOM     16  C   UNL     1       3.645  -1.366  23.680  0.00  0.00    +0.033 A 
ATOM     17  C   UNL     1       3.738   0.886  22.838  0.00  0.00    +0.033 A 
ATOM     18  C   UNL     1       5.001  -1.264  23.947  0.00  0.00    +0.111 A 
ATOM     19  C   UNL     1       5.089   0.886  23.142  0.00  0.00    +0.111 A 
ENDBRANCH  14  15
ENDBRANCH  11   5
TORSDOF 5
ENDMDL
MODEL 5
REMARK VINA RESULT:      -4.1      2.708      4.959
REMARK  Name = 75536785
REMARK  7 active torsions:
REMARK  status: ('A' for Active; 'I' for Inactive)
REMARK    1  A    between atoms: O_2  and  C_8
REMARK    2  A    between atoms: N_4  and  C_7
REMARK    3  A    between atoms: N_4  and  C_12
REMARK    4  A    between atoms: N_4  and  C_13
REMARK    5  A    between atoms: N_5  and  C_11
REMARK    6  A    between atoms: C_9  and  C_11
REMARK    7  A    between atoms: C_14  and  C_15
REMARK                            x       y       z     vdW  Elec       q    Type
REMARK                         _______ _______ _______ _____ _____    ______ ____
ROOT
ATOM     11  C   UNL     1      -4.361   2.960  23.864  0.00  0.00    +0.138 C 
ENDROOT
BRANCH  11   9
ATOM      1  O   UNL     1      -3.156   4.169  25.576  0.00  0.00    -0.371 OA
ATOM      7  C   UNL     1      -0.903   3.703  24.985  0.00  0.00    +0.113 C 
ATOM      8  C   UNL     1      -1.828   2.963  24.035  0.00  0.00    +0.164 C 
ATOM      9  C   UNL     1      -3.115   3.759  24.199  0.00  0.00    +0.165 C 
ATOM     10  C   UNL     1      -1.842   4.011  26.140  0.00  0.00    +0.181 C 
BRANCH   7   4
ATOM      4  N   UNL     1       0.258   2.929  25.392  0.00  0.00    -0.301 NA
ATOM     12  C   UNL     1       0.104   2.444  26.767  0.00  0.00    +0.105 C 
ATOM     13  C   UNL     1       0.476   1.799  24.483  0.00  0.00    +0.105 C 
ENDBRANCH   7   4
BRANCH   8   2
ATOM      2  O   UNL     1      -1.363   2.978  22.699  0.00  0.00    -0.388 OA
ATOM     20  H   UNL     1      -1.447   2.079  22.337  0.00  0.00    +0.210 HD
ENDBRANCH   8   2
ENDBRANCH  11   9
BRANCH  11   5
ATOM      3  O   UNL     1      -5.156   1.122  25.921  0.00  0.00    -0.270 OA
ATOM      5  N   UNL     1      -4.102   1.550  23.900  0.00  0.00    -0.309 N 
ATOM     14  C   UNL     1      -4.527   0.731  24.941  0.00  0.00    +0.244 C 
ATOM     21  H   UNL     1      -3.528   1.174  23.152  0.00  0.00    +0.149 HD
BRANCH  14  15
ATOM      6  N   UNL     1      -3.453  -3.402  24.652  0.00  0.00    -0.263 NA
ATOM     15  C   UNL     1      -4.155  -0.704  24.842  0.00  0.00    +0.040 A 
ATOM     16  C   UNL     1      -3.467  -1.320  25.881  0.00  0.00    +0.033 A 
ATOM     17  C   UNL     1      -4.493  -1.435  23.708  0.00  0.00    +0.033 A 
ATOM     18  C   UNL     1      -3.142  -2.660  25.738  0.00  0.00    +0.111 A 
ATOM     19  C   UNL     1      -4.122  -2.769  23.663  0.00  0.00    +0.111 A 
ENDBRANCH  14  15
ENDBRANCH  11   5
TORSDOF 5
ENDMDL
MODEL 6
REMARK VINA RESULT:      -3.7      2.444      5.385
REMARK  Name = 75536785
REMARK  7 active torsions:
REMARK  status: ('A' for Active; 'I' for Inactive)
REMARK    1  A    between atoms: O_2  and  C_8
REMARK    2  A    between atoms: N_4  and  C_7
REMARK    3  A    between atoms: N_4  and  C_12
REMARK    4  A    between atoms: N_4  and  C_13
REMARK    5  A    between atoms: N_5  and  C_11
REMARK    6  A    between atoms: C_9  and  C_11
REMARK    7  A    between atoms: C_14  and  C_15
REMARK                            x       y       z     vdW  Elec       q    Type
REMARK                         _______ _______ _______ _____ _____    ______ ____
ROOT
ATOM     11  C   UNL     1       0.012   2.136  26.164  0.00  0.00    +0.138 C 
ENDROOT
BRANCH  11   9
ATOM      1  O   UNL     1      -0.349   3.782  24.430  0.00  0.00    -0.371 OA
ATOM      7  C   UNL     1      -2.607   4.401  24.830  0.00  0.00    +0.113 C 
ATOM      8  C   UNL     1      -2.212   3.309  25.807  0.00  0.00    +0.164 C 
ATOM      9  C   UNL     1      -0.694   3.423  25.778  0.00  0.00    +0.165 C 
ATOM     10  C   UNL     1      -1.534   4.253  23.764  0.00  0.00    +0.181 C 
BRANCH   7   4
ATOM      4  N   UNL     1      -3.953   4.253  24.301  0.00  0.00    -0.301 NA
ATOM     12  C   UNL     1      -4.034   3.100  23.399  0.00  0.00    +0.105 C 
ATOM     13  C   UNL     1      -4.927   4.111  25.388  0.00  0.00    +0.105 C 
ENDBRANCH   7   4
BRANCH   8   2
ATOM      2  O   UNL     1      -2.733   3.523  27.105  0.00  0.00    -0.388 OA
ATOM     20  H   UNL     1      -3.704   3.539  27.044  0.00  0.00    +0.210 HD
ENDBRANCH   8   2
ENDBRANCH  11   9
BRANCH  11   5
ATOM      3  O   UNL     1      -0.325   0.767  23.663  0.00  0.00    -0.270 OA
ATOM      5  N   UNL     1      -0.818   0.992  25.918  0.00  0.00    -0.309 N 
ATOM     14  C   UNL     1      -0.921   0.390  24.668  0.00  0.00    +0.244 C 
ATOM     21  H   UNL     1      -1.389   0.670  26.692  0.00  0.00    +0.149 HD
BRANCH  14  15
ATOM      6  N   UNL     1      -3.578  -2.954  24.388  0.00  0.00    -0.263 NA
ATOM     15  C   UNL     1      -1.843  -0.771  24.573  0.00  0.00    +0.040 A 
ATOM     16  C   UNL     1      -1.344  -2.066  24.644  0.00  0.00    +0.033 A 
ATOM     17  C   UNL     1      -3.209  -0.565  24.409  0.00  0.00    +0.033 A 
ATOM     18  C   UNL     1      -2.246  -3.115  24.547  0.00  0.00    +0.111 A 
ATOM     19  C   UNL     1      -4.026  -1.680  24.322  0.00  0.00    +0.111 A 
ENDBRANCH  14  15
ENDBRANCH  11   5
TORSDOF 5
ENDMDL
MODEL 7
REMARK VINA RESULT:      -3.1      2.234      5.188
REMARK  Name = 75536785
REMARK  7 active torsions:
REMARK  status: ('A' for Active; 'I' for Inactive)
REMARK    1  A    between atoms: O_2  and  C_8
REMARK    2  A    between atoms: N_4  and  C_7
REMARK    3  A    between atoms: N_4  and  C_12
REMARK    4  A    between atoms: N_4  and  C_13
REMARK    5  A    between atoms: N_5  and  C_11
REMARK    6  A    between atoms: C_9  and  C_11
REMARK    7  A    between atoms: C_14  and  C_15
REMARK                            x       y       z     vdW  Elec       q    Type
REMARK                         _______ _______ _______ _____ _____    ______ ____
ROOT
ATOM     11  C   UNL     1       0.641   1.298  24.250  0.00  0.00    +0.138 C 
ENDROOT
BRANCH  11   9
ATOM      1  O   UNL     1       0.232   3.606  23.658  0.00  0.00    -0.371 OA
ATOM      7  C   UNL     1      -1.407   4.221  25.263  0.00  0.00    +0.113 C 
ATOM      8  C   UNL     1      -1.062   2.754  25.445  0.00  0.00    +0.164 C 
ATOM      9  C   UNL     1       0.296   2.685  24.760  0.00  0.00    +0.165 C 
ATOM     10  C   UNL     1      -0.895   4.478  23.856  0.00  0.00    +0.181 C 
BRANCH   7   4
ATOM      4  N   UNL     1      -2.824   4.511  25.411  0.00  0.00    -0.301 NA
ATOM     12  C   UNL     1      -3.611   3.775  24.416  0.00  0.00    +0.105 C 
ATOM     13  C   UNL     1      -3.286   4.178  26.762  0.00  0.00    +0.105 C 
ENDBRANCH   7   4
BRANCH   8   2
ATOM      2  O   UNL     1      -0.986   2.376  26.806  0.00  0.00    -0.388 OA
ATOM     20  H   UNL     1      -1.426   1.515  26.908  0.00  0.00    +0.210 HD
ENDBRANCH   8   2
ENDBRANCH  11   9
BRANCH  11   5
ATOM      3  O   UNL     1      -0.558  -0.538  26.104  0.00  0.00    -0.270 OA
ATOM      5  N   UNL     1      -0.541   0.512  24.036  0.00  0.00    -0.309 N 
ATOM     14  C   UNL     1      -1.054  -0.356  24.995  0.00  0.00    +0.244 C 
ATOM     21  H   UNL     1      -0.961   0.566  23.114  0.00  0.00    +0.149 HD
BRANCH  14  15
ATOM      6  N   UNL     1      -4.558  -2.549  23.887  0.00  0.00    -0.263 NA
ATOM     15  C   UNL     1      -2.269  -1.117  24.609  0.00  0.00    +0.040 A 
ATOM     16  C   UNL     1      -3.435  -0.442  24.264  0.00  0.00    +0.033 A 
ATOM     17  C   UNL     1      -2.247  -2.507  24.593  0.00  0.00    +0.033 A 
ATOM     18  C   UNL     1      -4.543  -1.198  23.914  0.00  0.00    +0.111 A 
ATOM     19  C   UNL     1      -3.407  -3.170  24.229  0.00  0.00    +0.111 A 
ENDBRANCH  14  15
ENDBRANCH  11   5
TORSDOF 5
ENDMDL
MODEL 8
REMARK VINA RESULT:      -3.1      2.055      3.114
REMARK  Name = 75536785
REMARK  7 active torsions:
REMARK  status: ('A' for Active; 'I' for Inactive)
REMARK    1  A    between atoms: O_2  and  C_8
REMARK    2  A    between atoms: N_4  and  C_7
REMARK    3  A    between atoms: N_4  and  C_12
REMARK    4  A    between atoms: N_4  and  C_13
REMARK    5  A    between atoms: N_5  and  C_11
REMARK    6  A    between atoms: C_9  and  C_11
REMARK    7  A    between atoms: C_14  and  C_15
REMARK                            x       y       z     vdW  Elec       q    Type
REMARK                         _______ _______ _______ _____ _____    ______ ____
ROOT
ATOM     11  C   UNL     1      -4.809   0.255  25.048  0.00  0.00    +0.138 C 
ENDROOT
BRANCH  11   9
ATOM      1  O   UNL     1      -4.270  -1.914  24.128  0.00  0.00    -0.371 OA
ATOM      7  C   UNL     1      -2.040  -2.210  24.892  0.00  0.00    +0.113 C 
ATOM      8  C   UNL     1      -2.539  -0.846  25.333  0.00  0.00    +0.164 C 
ATOM      9  C   UNL     1      -4.046  -1.042  25.247  0.00  0.00    +0.165 C 
ATOM     10  C   UNL     1      -3.023  -2.545  23.782  0.00  0.00    +0.181 C 
BRANCH   7   4
ATOM      4  N   UNL     1      -0.659  -2.210  24.442  0.00  0.00    -0.301 NA
ATOM     12  C   UNL     1      -0.268  -0.880  23.960  0.00  0.00    +0.105 C 
ATOM     13  C   UNL     1       0.241  -2.638  25.517  0.00  0.00    +0.105 C 
ENDBRANCH   7   4
BRANCH   8   2
ATOM      2  O   UNL     1      -2.123  -0.510  26.643  0.00  0.00    -0.388 OA
ATOM     20  H   UNL     1      -1.152  -0.542  26.672  0.00  0.00    +0.210 HD
ENDBRANCH   8   2
ENDBRANCH  11   9
BRANCH  11   5
ATOM      3  O   UNL     1      -3.186   1.419  22.985  0.00  0.00    -0.270 OA
ATOM      5  N   UNL     1      -3.946   1.393  25.177  0.00  0.00    -0.309 N 
ATOM     14  C   UNL     1      -3.192   1.892  24.119  0.00  0.00    +0.244 C 
ATOM     21  H   UNL     1      -3.853   1.791  26.105  0.00  0.00    +0.149 HD
BRANCH  14  15
ATOM      6  N   UNL     1      -0.701   5.263  24.988  0.00  0.00    -0.263 NA
ATOM     15  C   UNL     1      -2.328   3.061  24.422  0.00  0.00    +0.040 A 
ATOM     16  C   UNL     1      -2.871   4.196  25.014  0.00  0.00    +0.033 A 
ATOM     17  C   UNL     1      -0.972   3.026  24.112  0.00  0.00    +0.033 A 
ATOM     18  C   UNL     1      -2.022   5.261  25.274  0.00  0.00    +0.111 A 
ATOM     19  C   UNL     1      -0.210   4.143  24.413  0.00  0.00    +0.111 A 
ENDBRANCH  14  15
ENDBRANCH  11   5
TORSDOF 5
ENDMDL
MODEL 9
REMARK VINA RESULT:      -2.8     17.238     19.864
REMARK  Name = 75536785
REMARK  7 active torsions:
REMARK  status: ('A' for Active; 'I' for Inactive)
REMARK    1  A    between atoms: O_2  and  C_8
REMARK    2  A    between atoms: N_4  and  C_7
REMARK    3  A    between atoms: N_4  and  C_12
REMARK    4  A    between atoms: N_4  and  C_13
REMARK    5  A    between atoms: N_5  and  C_11
REMARK    6  A    between atoms: C_9  and  C_11
REMARK    7  A    between atoms: C_14  and  C_15
REMARK                            x       y       z     vdW  Elec       q    Type
REMARK                         _______ _______ _______ _____ _____    ______ ____
ROOT
ATOM     11  C   UNL     1      13.943  -5.905  30.519  0.00  0.00    +0.138 C 
ENDROOT
BRANCH  11   9
ATOM      1  O   UNL     1      12.602  -5.986  32.529  0.00  0.00    -0.371 OA
ATOM      7  C   UNL     1      11.557  -8.108  32.314  0.00  0.00    +0.113 C 
ATOM      8  C   UNL     1      12.413  -7.850  31.087  0.00  0.00    +0.164 C 
ATOM      9  C   UNL     1      13.366  -6.786  31.612  0.00  0.00    +0.165 C 
ATOM     10  C   UNL     1      11.404  -6.703  32.873  0.00  0.00    +0.181 C 
BRANCH   7   4
ATOM      4  N   UNL     1      10.283  -8.739  32.015  0.00  0.00    -0.301 NA
ATOM     12  C   UNL     1      10.279 -10.138  32.458  0.00  0.00    +0.105 C 
ATOM     13  C   UNL     1       9.179  -8.010  32.646  0.00  0.00    +0.105 C 
ENDBRANCH   7   4
BRANCH   8   2
ATOM      2  O   UNL     1      13.101  -9.006  30.649  0.00  0.00    -0.388 OA
ATOM     20  H   UNL     1      13.128  -9.641  31.384  0.00  0.00    +0.210 HD
ENDBRANCH   8   2
ENDBRANCH  11   9
BRANCH  11   5
ATOM      3  O   UNL     1      16.449  -5.717  29.129  0.00  0.00    -0.270 OA
ATOM      5  N   UNL     1      14.355  -6.682  29.386  0.00  0.00    -0.309 N 
ATOM     14  C   UNL     1      15.594  -6.523  28.772  0.00  0.00    +0.244 C 
ATOM     21  H   UNL     1      13.669  -7.321  28.999  0.00  0.00    +0.149 HD
BRANCH  14  15
ATOM      6  N   UNL     1      16.351  -9.012  25.374  0.00  0.00    -0.263 NA
ATOM     15  C   UNL     1      15.858  -7.387  27.593  0.00  0.00    +0.040 A 
ATOM     16  C   UNL     1      16.428  -6.847  26.446  0.00  0.00    +0.033 A 
ATOM     17  C   UNL     1      15.534  -8.739  27.632  0.00  0.00    +0.033 A 
ATOM     18  C   UNL     1      16.652  -7.694  25.373  0.00  0.00    +0.111 A 
ATOM     19  C   UNL     1      15.798  -9.501  26.506  0.00  0.00    +0.111 A 
ENDBRANCH  14  15
ENDBRANCH  11   5
TORSDOF 5
ENDMDL
MODEL 10
REMARK VINA RESULT:      -2.6     18.188     20.606
REMARK  Name = 75536785
REMARK  7 active torsions:
REMARK  status: ('A' for Active; 'I' for Inactive)
REMARK    1  A    between atoms: O_2  and  C_8
REMARK    2  A    between atoms: N_4  and  C_7
REMARK    3  A    between atoms: N_4  and  C_12
REMARK    4  A    between atoms: N_4  and  C_13
REMARK    5  A    between atoms: N_5  and  C_11
REMARK    6  A    between atoms: C_9  and  C_11
REMARK    7  A    between atoms: C_14  and  C_15
REMARK                            x       y       z     vdW  Elec       q    Type
REMARK                         _______ _______ _______ _____ _____    ______ ____
ROOT
ATOM     11  C   UNL     1      16.562  -5.490  29.552  0.00  0.00    +0.138 C 
ENDROOT
BRANCH  11   9
ATOM      1  O   UNL     1      15.312  -4.178  31.153  0.00  0.00    -0.371 OA
ATOM      7  C   UNL     1      13.977  -5.846  32.190  0.00  0.00    +0.113 C 
ATOM      8  C   UNL     1      14.805  -6.487  31.092  0.00  0.00    +0.164 C 
ATOM      9  C   UNL     1      15.918  -5.461  30.926  0.00  0.00    +0.165 C 
ATOM     10  C   UNL     1      14.043  -4.379  31.799  0.00  0.00    +0.181 C 
BRANCH   7   4
ATOM      4  N   UNL     1      12.616  -6.350  32.266  0.00  0.00    -0.301 NA
ATOM     12  C   UNL     1      11.726  -5.355  32.873  0.00  0.00    +0.105 C 
ATOM     13  C   UNL     1      12.122  -6.720  30.936  0.00  0.00    +0.105 C 
ENDBRANCH   7   4
BRANCH   8   2
ATOM      2  O   UNL     1      15.308  -7.758  31.458  0.00  0.00    -0.388 OA
ATOM     20  H   UNL     1      16.089  -7.946  30.910  0.00  0.00    +0.210 HD
ENDBRANCH   8   2
ENDBRANCH  11   9
BRANCH  11   5
ATOM      3  O   UNL     1      16.490  -5.944  26.718  0.00  0.00    -0.270 OA
ATOM      5  N   UNL     1      16.322  -6.740  28.890  0.00  0.00    -0.309 N 
ATOM     14  C   UNL     1      16.305  -6.869  27.505  0.00  0.00    +0.244 C 
ATOM     21  H   UNL     1      16.095  -7.532  29.482  0.00  0.00    +0.149 HD
BRANCH  14  15
ATOM      6  N   UNL     1      15.478 -10.781  25.978  0.00  0.00    -0.263 NA
ATOM     15  C   UNL     1      16.016  -8.226  26.975  0.00  0.00    +0.040 A 
ATOM     16  C   UNL     1      15.538  -9.219  27.822  0.00  0.00    +0.033 A 
ATOM     17  C   UNL     1      16.226  -8.509  25.630  0.00  0.00    +0.033 A 
ATOM     18  C   UNL     1      15.287 -10.470  27.279  0.00  0.00    +0.111 A 
ATOM     19  C   UNL     1      15.944  -9.791  25.185  0.00  0.00    +0.111 A 
ENDBRANCH  14  15
ENDBRANCH  11   5
TORSDOF 5
ENDMDL
