MODEL 1
REMARK VINA RESULT:      -3.6      0.000      0.000
REMARK  Name = 45783880
REMARK  12 active torsions:
REMARK  status: ('A' for Active; 'I' for Inactive)
REMARK    1  A    between atoms: O_2  and  C_25
REMARK    2  A    between atoms: N_3  and  C_12
REMARK    3  A    between atoms: N_4  and  C_24
REMARK    4  A    between atoms: C_7  and  C_11
REMARK    5  A    between atoms: C_8  and  C_12
REMARK    6  A    between atoms: C_10  and  C_15
REMARK    7  A    between atoms: C_11  and  C_18
REMARK    8  A    between atoms: C_11  and  C_19
REMARK    9  A    between atoms: C_14  and  C_22
REMARK   10  A    between atoms: C_15  and  C_23
REMARK   11  A    between atoms: C_24  and  C_25
REMARK   12  A    between atoms: C_26  and  C_27
REMARK                            x       y       z     vdW  Elec       q    Type
REMARK                         _______ _______ _______ _____ _____    ______ ____
ROOT
ATOM      7  C   UNL     1      -3.408  -0.649  25.316  0.00  0.00    +0.000 C 
ATOM      8  C   UNL     1      -2.150  -0.178  24.550  0.00  0.00    +0.029 C 
ATOM      9  C   UNL     1      -4.297   0.549  25.678  0.00  0.00    +0.012 C 
ATOM     10  C   UNL     1      -4.723   1.386  24.453  0.00  0.00    +0.024 C 
ATOM     13  C   UNL     1      -2.465   0.852  23.495  0.00  0.00    -0.023 C 
ATOM     14  C   UNL     1      -3.612   1.552  23.428  0.00  0.00    -0.073 C 
ATOM     22  C   UNL     1      -3.859   2.494  22.282  0.00  0.00    +0.039 C 
ENDROOT
BRANCH   7  11
ATOM     11  C   UNL     1      -4.191  -1.698  24.514  0.00  0.00    -0.013 C 
ATOM     18  C   UNL     1      -4.119  -1.390  23.022  0.00  0.00    +0.007 C 
ATOM     19  C   UNL     1      -3.655  -3.097  24.803  0.00  0.00    +0.007 C 
ENDBRANCH   7  11
BRANCH   8  12
ATOM     12  C   UNL     1      -1.086   0.382  25.500  0.00  0.00    +0.092 C 
BRANCH  12   3
ATOM      3  N   UNL     1       0.240   0.313  24.888  0.00  0.00    -0.299 NA
ATOM      4  N   UNL     1       2.039   0.394  22.627  0.00  0.00    -0.298 NA
ATOM     16  C   UNL     1       0.317  -0.801  23.935  0.00  0.00    +0.100 C 
ATOM     17  C   UNL     1       0.575   1.579  24.226  0.00  0.00    +0.100 C 
ATOM     20  C   UNL     1       1.705  -0.873  23.289  0.00  0.00    +0.100 C 
ATOM     21  C   UNL     1       1.964   1.507  23.581  0.00  0.00    +0.100 C 
BRANCH   4  24
ATOM     24  C   UNL     1       3.364   0.325  22.013  0.00  0.00    +0.112 C 
BRANCH  24  25
ATOM     25  C   UNL     1       4.439   0.721  23.011  0.00  0.00    +0.171 C 
BRANCH  25   2
ATOM      2  O   UNL     1       4.931  -0.454  23.644  0.00  0.00    -0.394 OA
ATOM     28  H   UNL     1       5.767  -0.685  23.206  0.00  0.00    +0.209 HD
ENDBRANCH  25   2
ENDBRANCH  24  25
ENDBRANCH   4  24
ENDBRANCH  12   3
ENDBRANCH   8  12
BRANCH  10  15
ATOM     15  C   UNL     1      -5.283   2.726  24.947  0.00  0.00    +0.105 C 
BRANCH  15  23
ATOM      1  O   UNL     1      -3.196   3.971  24.729  0.00  0.00    -0.425 OA
ATOM      5  N   UNL     1      -4.082   4.022  26.782  0.00  0.00    -0.112 NA
ATOM      6  N   UNL     1      -2.912   4.760  26.802  0.00  0.00    -0.113 NA
ATOM     23  C   UNL     1      -4.207   3.581  25.552  0.00  0.00    +0.218 A 
ATOM     26  C   UNL     1      -2.430   4.702  25.584  0.00  0.00    +0.214 A 
ATOM     27  C   UNL     1      -1.208   5.301  25.032  0.00  0.00    +0.111 C 
ENDBRANCH  15  23
ENDBRANCH  10  15
TORSDOF 8
ENDMDL
MODEL 2
REMARK VINA RESULT:      -2.5      2.148      4.549
REMARK  Name = 45783880
REMARK  12 active torsions:
REMARK  status: ('A' for Active; 'I' for Inactive)
REMARK    1  A    between atoms: O_2  and  C_25
REMARK    2  A    between atoms: N_3  and  C_12
REMARK    3  A    between atoms: N_4  and  C_24
REMARK    4  A    between atoms: C_7  and  C_11
REMARK    5  A    between atoms: C_8  and  C_12
REMARK    6  A    between atoms: C_10  and  C_15
REMARK    7  A    between atoms: C_11  and  C_18
REMARK    8  A    between atoms: C_11  and  C_19
REMARK    9  A    between atoms: C_14  and  C_22
REMARK   10  A    between atoms: C_15  and  C_23
REMARK   11  A    between atoms: C_24  and  C_25
REMARK   12  A    between atoms: C_26  and  C_27
REMARK                            x       y       z     vdW  Elec       q    Type
REMARK                         _______ _______ _______ _____ _____    ______ ____
ROOT
ATOM      7  C   UNL     1      -3.033   2.727  23.969  0.00  0.00    +0.000 C 
ATOM      8  C   UNL     1      -3.513   3.719  25.053  0.00  0.00    +0.029 C 
ATOM      9  C   UNL     1      -3.178   1.280  24.461  0.00  0.00    +0.012 C 
ATOM     10  C   UNL     1      -4.619   0.921  24.884  0.00  0.00    +0.024 C 
ATOM     13  C   UNL     1      -4.804   3.287  25.702  0.00  0.00    -0.023 C 
ATOM     14  C   UNL     1      -5.320   2.046  25.628  0.00  0.00    -0.073 C 
ATOM     22  C   UNL     1      -6.660   1.745  26.242  0.00  0.00    +0.039 C 
ENDROOT
BRANCH   7  11
ATOM     11  C   UNL     1      -3.779   2.941  22.645  0.00  0.00    -0.013 C 
ATOM     18  C   UNL     1      -4.159   4.409  22.479  0.00  0.00    +0.007 C 
ATOM     19  C   UNL     1      -2.926   2.468  21.472  0.00  0.00    +0.007 C 
ENDBRANCH   7  11
BRANCH   8  12
ATOM     12  C   UNL     1      -2.452   3.932  26.137  0.00  0.00    +0.092 C 
BRANCH  12   3
ATOM      3  N   UNL     1      -1.154   3.425  25.694  0.00  0.00    -0.299 NA
ATOM      4  N   UNL     1       0.535   1.805  23.997  0.00  0.00    -0.298 NA
ATOM     16  C   UNL     1      -1.078   1.969  25.862  0.00  0.00    +0.100 C 
ATOM     17  C   UNL     1      -0.897   3.795  24.297  0.00  0.00    +0.100 C 
ATOM     20  C   UNL     1       0.281   1.434  25.395  0.00  0.00    +0.100 C 
ATOM     21  C   UNL     1       0.462   3.261  23.832  0.00  0.00    +0.100 C 
BRANCH   4  24
ATOM     24  C   UNL     1       1.832   1.296  23.555  0.00  0.00    +0.112 C 
BRANCH  24  25
ATOM     25  C   UNL     1       1.668  -0.024  22.819  0.00  0.00    +0.171 C 
BRANCH  25   2
ATOM      2  O   UNL     1       2.280   0.087  21.540  0.00  0.00    -0.394 OA
ATOM     28  H   UNL     1       2.282   1.030  21.305  0.00  0.00    +0.209 HD
ENDBRANCH  25   2
ENDBRANCH  24  25
ENDBRANCH   4  24
ENDBRANCH  12   3
ENDBRANCH   8  12
BRANCH  10  15
ATOM     15  C   UNL     1      -4.582  -0.389  25.682  0.00  0.00    +0.105 C 
BRANCH  15  23
ATOM      1  O   UNL     1      -2.251  -1.109  25.660  0.00  0.00    -0.425 OA
ATOM      5  N   UNL     1      -3.590  -2.299  24.320  0.00  0.00    -0.112 NA
ATOM      6  N   UNL     1      -2.310  -2.810  24.208  0.00  0.00    -0.113 NA
ATOM     23  C   UNL     1      -3.508  -1.308  25.177  0.00  0.00    +0.218 A 
ATOM     26  C   UNL     1      -1.563  -2.085  25.007  0.00  0.00    +0.214 A 
ATOM     27  C   UNL     1      -0.124  -2.180  25.285  0.00  0.00    +0.111 C 
ENDBRANCH  15  23
ENDBRANCH  10  15
TORSDOF 8
ENDMDL
MODEL 3
REMARK VINA RESULT:      -1.6      1.588      2.562
REMARK  Name = 45783880
REMARK  12 active torsions:
REMARK  status: ('A' for Active; 'I' for Inactive)
REMARK    1  A    between atoms: O_2  and  C_25
REMARK    2  A    between atoms: N_3  and  C_12
REMARK    3  A    between atoms: N_4  and  C_24
REMARK    4  A    between atoms: C_7  and  C_11
REMARK    5  A    between atoms: C_8  and  C_12
REMARK    6  A    between atoms: C_10  and  C_15
REMARK    7  A    between atoms: C_11  and  C_18
REMARK    8  A    between atoms: C_11  and  C_19
REMARK    9  A    between atoms: C_14  and  C_22
REMARK   10  A    between atoms: C_15  and  C_23
REMARK   11  A    between atoms: C_24  and  C_25
REMARK   12  A    between atoms: C_26  and  C_27
REMARK                            x       y       z     vdW  Elec       q    Type
REMARK                         _______ _______ _______ _____ _____    ______ ____
ROOT
ATOM      7  C   UNL     1      -1.513   0.160  25.524  0.00  0.00    +0.000 C 
ATOM      8  C   UNL     1      -1.295  -0.289  24.061  0.00  0.00    +0.029 C 
ATOM      9  C   UNL     1      -2.949   0.663  25.725  0.00  0.00    +0.012 C 
ATOM     10  C   UNL     1      -4.021  -0.381  25.342  0.00  0.00    +0.024 C 
ATOM     13  C   UNL     1      -2.444  -1.108  23.529  0.00  0.00    -0.023 C 
ATOM     14  C   UNL     1      -3.664  -1.171  24.093  0.00  0.00    -0.073 C 
ATOM     22  C   UNL     1      -4.713  -2.089  23.528  0.00  0.00    +0.039 C 
ENDROOT
BRANCH   7  11
ATOM     11  C   UNL     1      -1.177  -0.967  26.511  0.00  0.00    -0.013 C 
ATOM     18  C   UNL     1      -2.453  -1.549  27.108  0.00  0.00    +0.007 C 
ATOM     19  C   UNL     1      -0.359  -2.053  25.819  0.00  0.00    +0.007 C 
ENDBRANCH   7  11
BRANCH   8  12
ATOM     12  C   UNL     1      -1.055   0.905  23.132  0.00  0.00    +0.092 C 
BRANCH  12   3
ATOM      3  N   UNL     1       0.348   0.971  22.727  0.00  0.00    -0.299 NA
ATOM      4  N   UNL     1       3.147   0.307  23.021  0.00  0.00    -0.298 NA
ATOM     16  C   UNL     1       1.168   1.577  23.783  0.00  0.00    +0.100 C 
ATOM     17  C   UNL     1       0.855  -0.364  22.386  0.00  0.00    +0.100 C 
ATOM     20  C   UNL     1       2.640   1.643  23.362  0.00  0.00    +0.100 C 
ATOM     21  C   UNL     1       2.327  -0.297  21.964  0.00  0.00    +0.100 C 
BRANCH   4  24
ATOM     24  C   UNL     1       4.550   0.373  22.618  0.00  0.00    +0.112 C 
BRANCH  24  25
ATOM     25  C   UNL     1       5.457  -0.061  23.758  0.00  0.00    +0.171 C 
BRANCH  25   2
ATOM      2  O   UNL     1       4.997  -1.311  24.257  0.00  0.00    -0.394 OA
ATOM     28  H   UNL     1       4.740  -1.848  23.489  0.00  0.00    +0.209 HD
ENDBRANCH  25   2
ENDBRANCH  24  25
ENDBRANCH   4  24
ENDBRANCH  12   3
ENDBRANCH   8  12
BRANCH  10  15
ATOM     15  C   UNL     1      -5.377   0.328  25.231  0.00  0.00    +0.105 C 
BRANCH  15  23
ATOM      1  O   UNL     1      -4.380   2.393  24.395  0.00  0.00    -0.425 OA
ATOM      5  N   UNL     1      -5.785   2.683  26.111  0.00  0.00    -0.112 NA
ATOM      6  N   UNL     1      -5.297   3.924  25.743  0.00  0.00    -0.113 NA
ATOM     23  C   UNL     1      -5.222   1.821  25.298  0.00  0.00    +0.218 A 
ATOM     26  C   UNL     1      -4.481   3.706  24.739  0.00  0.00    +0.214 A 
ATOM     27  C   UNL     1      -3.684   4.658  23.957  0.00  0.00    +0.111 C 
ENDBRANCH  15  23
ENDBRANCH  10  15
TORSDOF 8
ENDMDL
MODEL 4
REMARK VINA RESULT:      -1.3      2.007      4.011
REMARK  Name = 45783880
REMARK  12 active torsions:
REMARK  status: ('A' for Active; 'I' for Inactive)
REMARK    1  A    between atoms: O_2  and  C_25
REMARK    2  A    between atoms: N_3  and  C_12
REMARK    3  A    between atoms: N_4  and  C_24
REMARK    4  A    between atoms: C_7  and  C_11
REMARK    5  A    between atoms: C_8  and  C_12
REMARK    6  A    between atoms: C_10  and  C_15
REMARK    7  A    between atoms: C_11  and  C_18
REMARK    8  A    between atoms: C_11  and  C_19
REMARK    9  A    between atoms: C_14  and  C_22
REMARK   10  A    between atoms: C_15  and  C_23
REMARK   11  A    between atoms: C_24  and  C_25
REMARK   12  A    between atoms: C_26  and  C_27
REMARK                            x       y       z     vdW  Elec       q    Type
REMARK                         _______ _______ _______ _____ _____    ______ ____
ROOT
ATOM      7  C   UNL     1      -0.087   2.195  23.942  0.00  0.00    +0.000 C 
ATOM      8  C   UNL     1       0.549   0.800  24.144  0.00  0.00    +0.029 C 
ATOM      9  C   UNL     1      -1.562   2.061  23.540  0.00  0.00    +0.012 C 
ATOM     10  C   UNL     1      -2.401   1.255  24.556  0.00  0.00    +0.024 C 
ATOM     13  C   UNL     1      -0.343  -0.137  24.918  0.00  0.00    -0.023 C 
ATOM     14  C   UNL     1      -1.660   0.055  25.123  0.00  0.00    -0.073 C 
ATOM     22  C   UNL     1      -2.439  -0.900  25.984  0.00  0.00    +0.039 C 
ENDROOT
BRANCH   7  11
ATOM     11  C   UNL     1       0.070   3.068  25.195  0.00  0.00    -0.013 C 
ATOM     18  C   UNL     1      -1.068   4.079  25.284  0.00  0.00    +0.007 C 
ATOM     19  C   UNL     1       0.119   2.198  26.447  0.00  0.00    +0.007 C 
ENDBRANCH   7  11
BRANCH   8  12
ATOM     12  C   UNL     1       0.925   0.150  22.809  0.00  0.00    +0.092 C 
BRANCH  12   3
ATOM      3  N   UNL     1       2.355  -0.149  22.764  0.00  0.00    -0.299 NA
ATOM      4  N   UNL     1       5.001  -0.253  23.925  0.00  0.00    -0.298 NA
ATOM     16  C   UNL     1       3.148   1.070  22.963  0.00  0.00    +0.100 C 
ATOM     17  C   UNL     1       2.708  -1.161  23.767  0.00  0.00    +0.100 C 
ATOM     20  C   UNL     1       4.649   0.759  22.921  0.00  0.00    +0.100 C 
ATOM     21  C   UNL     1       4.208  -1.472  23.723  0.00  0.00    +0.100 C 
BRANCH   4  24
ATOM     24  C   UNL     1       6.431  -0.551  23.881  0.00  0.00    +0.112 C 
BRANCH  24  25
ATOM     25  C   UNL     1       6.917  -0.642  22.445  0.00  0.00    +0.171 C 
BRANCH  25   2
ATOM      2  O   UNL     1       8.337  -0.722  22.446  0.00  0.00    -0.394 OA
ATOM     28  H   UNL     1       8.570  -1.664  22.390  0.00  0.00    +0.209 HD
ENDBRANCH  25   2
ENDBRANCH  24  25
ENDBRANCH   4  24
ENDBRANCH  12   3
ENDBRANCH   8  12
BRANCH  10  15
ATOM     15  C   UNL     1      -3.734   0.876  23.898  0.00  0.00    +0.105 C 
BRANCH  15  23
ATOM      1  O   UNL     1      -4.729   2.920  24.784  0.00  0.00    -0.425 OA
ATOM      5  N   UNL     1      -6.053   1.123  24.922  0.00  0.00    -0.112 NA
ATOM      6  N   UNL     1      -6.737   2.199  25.457  0.00  0.00    -0.113 NA
ATOM     23  C   UNL     1      -4.887   1.590  24.542  0.00  0.00    +0.218 A 
ATOM     26  C   UNL     1      -5.926   3.225  25.356  0.00  0.00    +0.214 A 
ATOM     27  C   UNL     1      -6.128   4.621  25.765  0.00  0.00    +0.111 C 
ENDBRANCH  15  23
ENDBRANCH  10  15
TORSDOF 8
ENDMDL
MODEL 5
REMARK VINA RESULT:      -1.1      2.680      6.848
REMARK  Name = 45783880
REMARK  12 active torsions:
REMARK  status: ('A' for Active; 'I' for Inactive)
REMARK    1  A    between atoms: O_2  and  C_25
REMARK    2  A    between atoms: N_3  and  C_12
REMARK    3  A    between atoms: N_4  and  C_24
REMARK    4  A    between atoms: C_7  and  C_11
REMARK    5  A    between atoms: C_8  and  C_12
REMARK    6  A    between atoms: C_10  and  C_15
REMARK    7  A    between atoms: C_11  and  C_18
REMARK    8  A    between atoms: C_11  and  C_19
REMARK    9  A    between atoms: C_14  and  C_22
REMARK   10  A    between atoms: C_15  and  C_23
REMARK   11  A    between atoms: C_24  and  C_25
REMARK   12  A    between atoms: C_26  and  C_27
REMARK                            x       y       z     vdW  Elec       q    Type
REMARK                         _______ _______ _______ _____ _____    ______ ____
ROOT
ATOM      7  C   UNL     1      -1.294   2.224  24.517  0.00  0.00    +0.000 C 
ATOM      8  C   UNL     1      -1.101   2.202  22.983  0.00  0.00    +0.029 C 
ATOM      9  C   UNL     1      -1.261   0.797  25.083  0.00  0.00    +0.012 C 
ATOM     10  C   UNL     1       0.036   0.033  24.738  0.00  0.00    +0.024 C 
ATOM     13  C   UNL     1      -0.004   1.263  22.550  0.00  0.00    -0.023 C 
ATOM     14  C   UNL     1       0.524   0.296  23.323  0.00  0.00    -0.073 C 
ATOM     22  C   UNL     1       1.676  -0.530  22.820  0.00  0.00    +0.039 C 
ENDROOT
BRANCH   7  11
ATOM     11  C   UNL     1      -0.248   3.116  25.200  0.00  0.00    -0.013 C 
ATOM     18  C   UNL     1      -0.667   4.581  25.122  0.00  0.00    +0.007 C 
ATOM     19  C   UNL     1      -0.050   2.687  26.651  0.00  0.00    +0.007 C 
ENDBRANCH   7  11
BRANCH   8  12
ATOM     12  C   UNL     1      -2.397   1.835  22.254  0.00  0.00    +0.092 C 
BRANCH  12   3
ATOM      3  N   UNL     1      -3.560   2.117  23.094  0.00  0.00    -0.299 NA
ATOM      4  N   UNL     1      -4.831   2.661  25.633  0.00  0.00    -0.298 NA
ATOM     16  C   UNL     1      -3.751   1.058  24.092  0.00  0.00    +0.100 C 
ATOM     17  C   UNL     1      -3.424   3.423  23.750  0.00  0.00    +0.100 C 
ATOM     20  C   UNL     1      -4.968   1.355  24.977  0.00  0.00    +0.100 C 
ATOM     21  C   UNL     1      -4.641   3.719  24.633  0.00  0.00    +0.100 C 
BRANCH   4  24
ATOM     24  C   UNL     1      -5.993   2.943  26.474  0.00  0.00    +0.112 C 
BRANCH  24  25
ATOM     25  C   UNL     1      -7.012   1.820  26.376  0.00  0.00    +0.171 C 
BRANCH  25   2
ATOM      2  O   UNL     1      -7.223   1.279  27.674  0.00  0.00    -0.394 OA
ATOM     28  H   UNL     1      -7.491   2.015  28.249  0.00  0.00    +0.209 HD
ENDBRANCH  25   2
ENDBRANCH  24  25
ENDBRANCH   4  24
ENDBRANCH  12   3
ENDBRANCH   8  12
BRANCH  10  15
ATOM     15  C   UNL     1      -0.184  -1.458  25.026  0.00  0.00    +0.105 C 
BRANCH  15  23
ATOM      1  O   UNL     1      -2.252  -2.290  24.033  0.00  0.00    -0.425 OA
ATOM      5  N   UNL     1      -2.452  -1.655  26.169  0.00  0.00    -0.112 NA
ATOM      6  N   UNL     1      -3.689  -2.099  25.737  0.00  0.00    -0.113 NA
ATOM     23  C   UNL     1      -1.645  -1.785  25.141  0.00  0.00    +0.218 A 
ATOM     26  C   UNL     1      -3.524  -2.459  24.486  0.00  0.00    +0.214 A 
ATOM     27  C   UNL     1      -4.500  -3.003  23.533  0.00  0.00    +0.111 C 
ENDBRANCH  15  23
ENDBRANCH  10  15
TORSDOF 8
ENDMDL
MODEL 6
REMARK VINA RESULT:      -1.0      2.118      6.234
REMARK  Name = 45783880
REMARK  12 active torsions:
REMARK  status: ('A' for Active; 'I' for Inactive)
REMARK    1  A    between atoms: O_2  and  C_25
REMARK    2  A    between atoms: N_3  and  C_12
REMARK    3  A    between atoms: N_4  and  C_24
REMARK    4  A    between atoms: C_7  and  C_11
REMARK    5  A    between atoms: C_8  and  C_12
REMARK    6  A    between atoms: C_10  and  C_15
REMARK    7  A    between atoms: C_11  and  C_18
REMARK    8  A    between atoms: C_11  and  C_19
REMARK    9  A    between atoms: C_14  and  C_22
REMARK   10  A    between atoms: C_15  and  C_23
REMARK   11  A    between atoms: C_24  and  C_25
REMARK   12  A    between atoms: C_26  and  C_27
REMARK                            x       y       z     vdW  Elec       q    Type
REMARK                         _______ _______ _______ _____ _____    ______ ____
ROOT
ATOM      7  C   UNL     1      -2.174   4.057  25.424  0.00  0.00    +0.000 C 
ATOM      8  C   UNL     1      -3.568   3.694  24.863  0.00  0.00    +0.029 C 
ATOM      9  C   UNL     1      -1.282   2.809  25.498  0.00  0.00    +0.012 C 
ATOM     10  C   UNL     1      -1.121   2.092  24.139  0.00  0.00    +0.024 C 
ATOM     13  C   UNL     1      -3.493   2.770  23.674  0.00  0.00    -0.023 C 
ATOM     14  C   UNL     1      -2.406   2.056  23.328  0.00  0.00    -0.073 C 
ATOM     22  C   UNL     1      -2.411   1.231  22.071  0.00  0.00    +0.039 C 
ENDROOT
BRANCH   7  11
ATOM     11  C   UNL     1      -1.510   5.165  24.595  0.00  0.00    -0.013 C 
ATOM     18  C   UNL     1      -1.967   6.537  25.079  0.00  0.00    +0.007 C 
ATOM     19  C   UNL     1       0.009   5.045  24.668  0.00  0.00    +0.007 C 
ENDBRANCH   7  11
BRANCH   8  12
ATOM     12  C   UNL     1      -4.462   3.063  25.935  0.00  0.00    +0.092 C 
BRANCH  12   3
ATOM      3  N   UNL     1      -4.653   1.637  25.676  0.00  0.00    -0.299 NA
ATOM      4  N   UNL     1      -4.120  -0.811  24.232  0.00  0.00    -0.298 NA
ATOM     16  C   UNL     1      -5.180   1.420  24.323  0.00  0.00    +0.100 C 
ATOM     17  C   UNL     1      -3.397   0.900  25.861  0.00  0.00    +0.100 C 
ATOM     20  C   UNL     1      -5.377  -0.075  24.047  0.00  0.00    +0.100 C 
ATOM     21  C   UNL     1      -3.595  -0.594  25.586  0.00  0.00    +0.100 C 
BRANCH   4  24
ATOM     24  C   UNL     1      -4.310  -2.236  23.970  0.00  0.00    +0.112 C 
BRANCH  24  25
ATOM     25  C   UNL     1      -3.277  -3.062  24.719  0.00  0.00    +0.171 C 
BRANCH  25   2
ATOM      2  O   UNL     1      -2.010  -2.878  24.101  0.00  0.00    -0.394 OA
ATOM     28  H   UNL     1      -2.151  -2.315  23.321  0.00  0.00    +0.209 HD
ENDBRANCH  25   2
ENDBRANCH  24  25
ENDBRANCH   4  24
ENDBRANCH  12   3
ENDBRANCH   8  12
BRANCH  10  15
ATOM     15  C   UNL     1      -0.534   0.697  24.390  0.00  0.00    +0.105 C 
BRANCH  15  23
ATOM      1  O   UNL     1       1.799   1.065  23.777  0.00  0.00    -0.425 OA
ATOM      5  N   UNL     1       0.713  -0.356  22.435  0.00  0.00    -0.112 NA
ATOM      6  N   UNL     1       2.012  -0.240  21.974  0.00  0.00    -0.113 NA
ATOM     23  C   UNL     1       0.635   0.423  23.488  0.00  0.00    +0.218 A 
ATOM     26  C   UNL     1       2.608   0.598  22.788  0.00  0.00    +0.214 A 
ATOM     27  C   UNL     1       3.991   1.090  22.776  0.00  0.00    +0.111 C 
ENDBRANCH  15  23
ENDBRANCH  10  15
TORSDOF 8
ENDMDL
MODEL 7
REMARK VINA RESULT:      -0.8      2.398      4.560
REMARK  Name = 45783880
REMARK  12 active torsions:
REMARK  status: ('A' for Active; 'I' for Inactive)
REMARK    1  A    between atoms: O_2  and  C_25
REMARK    2  A    between atoms: N_3  and  C_12
REMARK    3  A    between atoms: N_4  and  C_24
REMARK    4  A    between atoms: C_7  and  C_11
REMARK    5  A    between atoms: C_8  and  C_12
REMARK    6  A    between atoms: C_10  and  C_15
REMARK    7  A    between atoms: C_11  and  C_18
REMARK    8  A    between atoms: C_11  and  C_19
REMARK    9  A    between atoms: C_14  and  C_22
REMARK   10  A    between atoms: C_15  and  C_23
REMARK   11  A    between atoms: C_24  and  C_25
REMARK   12  A    between atoms: C_26  and  C_27
REMARK                            x       y       z     vdW  Elec       q    Type
REMARK                         _______ _______ _______ _____ _____    ______ ____
ROOT
ATOM      7  C   UNL     1      -2.198   2.720  24.245  0.00  0.00    +0.000 C 
ATOM      8  C   UNL     1      -1.014   1.770  24.538  0.00  0.00    +0.029 C 
ATOM      9  C   UNL     1      -3.472   1.917  23.950  0.00  0.00    +0.012 C 
ATOM     10  C   UNL     1      -3.860   0.947  25.087  0.00  0.00    +0.024 C 
ATOM     13  C   UNL     1      -1.396   0.632  25.451  0.00  0.00    -0.023 C 
ATOM     14  C   UNL     1      -2.661   0.257  25.718  0.00  0.00    -0.073 C 
ATOM     22  C   UNL     1      -2.932  -0.838  26.712  0.00  0.00    +0.039 C 
ENDROOT
BRANCH   7  11
ATOM     11  C   UNL     1      -2.421   3.709  25.398  0.00  0.00    -0.013 C 
ATOM     18  C   UNL     1      -1.534   4.937  25.224  0.00  0.00    +0.007 C 
ATOM     19  C   UNL     1      -3.890   4.111  25.478  0.00  0.00    +0.007 C 
ENDBRANCH   7  11
BRANCH   8  12
ATOM     12  C   UNL     1      -0.412   1.203  23.250  0.00  0.00    +0.092 C 
BRANCH  12   3
ATOM      3  N   UNL     1       0.993   0.851  23.447  0.00  0.00    -0.299 NA
ATOM      4  N   UNL     1       3.699   0.435  22.517  0.00  0.00    -0.298 NA
ATOM     16  C   UNL     1       1.352  -0.328  22.650  0.00  0.00    +0.100 C 
ATOM     17  C   UNL     1       1.867   1.982  23.112  0.00  0.00    +0.100 C 
ATOM     20  C   UNL     1       2.826  -0.697  22.852  0.00  0.00    +0.100 C 
ATOM     21  C   UNL     1       3.340   1.613  23.316  0.00  0.00    +0.100 C 
BRANCH   4  24
ATOM     24  C   UNL     1       5.104   0.083  22.712  0.00  0.00    +0.112 C 
BRANCH  24  25
ATOM     25  C   UNL     1       5.362  -0.313  24.156  0.00  0.00    +0.171 C 
BRANCH  25   2
ATOM      2  O   UNL     1       5.011  -1.680  24.325  0.00  0.00    -0.394 OA
ATOM     28  H   UNL     1       4.137  -1.803  23.918  0.00  0.00    +0.209 HD
ENDBRANCH  25   2
ENDBRANCH  24  25
ENDBRANCH   4  24
ENDBRANCH  12   3
ENDBRANCH   8  12
BRANCH  10  15
ATOM     15  C   UNL     1      -4.903  -0.043  24.552  0.00  0.00    +0.105 C 
BRANCH  15  23
ATOM      1  O   UNL     1      -2.918  -1.419  24.206  0.00  0.00    -0.425 OA
ATOM      5  N   UNL     1      -4.849  -2.494  23.864  0.00  0.00    -0.112 NA
ATOM      6  N   UNL     1      -3.816  -3.385  23.633  0.00  0.00    -0.113 NA
ATOM     23  C   UNL     1      -4.277  -1.360  24.195  0.00  0.00    +0.218 A 
ATOM     26  C   UNL     1      -2.709  -2.714  23.844  0.00  0.00    +0.214 A 
ATOM     27  C   UNL     1      -1.313  -3.157  23.746  0.00  0.00    +0.111 C 
ENDBRANCH  15  23
ENDBRANCH  10  15
TORSDOF 8
ENDMDL
