MODEL 1
REMARK VINA RESULT:       1.1      0.000      0.000
REMARK  Name = 28959937
REMARK  8 active torsions:
REMARK  status: ('A' for Active; 'I' for Inactive)
REMARK    1  A    between atoms: O_3  and  C_21
REMARK    2  A    between atoms: N_6  and  C_14
REMARK    3  A    between atoms: N_7  and  C_23
REMARK    4  A    between atoms: C_8  and  C_12
REMARK    5  A    between atoms: C_9  and  C_15
REMARK    6  A    between atoms: C_12  and  C_14
REMARK    7  A    between atoms: C_15  and  C_21
REMARK    8  A    between atoms: C_20  and  C_22
REMARK                            x       y       z     vdW  Elec       q    Type
REMARK                         _______ _______ _______ _____ _____    ______ ____
ROOT
ATOM      2  O   UNL     1      -5.731   0.613  26.798  0.00  0.00    -0.270 OA
ATOM      5  N   UNL     1      -5.076   1.845  24.919  0.00  0.00    -0.297 N 
ATOM      8  C   UNL     1      -3.308   3.027  23.634  0.00  0.00    +0.011 C 
ATOM      9  C   UNL     1      -3.912   4.371  24.116  0.00  0.00    +0.006 C 
ATOM     10  C   UNL     1      -4.397   1.938  23.619  0.00  0.00    +0.112 C 
ATOM     11  C   UNL     1      -4.651   4.212  25.455  0.00  0.00    +0.023 C 
ATOM     13  C   UNL     1      -5.683   3.089  25.386  0.00  0.00    +0.108 C 
ATOM     20  C   UNL     1      -5.169   0.694  25.707  0.00  0.00    +0.247 C 
ENDROOT
BRANCH  20  22
ATOM     22  C   UNL     1      -4.547  -0.536  25.206  0.00  0.00    +0.037 A 
ATOM     24  C   UNL     1      -3.594  -1.201  25.978  0.00  0.00    +0.013 A 
ATOM     25  C   UNL     1      -4.909  -1.042  23.958  0.00  0.00    +0.013 A 
ATOM     28  C   UNL     1      -3.004  -2.372  25.502  0.00  0.00    +0.001 A 
ATOM     29  C   UNL     1      -4.319  -2.212  23.482  0.00  0.00    +0.001 A 
ATOM     33  C   UNL     1      -3.367  -2.878  24.254  0.00  0.00    +0.000 A 
ENDBRANCH  20  22
BRANCH   8  12
ATOM     12  C   UNL     1      -2.098   2.560  24.452  0.00  0.00    +0.020 C 
BRANCH  12  14
ATOM     14  C   UNL     1      -1.848   1.072  24.251  0.00  0.00    +0.085 C 
BRANCH  14   6
ATOM      6  N   UNL     1      -0.540   0.867  23.630  0.00  0.00    -0.299 NA
ATOM      7  N   UNL     1       2.242   0.222  23.562  0.00  0.00    -0.327 N 
ATOM     16  C   UNL     1      -0.094  -0.519  23.814  0.00  0.00    +0.103 C 
ATOM     17  C   UNL     1       0.450   1.791  24.197  0.00  0.00    +0.103 C 
ATOM     18  C   UNL     1       1.249  -0.762  23.120  0.00  0.00    +0.120 C 
ATOM     19  C   UNL     1       1.810   1.625  23.516  0.00  0.00    +0.120 C 
BRANCH   7  23
ATOM      1  F   UNL     1       7.630  -0.858  22.956  0.00  0.00    -0.205 F 
ATOM     23  C   UNL     1       3.606  -0.052  23.409  0.00  0.00    +0.030 A 
ATOM     26  C   UNL     1       4.127  -1.267  23.851  0.00  0.00    +0.026 A 
ATOM     27  C   UNL     1       4.443   0.892  22.813  0.00  0.00    +0.026 A 
ATOM     30  C   UNL     1       5.486  -1.540  23.698  0.00  0.00    +0.040 A 
ATOM     31  C   UNL     1       5.803   0.619  22.660  0.00  0.00    +0.040 A 
ATOM     32  C   UNL     1       6.324  -0.596  23.103  0.00  0.00    +0.124 A 
ENDBRANCH   7  23
ENDBRANCH  14   6
ENDBRANCH  12  14
ENDBRANCH   8  12
BRANCH   9  15
ATOM     15  C   UNL     1      -2.881   5.497  24.200  0.00  0.00    +0.124 C 
BRANCH  15  21
ATOM      4  O   UNL     1      -1.955   4.666  26.296  0.00  0.00    -0.251 OA
ATOM     21  C   UNL     1      -1.803   5.187  25.202  0.00  0.00    +0.305 C 
BRANCH  21   3
ATOM      3  O   UNL     1      -0.598   5.577  24.712  0.00  0.00    -0.481 OA
ATOM     34  H   UNL     1      -0.630   6.485  24.342  0.00  0.00    +0.295 HD
ENDBRANCH  21   3
ENDBRANCH  15  21
ENDBRANCH   9  15
TORSDOF 8
ENDMDL
MODEL 2
REMARK VINA RESULT:       1.5      1.728      4.792
REMARK  Name = 28959937
REMARK  8 active torsions:
REMARK  status: ('A' for Active; 'I' for Inactive)
REMARK    1  A    between atoms: O_3  and  C_21
REMARK    2  A    between atoms: N_6  and  C_14
REMARK    3  A    between atoms: N_7  and  C_23
REMARK    4  A    between atoms: C_8  and  C_12
REMARK    5  A    between atoms: C_9  and  C_15
REMARK    6  A    between atoms: C_12  and  C_14
REMARK    7  A    between atoms: C_15  and  C_21
REMARK    8  A    between atoms: C_20  and  C_22
REMARK                            x       y       z     vdW  Elec       q    Type
REMARK                         _______ _______ _______ _____ _____    ______ ____
ROOT
ATOM      2  O   UNL     1      -5.858   4.124  25.374  0.00  0.00    -0.270 OA
ATOM      5  N   UNL     1      -4.614   2.155  25.605  0.00  0.00    -0.297 N 
ATOM      8  C   UNL     1      -3.349   0.280  24.578  0.00  0.00    +0.011 C 
ATOM      9  C   UNL     1      -4.568  -0.639  24.850  0.00  0.00    +0.006 C 
ATOM     10  C   UNL     1      -3.331   1.440  25.591  0.00  0.00    +0.112 C 
ATOM     11  C   UNL     1      -5.879   0.162  24.903  0.00  0.00    +0.023 C 
ATOM     13  C   UNL     1      -5.780   1.322  25.891  0.00  0.00    +0.108 C 
ATOM     20  C   UNL     1      -4.785   3.522  25.368  0.00  0.00    +0.247 C 
ENDROOT
BRANCH  20  22
ATOM     22  C   UNL     1      -3.593   4.328  25.085  0.00  0.00    +0.037 A 
ATOM     24  C   UNL     1      -3.627   5.299  24.084  0.00  0.00    +0.013 A 
ATOM     25  C   UNL     1      -2.423   4.123  25.817  0.00  0.00    +0.013 A 
ATOM     28  C   UNL     1      -2.493   6.066  23.816  0.00  0.00    +0.001 A 
ATOM     29  C   UNL     1      -1.290   4.890  25.550  0.00  0.00    +0.001 A 
ATOM     33  C   UNL     1      -1.325   5.861  24.549  0.00  0.00    +0.000 A 
ENDBRANCH  20  22
BRANCH   8  12
ATOM     12  C   UNL     1      -3.286   0.822  23.145  0.00  0.00    +0.020 C 
BRANCH  12  14
ATOM     14  C   UNL     1      -2.172   1.849  23.001  0.00  0.00    +0.085 C 
BRANCH  14   6
ATOM      6  N   UNL     1      -0.906   1.278  23.459  0.00  0.00    -0.299 NA
ATOM      7  N   UNL     1       1.876   0.650  23.312  0.00  0.00    -0.327 N 
ATOM     16  C   UNL     1       0.103   2.330  23.627  0.00  0.00    +0.103 C 
ATOM     17  C   UNL     1      -0.423   0.269  22.509  0.00  0.00    +0.103 C 
ATOM     18  C   UNL     1       1.417   1.753  24.161  0.00  0.00    +0.120 C 
ATOM     19  C   UNL     1       0.872  -0.377  23.006  0.00  0.00    +0.120 C 
BRANCH   7  23
ATOM      1  F   UNL     1       7.193  -0.864  23.424  0.00  0.00    -0.205 F 
ATOM     23  C   UNL     1       3.222   0.267  23.340  0.00  0.00    +0.030 A 
ATOM     26  C   UNL     1       4.215   1.181  22.988  0.00  0.00    +0.026 A 
ATOM     27  C   UNL     1       3.570  -1.029  23.723  0.00  0.00    +0.026 A 
ATOM     30  C   UNL     1       5.556   0.799  23.015  0.00  0.00    +0.040 A 
ATOM     31  C   UNL     1       4.911  -1.411  23.751  0.00  0.00    +0.040 A 
ATOM     32  C   UNL     1       5.904  -0.497  23.397  0.00  0.00    +0.124 A 
ENDBRANCH   7  23
ENDBRANCH  14   6
ENDBRANCH  12  14
ENDBRANCH   8  12
BRANCH   9  15
ATOM     15  C   UNL     1      -4.682  -1.795  23.856  0.00  0.00    +0.124 C 
BRANCH  15  21
ATOM      4  O   UNL     1      -3.159  -3.629  23.346  0.00  0.00    -0.251 OA
ATOM     21  C   UNL     1      -3.690  -2.885  24.157  0.00  0.00    +0.305 C 
BRANCH  21   3
ATOM      3  O   UNL     1      -3.455  -2.934  25.493  0.00  0.00    -0.481 OA
ATOM     34  H   UNL     1      -2.555  -3.268  25.694  0.00  0.00    +0.295 HD
ENDBRANCH  21   3
ENDBRANCH  15  21
ENDBRANCH   9  15
TORSDOF 8
ENDMDL
MODEL 3
REMARK VINA RESULT:       3.5      1.133      1.721
REMARK  Name = 28959937
REMARK  8 active torsions:
REMARK  status: ('A' for Active; 'I' for Inactive)
REMARK    1  A    between atoms: O_3  and  C_21
REMARK    2  A    between atoms: N_6  and  C_14
REMARK    3  A    between atoms: N_7  and  C_23
REMARK    4  A    between atoms: C_8  and  C_12
REMARK    5  A    between atoms: C_9  and  C_15
REMARK    6  A    between atoms: C_12  and  C_14
REMARK    7  A    between atoms: C_15  and  C_21
REMARK    8  A    between atoms: C_20  and  C_22
REMARK                            x       y       z     vdW  Elec       q    Type
REMARK                         _______ _______ _______ _____ _____    ______ ____
ROOT
ATOM      2  O   UNL     1      -4.023  -1.047  27.311  0.00  0.00    -0.270 OA
ATOM      5  N   UNL     1      -4.768   0.323  25.567  0.00  0.00    -0.297 N 
ATOM      8  C   UNL     1      -4.323   2.107  23.895  0.00  0.00    +0.011 C 
ATOM      9  C   UNL     1      -5.102   3.095  24.800  0.00  0.00    +0.006 C 
ATOM     10  C   UNL     1      -4.819   0.669  24.139  0.00  0.00    +0.112 C 
ATOM     11  C   UNL     1      -5.060   2.664  26.276  0.00  0.00    +0.023 C 
ATOM     13  C   UNL     1      -5.520   1.219  26.443  0.00  0.00    +0.108 C 
ATOM     20  C   UNL     1      -4.072  -0.757  26.117  0.00  0.00    +0.247 C 
ENDROOT
BRANCH  20  22
ATOM     22  C   UNL     1      -3.328  -1.634  25.206  0.00  0.00    +0.037 A 
ATOM     24  C   UNL     1      -1.934  -1.621  25.208  0.00  0.00    +0.013 A 
ATOM     25  C   UNL     1      -4.016  -2.482  24.338  0.00  0.00    +0.013 A 
ATOM     28  C   UNL     1      -1.226  -2.457  24.343  0.00  0.00    +0.001 A 
ATOM     29  C   UNL     1      -3.310  -3.317  23.473  0.00  0.00    +0.001 A 
ATOM     33  C   UNL     1      -1.915  -3.305  23.476  0.00  0.00    +0.000 A 
ENDBRANCH  20  22
BRANCH   8  12
ATOM     12  C   UNL     1      -2.800   2.181  24.059  0.00  0.00    +0.020 C 
BRANCH  12  14
ATOM     14  C   UNL     1      -2.094   1.538  22.874  0.00  0.00    +0.085 C 
BRANCH  14   6
ATOM      6  N   UNL     1      -0.826   0.953  23.309  0.00  0.00    -0.299 NA
ATOM      7  N   UNL     1       1.997   0.518  23.261  0.00  0.00    -0.327 N 
ATOM     16  C   UNL     1       0.095   2.001  23.763  0.00  0.00    +0.103 C 
ATOM     17  C   UNL     1      -0.212   0.186  22.218  0.00  0.00    +0.103 C 
ATOM     18  C   UNL     1       1.407   1.399  24.274  0.00  0.00    +0.120 C 
ATOM     19  C   UNL     1       1.088  -0.478  22.677  0.00  0.00    +0.120 C 
BRANCH   7  23
ATOM      1  F   UNL     1       7.384  -0.701  23.490  0.00  0.00    -0.205 F 
ATOM     23  C   UNL     1       3.360   0.209  23.319  0.00  0.00    +0.030 A 
ATOM     26  C   UNL     1       3.770  -1.077  23.671  0.00  0.00    +0.026 A 
ATOM     27  C   UNL     1       4.310   1.188  23.024  0.00  0.00    +0.026 A 
ATOM     30  C   UNL     1       5.129  -1.384  23.729  0.00  0.00    +0.040 A 
ATOM     31  C   UNL     1       5.669   0.880  23.082  0.00  0.00    +0.040 A 
ATOM     32  C   UNL     1       6.079  -0.406  23.435  0.00  0.00    +0.124 A 
ENDBRANCH   7  23
ENDBRANCH  14   6
ENDBRANCH  12  14
ENDBRANCH   8  12
BRANCH   9  15
ATOM     15  C   UNL     1      -4.637   4.543  24.648  0.00  0.00    +0.124 C 
BRANCH  15  21
ATOM      4  O   UNL     1      -2.259   5.075  24.585  0.00  0.00    -0.251 OA
ATOM     21  C   UNL     1      -3.256   4.745  25.209  0.00  0.00    +0.305 C 
BRANCH  21   3
ATOM      3  O   UNL     1      -3.266   4.502  26.545  0.00  0.00    -0.481 OA
ATOM     34  H   UNL     1      -3.804   3.714  26.770  0.00  0.00    +0.295 HD
ENDBRANCH  21   3
ENDBRANCH  15  21
ENDBRANCH   9  15
TORSDOF 8
ENDMDL
MODEL 4
REMARK VINA RESULT:       3.9      1.376      1.923
REMARK  Name = 28959937
REMARK  8 active torsions:
REMARK  status: ('A' for Active; 'I' for Inactive)
REMARK    1  A    between atoms: O_3  and  C_21
REMARK    2  A    between atoms: N_6  and  C_14
REMARK    3  A    between atoms: N_7  and  C_23
REMARK    4  A    between atoms: C_8  and  C_12
REMARK    5  A    between atoms: C_9  and  C_15
REMARK    6  A    between atoms: C_12  and  C_14
REMARK    7  A    between atoms: C_15  and  C_21
REMARK    8  A    between atoms: C_20  and  C_22
REMARK                            x       y       z     vdW  Elec       q    Type
REMARK                         _______ _______ _______ _____ _____    ______ ____
ROOT
ATOM      2  O   UNL     1      -1.306  -0.521  26.479  0.00  0.00    -0.270 OA
ATOM      5  N   UNL     1      -2.867   1.084  25.800  0.00  0.00    -0.297 N 
ATOM      8  C   UNL     1      -3.726   2.652  24.074  0.00  0.00    +0.011 C 
ATOM      9  C   UNL     1      -3.104   3.820  24.883  0.00  0.00    +0.006 C 
ATOM     10  C   UNL     1      -4.046   1.476  25.015  0.00  0.00    +0.112 C 
ATOM     11  C   UNL     1      -1.905   3.351  25.723  0.00  0.00    +0.023 C 
ATOM     13  C   UNL     1      -2.277   2.157  26.599  0.00  0.00    +0.108 C 
ATOM     20  C   UNL     1      -2.295  -0.191  25.827  0.00  0.00    +0.247 C 
ENDROOT
BRANCH  20  22
ATOM     22  C   UNL     1      -2.915  -1.242  25.013  0.00  0.00    +0.037 A 
ATOM     24  C   UNL     1      -2.230  -2.432  24.770  0.00  0.00    +0.013 A 
ATOM     25  C   UNL     1      -4.191  -1.052  24.483  0.00  0.00    +0.013 A 
ATOM     28  C   UNL     1      -2.820  -3.432  23.998  0.00  0.00    +0.001 A 
ATOM     29  C   UNL     1      -4.781  -2.051  23.710  0.00  0.00    +0.001 A 
ATOM     33  C   UNL     1      -4.095  -3.242  23.468  0.00  0.00    +0.000 A 
ENDBRANCH  20  22
BRANCH   8  12
ATOM     12  C   UNL     1      -2.859   2.177  22.902  0.00  0.00    +0.020 C 
BRANCH  12  14
ATOM     14  C   UNL     1      -2.225   0.827  23.207  0.00  0.00    +0.085 C 
BRANCH  14   6
ATOM      6  N   UNL     1      -0.799   0.863  22.883  0.00  0.00    -0.299 NA
ATOM      7  N   UNL     1       1.970   0.253  23.230  0.00  0.00    -0.327 N 
ATOM     16  C   UNL     1      -0.297  -0.490  22.617  0.00  0.00    +0.103 C 
ATOM     17  C   UNL     1      -0.038   1.472  23.980  0.00  0.00    +0.103 C 
ATOM     18  C   UNL     1       1.182  -0.461  22.222  0.00  0.00    +0.120 C 
ATOM     19  C   UNL     1       1.449   1.568  23.630  0.00  0.00    +0.120 C 
BRANCH   7  23
ATOM      1  F   UNL     1       7.425  -0.586  23.549  0.00  0.00    -0.205 F 
ATOM     23  C   UNL     1       3.351   0.041  23.311  0.00  0.00    +0.030 A 
ATOM     26  C   UNL     1       4.235   1.063  22.966  0.00  0.00    +0.026 A 
ATOM     27  C   UNL     1       3.842  -1.193  23.737  0.00  0.00    +0.026 A 
ATOM     30  C   UNL     1       5.611   0.851  23.046  0.00  0.00    +0.040 A 
ATOM     31  C   UNL     1       5.219  -1.405  23.817  0.00  0.00    +0.040 A 
ATOM     32  C   UNL     1       6.103  -0.383  23.471  0.00  0.00    +0.124 A 
ENDBRANCH   7  23
ENDBRANCH  14   6
ENDBRANCH  12  14
ENDBRANCH   8  12
BRANCH   9  15
ATOM     15  C   UNL     1      -2.716   5.014  24.011  0.00  0.00    +0.124 C 
BRANCH  15  21
ATOM      4  O   UNL     1      -0.306   4.945  23.646  0.00  0.00    -0.251 OA
ATOM     21  C   UNL     1      -1.279   5.410  24.219  0.00  0.00    +0.305 C 
BRANCH  21   3
ATOM      3  O   UNL     1      -1.206   6.386  25.161  0.00  0.00    -0.481 OA
ATOM     34  H   UNL     1      -0.621   7.122  24.880  0.00  0.00    +0.295 HD
ENDBRANCH  21   3
ENDBRANCH  15  21
ENDBRANCH   9  15
TORSDOF 8
ENDMDL
MODEL 5
REMARK VINA RESULT:       4.2      1.817      4.672
REMARK  Name = 28959937
REMARK  8 active torsions:
REMARK  status: ('A' for Active; 'I' for Inactive)
REMARK    1  A    between atoms: O_3  and  C_21
REMARK    2  A    between atoms: N_6  and  C_14
REMARK    3  A    between atoms: N_7  and  C_23
REMARK    4  A    between atoms: C_8  and  C_12
REMARK    5  A    between atoms: C_9  and  C_15
REMARK    6  A    between atoms: C_12  and  C_14
REMARK    7  A    between atoms: C_15  and  C_21
REMARK    8  A    between atoms: C_20  and  C_22
REMARK                            x       y       z     vdW  Elec       q    Type
REMARK                         _______ _______ _______ _____ _____    ______ ____
ROOT
ATOM      2  O   UNL     1      -4.111   2.904  22.419  0.00  0.00    -0.270 OA
ATOM      5  N   UNL     1      -4.228   1.723  24.436  0.00  0.00    -0.297 N 
ATOM      8  C   UNL     1      -3.211   0.148  26.066  0.00  0.00    +0.011 C 
ATOM      9  C   UNL     1      -4.171  -0.951  25.543  0.00  0.00    +0.006 C 
ATOM     10  C   UNL     1      -3.832   1.539  25.839  0.00  0.00    +0.112 C 
ATOM     11  C   UNL     1      -4.593  -0.688  24.088  0.00  0.00    +0.023 C 
ATOM     13  C   UNL     1      -5.159   0.720  23.923  0.00  0.00    +0.108 C 
ATOM     20  C   UNL     1      -3.786   2.749  23.595  0.00  0.00    +0.247 C 
ENDROOT
BRANCH  20  22
ATOM     22  C   UNL     1      -2.852   3.737  24.144  0.00  0.00    +0.037 A 
ATOM     24  C   UNL     1      -3.300   4.683  25.067  0.00  0.00    +0.013 A 
ATOM     25  C   UNL     1      -1.516   3.731  23.745  0.00  0.00    +0.013 A 
ATOM     28  C   UNL     1      -2.411   5.622  25.591  0.00  0.00    +0.001 A 
ATOM     29  C   UNL     1      -0.627   4.670  24.268  0.00  0.00    +0.001 A 
ATOM     33  C   UNL     1      -1.075   5.615  25.191  0.00  0.00    +0.000 A 
ENDBRANCH  20  22
BRANCH   8  12
ATOM     12  C   UNL     1      -1.804   0.087  25.457  0.00  0.00    +0.020 C 
BRANCH  12  14
ATOM     14  C   UNL     1      -1.846   0.377  23.963  0.00  0.00    +0.085 C 
BRANCH  14   6
ATOM      6  N   UNL     1      -0.485   0.481  23.438  0.00  0.00    -0.299 NA
ATOM      7  N   UNL     1       2.335   0.028  23.396  0.00  0.00    -0.327 N 
ATOM     16  C   UNL     1       0.049  -0.850  23.126  0.00  0.00    +0.103 C 
ATOM     17  C   UNL     1       0.389   1.156  24.405  0.00  0.00    +0.103 C 
ATOM     18  C   UNL     1       1.454  -0.752  22.523  0.00  0.00    +0.120 C 
ATOM     19  C   UNL     1       1.803   1.322  23.844  0.00  0.00    +0.120 C 
BRANCH   7  23
ATOM      1  F   UNL     1       7.819  -0.511  22.943  0.00  0.00    -0.205 F 
ATOM     23  C   UNL     1       3.723  -0.108  23.282  0.00  0.00    +0.030 A 
ATOM     26  C   UNL     1       4.366  -1.204  23.857  0.00  0.00    +0.026 A 
ATOM     27  C   UNL     1       4.463   0.852  22.591  0.00  0.00    +0.026 A 
ATOM     30  C   UNL     1       5.749  -1.340  23.743  0.00  0.00    +0.040 A 
ATOM     31  C   UNL     1       5.847   0.716  22.477  0.00  0.00    +0.040 A 
ATOM     32  C   UNL     1       6.490  -0.380  23.053  0.00  0.00    +0.124 A 
ENDBRANCH   7  23
ENDBRANCH  14   6
ENDBRANCH  12  14
ENDBRANCH   8  12
BRANCH   9  15
ATOM     15  C   UNL     1      -3.605  -2.364  25.693  0.00  0.00    +0.124 C 
BRANCH  15  21
ATOM      4  O   UNL     1      -4.271  -3.442  23.610  0.00  0.00    -0.251 OA
ATOM     21  C   UNL     1      -3.399  -3.023  24.357  0.00  0.00    +0.305 C 
BRANCH  21   3
ATOM      3  O   UNL     1      -2.071  -3.092  24.081  0.00  0.00    -0.481 OA
ATOM     34  H   UNL     1      -1.619  -2.237  24.245  0.00  0.00    +0.295 HD
ENDBRANCH  21   3
ENDBRANCH  15  21
ENDBRANCH   9  15
TORSDOF 8
ENDMDL
