MODEL 1
REMARK VINA RESULT:      -0.8      0.000      0.000
REMARK  Name = 26742073
REMARK  7 active torsions:
REMARK  status: ('A' for Active; 'I' for Inactive)
REMARK    1  A    between atoms: O_1  and  C_9
REMARK    2  A    between atoms: O_4  and  C_23
REMARK    3  A    between atoms: O_4  and  C_24
REMARK    4  A    between atoms: N_6  and  C_8
REMARK    5  A    between atoms: N_7  and  C_17
REMARK    6  A    between atoms: C_15  and  C_16
REMARK    7  A    between atoms: C_17  and  C_20
REMARK                            x       y       z     vdW  Elec       q    Type
REMARK                         _______ _______ _______ _____ _____    ______ ____
ROOT
ATOM      2  O   UNL     1      -0.284   2.438  23.817  0.00  0.00    -0.253 OA
ATOM      5  N   UNL     1      -2.325   1.332  23.836  0.00  0.00    -0.284 N 
ATOM      7  N   UNL     1      -1.926   3.194  25.234  0.00  0.00    -0.300 N 
ATOM      8  C   UNL     1      -1.178  -0.881  23.558  0.00  0.00    +0.119 C 
ATOM      9  C   UNL     1      -1.748  -1.332  24.916  0.00  0.00    +0.136 C 
ATOM     10  C   UNL     1      -3.273  -1.265  25.054  0.00  0.00    +0.035 C 
ATOM     11  C   UNL     1      -1.862   0.319  22.888  0.00  0.00    +0.134 C 
ATOM     12  C   UNL     1      -3.787   0.125  25.441  0.00  0.00    +0.022 C 
ATOM     13  C   UNL     1      -3.696   1.153  24.323  0.00  0.00    +0.109 C 
ATOM     14  C   UNL     1      -1.431   2.332  24.261  0.00  0.00    +0.302 C 
ATOM     27  H   UNL     1      -2.824   3.028  25.670  0.00  0.00    +0.150 HD
ENDROOT
BRANCH   8   6
ATOM      3  O   UNL     1       0.748  -0.621  21.443  0.00  0.00    -0.270 OA
ATOM      6  N   UNL     1       0.244  -0.623  23.706  0.00  0.00    -0.305 N 
ATOM     15  C   UNL     1       1.090  -0.516  22.618  0.00  0.00    +0.244 C 
ATOM     25  H   UNL     1       0.598  -0.535  24.652  0.00  0.00    +0.149 HD
BRANCH  15  16
ATOM     16  C   UNL     1       2.521  -0.278  22.939  0.00  0.00    +0.037 A 
ATOM     18  C   UNL     1       3.110   0.949  22.634  0.00  0.00    +0.016 A 
ATOM     19  C   UNL     1       3.277  -1.282  23.544  0.00  0.00    +0.016 A 
ATOM     21  C   UNL     1       4.455   1.172  22.933  0.00  0.00    +0.046 A 
ATOM     22  C   UNL     1       4.621  -1.060  23.844  0.00  0.00    +0.046 A 
ATOM     23  C   UNL     1       5.209   0.168  23.538  0.00  0.00    +0.120 A 
BRANCH  23   4
ATOM      4  O   UNL     1       6.522   0.384  23.831  0.00  0.00    -0.495 OA
ATOM     24  C   UNL     1       7.482  -0.392  23.116  0.00  0.00    +0.277 C 
ENDBRANCH  23   4
ENDBRANCH  15  16
ENDBRANCH   8   6
BRANCH   9   1
ATOM      1  O   UNL     1      -1.345  -2.698  25.097  0.00  0.00    -0.390 OA
ATOM     26  H   UNL     1      -0.539  -2.838  24.571  0.00  0.00    +0.210 HD
ENDBRANCH   9   1
BRANCH   7  17
ATOM     17  C   UNL     1      -1.132   4.268  25.788  0.00  0.00    +0.102 C 
ATOM     20  C   UNL     1      -1.280   5.540  24.981  0.00  0.00    +0.024 C 
ENDBRANCH   7  17
TORSDOF 5
ENDMDL
MODEL 2
REMARK VINA RESULT:      -0.7      1.822      2.728
REMARK  Name = 26742073
REMARK  7 active torsions:
REMARK  status: ('A' for Active; 'I' for Inactive)
REMARK    1  A    between atoms: O_1  and  C_9
REMARK    2  A    between atoms: O_4  and  C_23
REMARK    3  A    between atoms: O_4  and  C_24
REMARK    4  A    between atoms: N_6  and  C_8
REMARK    5  A    between atoms: N_7  and  C_17
REMARK    6  A    between atoms: C_15  and  C_16
REMARK    7  A    between atoms: C_17  and  C_20
REMARK                            x       y       z     vdW  Elec       q    Type
REMARK                         _______ _______ _______ _____ _____    ______ ____
ROOT
ATOM      2  O   UNL     1      -2.185   3.530  23.386  0.00  0.00    -0.253 OA
ATOM      5  N   UNL     1      -4.266   2.877  24.182  0.00  0.00    -0.284 N 
ATOM      7  N   UNL     1      -3.065   4.643  25.193  0.00  0.00    -0.300 N 
ATOM      8  C   UNL     1      -3.727   0.468  23.742  0.00  0.00    +0.119 C 
ATOM      9  C   UNL     1      -3.870   0.174  25.248  0.00  0.00    +0.136 C 
ATOM     10  C   UNL     1      -5.213   0.563  25.878  0.00  0.00    +0.035 C 
ATOM     11  C   UNL     1      -4.359   1.770  23.231  0.00  0.00    +0.134 C 
ATOM     12  C   UNL     1      -5.288   2.037  26.285  0.00  0.00    +0.022 C 
ATOM     13  C   UNL     1      -5.394   3.000  25.111  0.00  0.00    +0.109 C 
ATOM     14  C   UNL     1      -3.108   3.677  24.194  0.00  0.00    +0.302 C 
ATOM     27  H   UNL     1      -3.773   4.678  25.915  0.00  0.00    +0.150 HD
ENDROOT
BRANCH   8   6
ATOM      3  O   UNL     1      -1.500   0.951  25.491  0.00  0.00    -0.270 OA
ATOM      6  N   UNL     1      -2.320   0.425  23.386  0.00  0.00    -0.305 N 
ATOM     15  C   UNL     1      -1.319   0.675  24.307  0.00  0.00    +0.244 C 
ATOM     25  H   UNL     1      -2.096   0.213  22.421  0.00  0.00    +0.149 HD
BRANCH  15  16
ATOM     16  C   UNL     1       0.069   0.619  23.780  0.00  0.00    +0.037 A 
ATOM     18  C   UNL     1       0.952   1.669  24.027  0.00  0.00    +0.016 A 
ATOM     19  C   UNL     1       0.488  -0.483  23.036  0.00  0.00    +0.016 A 
ATOM     21  C   UNL     1       2.255   1.618  23.531  0.00  0.00    +0.046 A 
ATOM     22  C   UNL     1       1.791  -0.536  22.539  0.00  0.00    +0.046 A 
ATOM     23  C   UNL     1       2.674   0.516  22.787  0.00  0.00    +0.120 A 
BRANCH  23   4
ATOM      4  O   UNL     1       3.945   0.464  22.302  0.00  0.00    -0.495 OA
ATOM     24  C   UNL     1       4.989   0.215  23.241  0.00  0.00    +0.277 C 
ENDBRANCH  23   4
ENDBRANCH  15  16
ENDBRANCH   8   6
BRANCH   9   1
ATOM      1  O   UNL     1      -3.697  -1.241  25.408  0.00  0.00    -0.390 OA
ATOM     26  H   UNL     1      -4.417  -1.562  25.978  0.00  0.00    +0.210 HD
ENDBRANCH   9   1
BRANCH   7  17
ATOM     17  C   UNL     1      -1.941   5.538  25.352  0.00  0.00    +0.102 C 
ATOM     20  C   UNL     1      -0.633   4.848  25.023  0.00  0.00    +0.024 C 
ENDBRANCH   7  17
TORSDOF 5
ENDMDL
MODEL 3
REMARK VINA RESULT:       0.4      2.027      4.359
REMARK  Name = 26742073
REMARK  7 active torsions:
REMARK  status: ('A' for Active; 'I' for Inactive)
REMARK    1  A    between atoms: O_1  and  C_9
REMARK    2  A    between atoms: O_4  and  C_23
REMARK    3  A    between atoms: O_4  and  C_24
REMARK    4  A    between atoms: N_6  and  C_8
REMARK    5  A    between atoms: N_7  and  C_17
REMARK    6  A    between atoms: C_15  and  C_16
REMARK    7  A    between atoms: C_17  and  C_20
REMARK                            x       y       z     vdW  Elec       q    Type
REMARK                         _______ _______ _______ _____ _____    ______ ____
ROOT
ATOM      2  O   UNL     1      -2.408  -0.496  25.247  0.00  0.00    -0.253 OA
ATOM      5  N   UNL     1      -4.111   1.028  25.659  0.00  0.00    -0.284 N 
ATOM      7  N   UNL     1      -4.477  -0.892  24.331  0.00  0.00    -0.300 N 
ATOM      8  C   UNL     1      -2.497   2.940  25.500  0.00  0.00    +0.119 C 
ATOM      9  C   UNL     1      -3.287   3.490  24.297  0.00  0.00    +0.136 C 
ATOM     10  C   UNL     1      -4.777   3.756  24.544  0.00  0.00    +0.035 C 
ATOM     11  C   UNL     1      -3.221   1.926  26.396  0.00  0.00    +0.134 C 
ATOM     12  C   UNL     1      -5.649   2.506  24.388  0.00  0.00    +0.022 C 
ATOM     13  C   UNL     1      -5.493   1.495  25.515  0.00  0.00    +0.109 C 
ATOM     14  C   UNL     1      -3.583  -0.148  25.093  0.00  0.00    +0.302 C 
ATOM     27  H   UNL     1      -5.402  -0.539  24.120  0.00  0.00    +0.150 HD
ENDROOT
BRANCH   8   6
ATOM      3  O   UNL     1      -2.019   1.756  22.928  0.00  0.00    -0.270 OA
ATOM      6  N   UNL     1      -1.246   2.378  25.023  0.00  0.00    -0.305 N 
ATOM     15  C   UNL     1      -1.119   1.828  23.761  0.00  0.00    +0.244 C 
ATOM     25  H   UNL     1      -0.461   2.394  25.665  0.00  0.00    +0.149 HD
BRANCH  15  16
ATOM     16  C   UNL     1       0.218   1.270  23.434  0.00  0.00    +0.037 A 
ATOM     18  C   UNL     1       1.367   2.022  23.679  0.00  0.00    +0.016 A 
ATOM     19  C   UNL     1       0.326  -0.006  22.881  0.00  0.00    +0.016 A 
ATOM     21  C   UNL     1       2.623   1.499  23.372  0.00  0.00    +0.046 A 
ATOM     22  C   UNL     1       1.581  -0.530  22.573  0.00  0.00    +0.046 A 
ATOM     23  C   UNL     1       2.730   0.223  22.818  0.00  0.00    +0.120 A 
BRANCH  23   4
ATOM      4  O   UNL     1       3.955  -0.289  22.517  0.00  0.00    -0.495 OA
ATOM     24  C   UNL     1       5.051   0.129  23.329  0.00  0.00    +0.277 C 
ENDBRANCH  23   4
ENDBRANCH  15  16
ENDBRANCH   8   6
BRANCH   9   1
ATOM      1  O   UNL     1      -2.669   4.734  23.934  0.00  0.00    -0.390 OA
ATOM     26  H   UNL     1      -3.376   5.394  23.834  0.00  0.00    +0.210 HD
ENDBRANCH   9   1
BRANCH   7  17
ATOM     17  C   UNL     1      -4.092  -2.118  23.670  0.00  0.00    +0.102 C 
ATOM     20  C   UNL     1      -3.525  -3.122  24.652  0.00  0.00    +0.024 C 
ENDBRANCH   7  17
TORSDOF 5
ENDMDL
MODEL 4
REMARK VINA RESULT:       2.6      3.605      7.293
REMARK  Name = 26742073
REMARK  7 active torsions:
REMARK  status: ('A' for Active; 'I' for Inactive)
REMARK    1  A    between atoms: O_1  and  C_9
REMARK    2  A    between atoms: O_4  and  C_23
REMARK    3  A    between atoms: O_4  and  C_24
REMARK    4  A    between atoms: N_6  and  C_8
REMARK    5  A    between atoms: N_7  and  C_17
REMARK    6  A    between atoms: C_15  and  C_16
REMARK    7  A    between atoms: C_17  and  C_20
REMARK                            x       y       z     vdW  Elec       q    Type
REMARK                         _______ _______ _______ _____ _____    ______ ____
ROOT
ATOM      2  O   UNL     1      -1.147   0.949  25.884  0.00  0.00    -0.253 OA
ATOM      5  N   UNL     1      -0.856  -1.309  25.431  0.00  0.00    -0.284 N 
ATOM      7  N   UNL     1       0.404   0.341  24.301  0.00  0.00    -0.300 N 
ATOM      8  C   UNL     1      -3.318  -1.720  25.674  0.00  0.00    +0.119 C 
ATOM      9  C   UNL     1      -3.373  -2.179  24.204  0.00  0.00    +0.136 C 
ATOM     10  C   UNL     1      -2.431  -3.330  23.830  0.00  0.00    +0.035 C 
ATOM     11  C   UNL     1      -1.934  -1.700  26.338  0.00  0.00    +0.134 C 
ATOM     12  C   UNL     1      -1.008  -2.867  23.502  0.00  0.00    +0.022 C 
ATOM     13  C   UNL     1      -0.209  -2.413  24.715  0.00  0.00    +0.109 C 
ATOM     14  C   UNL     1      -0.570   0.057  25.253  0.00  0.00    +0.302 C 
ATOM     27  H   UNL     1       0.785  -0.389  23.714  0.00  0.00    +0.150 HD
ENDROOT
BRANCH   8   6
ATOM      3  O   UNL     1      -3.499   0.267  23.608  0.00  0.00    -0.270 OA
ATOM      6  N   UNL     1      -3.939  -0.412  25.781  0.00  0.00    -0.305 N 
ATOM     15  C   UNL     1      -3.973   0.477  24.722  0.00  0.00    +0.244 C 
ATOM     25  H   UNL     1      -4.343  -0.167  26.678  0.00  0.00    +0.149 HD
BRANCH  15  16
ATOM     16  C   UNL     1      -4.621   1.784  25.000  0.00  0.00    +0.037 A 
ATOM     18  C   UNL     1      -3.956   2.971  24.695  0.00  0.00    +0.016 A 
ATOM     19  C   UNL     1      -5.894   1.826  25.568  0.00  0.00    +0.016 A 
ATOM     21  C   UNL     1      -4.563   4.200  24.957  0.00  0.00    +0.046 A 
ATOM     22  C   UNL     1      -6.502   3.053  25.830  0.00  0.00    +0.046 A 
ATOM     23  C   UNL     1      -5.836   4.240  25.525  0.00  0.00    +0.120 A 
BRANCH  23   4
ATOM      4  O   UNL     1      -6.430   5.438  25.782  0.00  0.00    -0.495 OA
ATOM     24  C   UNL     1      -6.641   6.309  24.672  0.00  0.00    +0.277 C 
ENDBRANCH  23   4
ENDBRANCH  15  16
ENDBRANCH   8   6
BRANCH   9   1
ATOM      1  O   UNL     1      -4.720  -2.610  23.959  0.00  0.00    -0.390 OA
ATOM     26  H   UNL     1      -5.205  -1.855  23.585  0.00  0.00    +0.210 HD
ENDBRANCH   9   1
BRANCH   7  17
ATOM     17  C   UNL     1       0.805   1.694  23.988  0.00  0.00    +0.102 C 
ATOM     20  C   UNL     1      -0.396   2.600  23.809  0.00  0.00    +0.024 C 
ENDBRANCH   7  17
TORSDOF 5
ENDMDL
MODEL 5
REMARK VINA RESULT:       3.1      3.854      6.398
REMARK  Name = 26742073
REMARK  7 active torsions:
REMARK  status: ('A' for Active; 'I' for Inactive)
REMARK    1  A    between atoms: O_1  and  C_9
REMARK    2  A    between atoms: O_4  and  C_23
REMARK    3  A    between atoms: O_4  and  C_24
REMARK    4  A    between atoms: N_6  and  C_8
REMARK    5  A    between atoms: N_7  and  C_17
REMARK    6  A    between atoms: C_15  and  C_16
REMARK    7  A    between atoms: C_17  and  C_20
REMARK                            x       y       z     vdW  Elec       q    Type
REMARK                         _______ _______ _______ _____ _____    ______ ____
ROOT
ATOM      2  O   UNL     1      -3.818   2.425  26.276  0.00  0.00    -0.253 OA
ATOM      5  N   UNL     1      -2.353   4.217  26.105  0.00  0.00    -0.284 N 
ATOM      7  N   UNL     1      -4.581   4.377  25.334  0.00  0.00    -0.300 N 
ATOM      8  C   UNL     1      -0.456   2.670  25.559  0.00  0.00    +0.119 C 
ATOM      9  C   UNL     1      -0.306   3.359  24.189  0.00  0.00    +0.136 C 
ATOM     10  C   UNL     1      -0.080   4.875  24.227  0.00  0.00    +0.035 C 
ATOM     11  C   UNL     1      -1.233   3.440  26.636  0.00  0.00    +0.134 C 
ATOM     12  C   UNL     1      -1.378   5.679  24.349  0.00  0.00    +0.022 C 
ATOM     13  C   UNL     1      -2.032   5.595  25.721  0.00  0.00    +0.109 C 
ATOM     14  C   UNL     1      -3.602   3.592  25.933  0.00  0.00    +0.302 C 
ATOM     27  H   UNL     1      -4.358   5.289  24.957  0.00  0.00    +0.150 HD
ENDROOT
BRANCH   8   6
ATOM      3  O   UNL     1      -2.177   1.867  23.405  0.00  0.00    -0.270 OA
ATOM      6  N   UNL     1      -1.045   1.358  25.364  0.00  0.00    -0.305 N 
ATOM     15  C   UNL     1      -1.865   1.071  24.288  0.00  0.00    +0.244 C 
ATOM     25  H   UNL     1      -0.839   0.652  26.062  0.00  0.00    +0.149 HD
BRANCH  15  16
ATOM     16  C   UNL     1      -2.411  -0.310  24.245  0.00  0.00    +0.037 A 
ATOM     18  C   UNL     1      -3.753  -0.520  23.928  0.00  0.00    +0.016 A 
ATOM     19  C   UNL     1      -1.583  -1.396  24.524  0.00  0.00    +0.016 A 
ATOM     21  C   UNL     1      -4.267  -1.817  23.890  0.00  0.00    +0.046 A 
ATOM     22  C   UNL     1      -2.095  -2.693  24.485  0.00  0.00    +0.046 A 
ATOM     23  C   UNL     1      -3.437  -2.903  24.168  0.00  0.00    +0.120 A 
BRANCH  23   4
ATOM      4  O   UNL     1      -3.937  -4.169  24.131  0.00  0.00    -0.495 OA
ATOM     24  C   UNL     1      -5.035  -4.408  23.252  0.00  0.00    +0.277 C 
ENDBRANCH  23   4
ENDBRANCH  15  16
ENDBRANCH   8   6
BRANCH   9   1
ATOM      1  O   UNL     1       0.829   2.756  23.549  0.00  0.00    -0.390 OA
ATOM     26  H   UNL     1       0.722   2.876  22.590  0.00  0.00    +0.210 HD
ENDBRANCH   9   1
BRANCH   7  17
ATOM     17  C   UNL     1      -5.913   3.881  25.073  0.00  0.00    +0.102 C 
ATOM     20  C   UNL     1      -5.917   2.379  24.876  0.00  0.00    +0.024 C 
ENDBRANCH   7  17
TORSDOF 5
ENDMDL
