MODEL 1
REMARK VINA RESULT:      -2.3      0.000      0.000
REMARK  Name = 75537144
REMARK  8 active torsions:
REMARK  status: ('A' for Active; 'I' for Inactive)
REMARK    1  A    between atoms: S_1  and  C_23
REMARK    2  A    between atoms: S_1  and  C_25
REMARK    3  A    between atoms: O_3  and  C_18
REMARK    4  A    between atoms: O_3  and  C_24
REMARK    5  A    between atoms: N_7  and  C_15
REMARK    6  A    between atoms: N_8  and  C_16
REMARK    7  A    between atoms: C_15  and  C_17
REMARK    8  A    between atoms: C_16  and  C_18
REMARK                            x       y       z     vdW  Elec       q    Type
REMARK                         _______ _______ _______ _____ _____    ______ ____
ROOT
ATOM      2  O   UNL     1      14.564  -9.770  30.851  0.00  0.00    -0.252 OA
ATOM      6  N   UNL     1      14.965  -8.497  28.917  0.00  0.00    -0.278 N 
ATOM      7  N   UNL     1      16.104  -7.747  26.458  0.00  0.00    -0.295 NA
ATOM      8  N   UNL     1      14.783  -7.421  30.880  0.00  0.00    -0.281 N 
ATOM      9  C   UNL     1      15.021  -7.093  28.569  0.00  0.00    +0.109 C 
ATOM     10  C   UNL     1      16.183  -6.829  27.611  0.00  0.00    +0.109 C 
ATOM     11  C   UNL     1      15.128  -6.388  29.919  0.00  0.00    +0.133 C 
ATOM     12  C   UNL     1      15.032  -9.492  27.866  0.00  0.00    +0.125 C 
ATOM     13  C   UNL     1      16.169  -9.155  26.900  0.00  0.00    +0.104 C 
ATOM     14  C   UNL     1      14.743  -8.698  30.286  0.00  0.00    +0.305 C 
ENDROOT
BRANCH   7  15
ATOM     15  C   UNL     1      17.178  -7.462  25.506  0.00  0.00    +0.119 C 
BRANCH  15  17
ATOM     17  C   UNL     1      16.999  -6.121  24.845  0.00  0.00    -0.033 A 
ATOM     19  C   UNL     1      16.889  -6.035  23.458  0.00  0.00    +0.007 A 
ATOM     20  C   UNL     1      16.945  -4.963  25.622  0.00  0.00    +0.007 A 
ATOM     21  C   UNL     1      16.723  -4.792  22.846  0.00  0.00    +0.027 A 
ATOM     22  C   UNL     1      16.780  -3.720  25.011  0.00  0.00    +0.027 A 
ATOM     23  C   UNL     1      16.669  -3.635  23.623  0.00  0.00    +0.088 A 
BRANCH  23   1
ATOM      1  S   UNL     1      16.458  -2.080  22.857  0.00  0.00    -0.006 S 
ATOM      4  O   UNL     1      16.444  -1.047  23.884  0.00  0.00    -0.170 OA
ATOM      5  O   UNL     1      17.405  -1.991  21.755  0.00  0.00    -0.170 OA
ATOM     25  C   UNL     1      14.820  -2.146  22.166  0.00  0.00    +0.200 C 
ENDBRANCH  23   1
ENDBRANCH  15  17
ENDBRANCH   7  15
BRANCH   8  16
ATOM     16  C   UNL     1      14.657  -7.143  32.293  0.00  0.00    +0.137 C 
BRANCH  16  18
ATOM     18  C   UNL     1      13.686  -6.006  32.555  0.00  0.00    +0.178 C 
BRANCH  18   3
ATOM      3  O   UNL     1      12.420  -6.328  31.993  0.00  0.00    -0.381 OA
ATOM     24  C   UNL     1      11.380  -5.556  32.575  0.00  0.00    +0.194 C 
ENDBRANCH  18   3
ENDBRANCH  16  18
ENDBRANCH   8  16
TORSDOF 6
ENDMDL
MODEL 2
REMARK VINA RESULT:       0.7     25.006     27.205
REMARK  Name = 75537144
REMARK  8 active torsions:
REMARK  status: ('A' for Active; 'I' for Inactive)
REMARK    1  A    between atoms: S_1  and  C_23
REMARK    2  A    between atoms: S_1  and  C_25
REMARK    3  A    between atoms: O_3  and  C_18
REMARK    4  A    between atoms: O_3  and  C_24
REMARK    5  A    between atoms: N_7  and  C_15
REMARK    6  A    between atoms: N_8  and  C_16
REMARK    7  A    between atoms: C_15  and  C_17
REMARK    8  A    between atoms: C_16  and  C_18
REMARK                            x       y       z     vdW  Elec       q    Type
REMARK                         _______ _______ _______ _____ _____    ______ ____
ROOT
ATOM      2  O   UNL     1      -9.248  -8.356  11.211  0.00  0.00    -0.252 OA
ATOM      6  N   UNL     1      -7.457  -9.631  10.382  0.00  0.00    -0.278 N 
ATOM      7  N   UNL     1      -4.887 -10.764  10.238  0.00  0.00    -0.295 NA
ATOM      8  N   UNL     1      -8.632  -8.380   8.933  0.00  0.00    -0.281 N 
ATOM      9  C   UNL     1      -6.910  -9.967   9.084  0.00  0.00    +0.109 C 
ATOM     10  C   UNL     1      -5.382  -9.928   9.125  0.00  0.00    +0.109 C 
ATOM     11  C   UNL     1      -7.554  -8.949   8.145  0.00  0.00    +0.133 C 
ATOM     12  C   UNL     1      -6.935 -10.286  11.563  0.00  0.00    +0.125 C 
ATOM     13  C   UNL     1      -5.405 -10.277  11.532  0.00  0.00    +0.104 C 
ATOM     14  C   UNL     1      -8.538  -8.745  10.291  0.00  0.00    +0.305 C 
ENDROOT
BRANCH   7  15
ATOM     15  C   UNL     1      -3.424 -10.781  10.248  0.00  0.00    +0.119 C 
BRANCH  15  17
ATOM     17  C   UNL     1      -2.871 -10.577  11.634  0.00  0.00    -0.033 A 
ATOM     19  C   UNL     1      -3.718 -10.644  12.740  0.00  0.00    +0.007 A 
ATOM     20  C   UNL     1      -1.511 -10.321  11.810  0.00  0.00    +0.007 A 
ATOM     21  C   UNL     1      -3.205 -10.455  14.023  0.00  0.00    +0.027 A 
ATOM     22  C   UNL     1      -0.998 -10.132  13.094  0.00  0.00    +0.027 A 
ATOM     23  C   UNL     1      -1.845 -10.199  14.200  0.00  0.00    +0.088 A 
BRANCH  23   1
ATOM      1  S   UNL     1      -1.203  -9.966  15.807  0.00  0.00    -0.006 S 
ATOM      4  O   UNL     1       0.050 -10.700  15.925  0.00  0.00    -0.170 OA
ATOM      5  O   UNL     1      -1.237  -8.541  16.101  0.00  0.00    -0.170 OA
ATOM     25  C   UNL     1      -2.377 -10.772  16.873  0.00  0.00    +0.200 C 
ENDBRANCH  23   1
ENDBRANCH  15  17
ENDBRANCH   7  15
BRANCH   8  16
ATOM     16  C   UNL     1      -9.574  -7.436   8.374  0.00  0.00    +0.137 C 
BRANCH  16  18
ATOM     18  C   UNL     1      -9.528  -6.104   9.101  0.00  0.00    +0.178 C 
BRANCH  18   3
ATOM      3  O   UNL     1     -10.073  -5.092   8.265  0.00  0.00    -0.381 OA
ATOM     24  C   UNL     1     -10.479  -3.957   9.017  0.00  0.00    +0.194 C 
ENDBRANCH  18   3
ENDBRANCH  16  18
ENDBRANCH   8  16
TORSDOF 6
ENDMDL
