MODEL 1
REMARK VINA RESULT:      -0.0      0.000      0.000
REMARK  Name = 51137550
REMARK  7 active torsions:
REMARK  status: ('A' for Active; 'I' for Inactive)
REMARK    1  A    between atoms: N_3  and  C_8
REMARK    2  A    between atoms: N_7  and  C_26
REMARK    3  A    between atoms: N_7  and  C_27
REMARK    4  A    between atoms: N_7  and  C_28
REMARK    5  A    between atoms: C_10  and  C_17
REMARK    6  A    between atoms: C_18  and  C_19
REMARK    7  A    between atoms: C_20  and  C_21
REMARK                            x       y       z     vdW  Elec       q    Type
REMARK                         _______ _______ _______ _____ _____    ______ ____
ROOT
ATOM      3  N   UNL     1      -7.596  -9.451  12.163  0.00  0.00    -0.299 NA
ATOM      9  C   UNL     1      -6.186  -9.248  12.506  0.00  0.00    +0.097 C 
ATOM     10  C   UNL     1      -5.520  -9.096  11.131  0.00  0.00    +0.092 C 
ATOM     11  C   UNL     1      -7.580 -10.380  11.034  0.00  0.00    +0.085 C 
ATOM     12  C   UNL     1      -6.458  -9.833  10.160  0.00  0.00    +0.029 C 
ENDROOT
BRANCH   3   8
ATOM      2  O   UNL     1     -10.215  -8.357  17.618  0.00  0.00    -0.276 OA
ATOM      4  N   UNL     1      -9.228  -9.758  16.050  0.00  0.00    -0.302 N 
ATOM      8  C   UNL     1      -8.375  -9.957  13.290  0.00  0.00    +0.060 C 
ATOM     13  C   UNL     1      -7.444 -10.337  14.447  0.00  0.00    +0.038 C 
ATOM     14  C   UNL     1      -9.392  -8.901  13.743  0.00  0.00    +0.038 C 
ATOM     15  C   UNL     1      -8.244 -10.780  15.673  0.00  0.00    +0.109 C 
ATOM     16  C   UNL     1     -10.153  -9.374  14.981  0.00  0.00    +0.109 C 
ATOM     18  C   UNL     1      -9.355  -9.189  17.316  0.00  0.00    +0.212 C 
ATOM     19  C   UNL     1      -8.363  -9.634  18.360  0.00  0.00    +0.109 C 
ENDBRANCH   3   8
BRANCH  10  17
ATOM      1  O   UNL     1      -3.122  -8.642  11.348  0.00  0.00    -0.420 OA
ATOM      5  N   UNL     1      -3.611 -10.781  10.908  0.00  0.00    -0.112 NA
ATOM      6  N   UNL     1      -2.236 -10.668  11.005  0.00  0.00    -0.107 NA
ATOM     17  C   UNL     1      -4.086  -9.575  11.116  0.00  0.00    +0.222 A 
ATOM     20  C   UNL     1      -1.998  -9.403  11.262  0.00  0.00    +0.248 A 
BRANCH  20  21
ATOM     21  C   UNL     1      -0.757  -8.713  11.464  0.00  0.00    +0.039 A 
ATOM     22  C   UNL     1      -0.634  -7.788  12.500  0.00  0.00    +0.015 A 
ATOM     23  C   UNL     1       0.328  -8.968  10.625  0.00  0.00    +0.015 A 
ATOM     24  C   UNL     1       0.573  -7.118  12.698  0.00  0.00    +0.024 A 
ATOM     25  C   UNL     1       1.535  -8.298  10.822  0.00  0.00    +0.024 A 
ATOM     26  C   UNL     1       1.658  -7.372  11.858  0.00  0.00    +0.029 A 
BRANCH  26   7
ATOM      7  N   UNL     1       2.878  -6.693  12.057  0.00  0.00    -0.336 N 
ATOM     27  C   UNL     1       4.128  -7.426  12.095  0.00  0.00    +0.129 C 
ATOM     28  C   UNL     1       2.897  -5.255  12.234  0.00  0.00    +0.129 C 
ENDBRANCH  26   7
ENDBRANCH  20  21
ENDBRANCH  10  17
TORSDOF 4
ENDMDL
