MODEL 1
REMARK VINA RESULT:       6.6      0.000      0.000
REMARK  Name = 51137858
REMARK  7 active torsions:
REMARK  status: ('A' for Active; 'I' for Inactive)
REMARK    1  A    between atoms: O_4  and  C_20
REMARK    2  A    between atoms: O_4  and  C_28
REMARK    3  A    between atoms: O_5  and  C_22
REMARK    4  A    between atoms: O_5  and  C_29
REMARK    5  A    between atoms: C_9  and  C_13
REMARK    6  A    between atoms: C_14  and  C_15
REMARK    7  A    between atoms: C_16  and  C_19
REMARK                            x       y       z     vdW  Elec       q    Type
REMARK                         _______ _______ _______ _____ _____    ______ ____
ROOT
ATOM      3  O   UNL     1      -3.608  -1.129  26.661  0.00  0.00    -0.270 OA
ATOM      6  N   UNL     1      -2.676  -0.593  24.602  0.00  0.00    -0.297 N 
ATOM      9  C   UNL     1      -1.165  -0.205  22.806  0.00  0.00    +0.095 C 
ATOM     10  C   UNL     1      -1.215  -1.708  23.122  0.00  0.00    +0.033 C 
ATOM     11  C   UNL     1      -2.455   0.301  23.465  0.00  0.00    +0.121 C 
ATOM     12  C   UNL     1      -1.822  -1.768  24.518  0.00  0.00    +0.109 C 
ATOM     14  C   UNL     1      -3.508  -0.380  25.690  0.00  0.00    +0.247 C 
ENDROOT
BRANCH  14  15
ATOM     15  C   UNL     1      -4.324   0.843  25.693  0.00  0.00    +0.041 A 
ATOM     17  C   UNL     1      -3.708   2.092  25.781  0.00  0.00    +0.062 A 
ATOM     18  C   UNL     1      -5.713   0.755  25.607  0.00  0.00    +0.017 A 
ATOM     20  C   UNL     1      -4.483   3.253  25.783  0.00  0.00    +0.162 A 
ATOM     21  C   UNL     1      -6.487   1.915  25.609  0.00  0.00    +0.050 A 
ATOM     22  C   UNL     1      -5.872   3.164  25.697  0.00  0.00    +0.162 A 
BRANCH  20   4
ATOM      4  O   UNL     1      -3.870   4.466  25.870  0.00  0.00    -0.491 OA
ATOM     28  C   UNL     1      -2.451   4.487  25.728  0.00  0.00    +0.277 C 
ENDBRANCH  20   4
BRANCH  22   5
ATOM      5  O   UNL     1      -6.638   4.290  25.699  0.00  0.00    -0.491 OA
ATOM     29  C   UNL     1      -6.115   5.430  25.018  0.00  0.00    +0.277 C 
ENDBRANCH  22   5
ENDBRANCH  14  15
BRANCH   9  13
ATOM      2  O   UNL     1       1.286  -0.220  22.953  0.00  0.00    -0.420 OA
ATOM      7  N   UNL     1       0.325   1.522  23.976  0.00  0.00    -0.112 NA
ATOM      8  N   UNL     1       1.694   1.635  24.134  0.00  0.00    -0.107 NA
ATOM     13  C   UNL     1       0.133   0.425  23.281  0.00  0.00    +0.222 A 
ATOM     16  C   UNL     1       2.214   0.598  23.522  0.00  0.00    +0.248 A 
BRANCH  16  19
ATOM      1 CL   UNL     1       7.886  -1.054  22.860  0.00  0.00    -0.084 Cl
ATOM     19  C   UNL     1       3.582   0.200  23.362  0.00  0.00    +0.039 A 
ATOM     23  C   UNL     1       4.005  -1.045  23.829  0.00  0.00    +0.014 A 
ATOM     24  C   UNL     1       4.490   1.057  22.740  0.00  0.00    +0.014 A 
ATOM     25  C   UNL     1       5.336  -1.432  23.674  0.00  0.00    +0.021 A 
ATOM     26  C   UNL     1       5.822   0.669  22.585  0.00  0.00    +0.021 A 
ATOM     27  C   UNL     1       6.244  -0.576  23.051  0.00  0.00    +0.041 A 
ENDBRANCH  16  19
ENDBRANCH   9  13
TORSDOF 5
ENDMDL
MODEL 2
REMARK VINA RESULT:       7.0      1.885      3.616
REMARK  Name = 51137858
REMARK  7 active torsions:
REMARK  status: ('A' for Active; 'I' for Inactive)
REMARK    1  A    between atoms: O_4  and  C_20
REMARK    2  A    between atoms: O_4  and  C_28
REMARK    3  A    between atoms: O_5  and  C_22
REMARK    4  A    between atoms: O_5  and  C_29
REMARK    5  A    between atoms: C_9  and  C_13
REMARK    6  A    between atoms: C_14  and  C_15
REMARK    7  A    between atoms: C_16  and  C_19
REMARK                            x       y       z     vdW  Elec       q    Type
REMARK                         _______ _______ _______ _____ _____    ______ ____
ROOT
ATOM      3  O   UNL     1      -3.854   4.750  23.102  0.00  0.00    -0.270 OA
ATOM      6  N   UNL     1      -2.163   3.965  24.487  0.00  0.00    -0.297 N 
ATOM      9  C   UNL     1      -0.122   3.078  25.330  0.00  0.00    +0.095 C 
ATOM     10  C   UNL     1       0.130   4.468  24.725  0.00  0.00    +0.033 C 
ATOM     11  C   UNL     1      -1.642   3.096  25.543  0.00  0.00    +0.121 C 
ATOM     12  C   UNL     1      -1.090   4.713  23.848  0.00  0.00    +0.109 C 
ATOM     14  C   UNL     1      -3.473   4.057  24.044  0.00  0.00    +0.247 C 
ENDROOT
BRANCH  14  15
ATOM     15  C   UNL     1      -4.486   3.253  24.744  0.00  0.00    +0.041 A 
ATOM     17  C   UNL     1      -4.524   1.870  24.566  0.00  0.00    +0.062 A 
ATOM     18  C   UNL     1      -5.408   3.873  25.587  0.00  0.00    +0.017 A 
ATOM     20  C   UNL     1      -5.484   1.107  25.231  0.00  0.00    +0.162 A 
ATOM     21  C   UNL     1      -6.368   3.111  26.252  0.00  0.00    +0.050 A 
ATOM     22  C   UNL     1      -6.406   1.728  26.074  0.00  0.00    +0.162 A 
BRANCH  20   4
ATOM      4  O   UNL     1      -5.511  -0.242  25.049  0.00  0.00    -0.491 OA
ATOM     28  C   UNL     1      -4.401  -0.827  24.369  0.00  0.00    +0.277 C 
ENDBRANCH  20   4
BRANCH  22   5
ATOM      5  O   UNL     1      -7.349   0.993  26.728  0.00  0.00    -0.491 OA
ATOM     29  C   UNL     1      -7.198   0.857  28.140  0.00  0.00    +0.277 C 
ENDBRANCH  22   5
ENDBRANCH  14  15
BRANCH   9  13
ATOM      2  O   UNL     1       1.774   1.783  24.460  0.00  0.00    -0.420 OA
ATOM      7  N   UNL     1      -0.210   1.149  23.644  0.00  0.00    -0.112 NA
ATOM      8  N   UNL     1       0.762   0.345  23.077  0.00  0.00    -0.107 NA
ATOM     13  C   UNL     1       0.426   1.973  24.444  0.00  0.00    +0.222 A 
ATOM     16  C   UNL     1       1.903   0.752  23.581  0.00  0.00    +0.248 A 
BRANCH  16  19
ATOM      1 CL   UNL     1       7.447  -1.179  22.640  0.00  0.00    -0.084 Cl
ATOM     19  C   UNL     1       3.241   0.285  23.354  0.00  0.00    +0.039 A 
ATOM     23  C   UNL     1       4.163   1.104  22.702  0.00  0.00    +0.014 A 
ATOM     24  C   UNL     1       3.619  -0.986  23.786  0.00  0.00    +0.014 A 
ATOM     25  C   UNL     1       5.463   0.651  22.481  0.00  0.00    +0.021 A 
ATOM     26  C   UNL     1       4.920  -1.439  23.565  0.00  0.00    +0.021 A 
ATOM     27  C   UNL     1       5.842  -0.620  22.913  0.00  0.00    +0.041 A 
ENDBRANCH  16  19
ENDBRANCH   9  13
TORSDOF 5
ENDMDL
MODEL 3
REMARK VINA RESULT:       8.1      1.839      2.786
REMARK  Name = 51137858
REMARK  7 active torsions:
REMARK  status: ('A' for Active; 'I' for Inactive)
REMARK    1  A    between atoms: O_4  and  C_20
REMARK    2  A    between atoms: O_4  and  C_28
REMARK    3  A    between atoms: O_5  and  C_22
REMARK    4  A    between atoms: O_5  and  C_29
REMARK    5  A    between atoms: C_9  and  C_13
REMARK    6  A    between atoms: C_14  and  C_15
REMARK    7  A    between atoms: C_16  and  C_19
REMARK                            x       y       z     vdW  Elec       q    Type
REMARK                         _______ _______ _______ _____ _____    ______ ____
ROOT
ATOM      3  O   UNL     1      -0.706   2.297  27.378  0.00  0.00    -0.270 OA
ATOM      6  N   UNL     1      -1.235   0.741  25.737  0.00  0.00    -0.297 N 
ATOM      9  C   UNL     1      -1.125  -0.942  24.059  0.00  0.00    +0.095 C 
ATOM     10  C   UNL     1      -0.735  -1.543  25.418  0.00  0.00    +0.033 C 
ATOM     11  C   UNL     1      -1.861   0.338  24.477  0.00  0.00    +0.121 C 
ATOM     12  C   UNL     1      -0.407  -0.328  26.275  0.00  0.00    +0.109 C 
ATOM     14  C   UNL     1      -1.309   1.980  26.354  0.00  0.00    +0.247 C 
ENDROOT
BRANCH  14  15
ATOM     15  C   UNL     1      -2.161   3.002  25.728  0.00  0.00    +0.041 A 
ATOM     17  C   UNL     1      -3.545   2.831  25.695  0.00  0.00    +0.062 A 
ATOM     18  C   UNL     1      -1.586   4.142  25.168  0.00  0.00    +0.017 A 
ATOM     20  C   UNL     1      -4.354   3.800  25.101  0.00  0.00    +0.162 A 
ATOM     21  C   UNL     1      -2.394   5.111  24.574  0.00  0.00    +0.050 A 
ATOM     22  C   UNL     1      -3.778   4.940  24.541  0.00  0.00    +0.162 A 
BRANCH  20   4
ATOM      4  O   UNL     1      -5.704   3.622  25.075  0.00  0.00    -0.491 OA
ATOM     28  C   UNL     1      -6.190   2.311  25.358  0.00  0.00    +0.277 C 
ENDBRANCH  20   4
BRANCH  22   5
ATOM      5  O   UNL     1      -4.558   5.894  23.959  0.00  0.00    -0.491 OA
ATOM     29  C   UNL     1      -4.122   6.406  22.700  0.00  0.00    +0.277 C 
ENDBRANCH  22   5
ENDBRANCH  14  15
BRANCH   9  13
ATOM      2  O   UNL     1       1.296  -0.654  23.766  0.00  0.00    -0.420 OA
ATOM      7  N   UNL     1       0.148  -0.706  21.847  0.00  0.00    -0.112 NA
ATOM      8  N   UNL     1       1.487  -0.541  21.540  0.00  0.00    -0.107 NA
ATOM     13  C   UNL     1       0.084  -0.767  23.156  0.00  0.00    +0.222 A 
ATOM     16  C   UNL     1       2.118  -0.515  22.690  0.00  0.00    +0.248 A 
BRANCH  16  19
ATOM      1 CL   UNL     1       7.905   0.100  23.902  0.00  0.00    -0.084 Cl
ATOM     19  C   UNL     1       3.514  -0.367  22.982  0.00  0.00    +0.039 A 
ATOM     23  C   UNL     1       4.173   0.818  22.656  0.00  0.00    +0.014 A 
ATOM     24  C   UNL     1       4.213  -1.408  23.594  0.00  0.00    +0.014 A 
ATOM     25  C   UNL     1       5.531   0.963  22.940  0.00  0.00    +0.021 A 
ATOM     26  C   UNL     1       5.572  -1.264  23.878  0.00  0.00    +0.021 A 
ATOM     27  C   UNL     1       6.230  -0.078  23.552  0.00  0.00    +0.041 A 
ENDBRANCH  16  19
ENDBRANCH   9  13
TORSDOF 5
ENDMDL
MODEL 4
REMARK VINA RESULT:       9.3      1.943      2.928
REMARK  Name = 51137858
REMARK  7 active torsions:
REMARK  status: ('A' for Active; 'I' for Inactive)
REMARK    1  A    between atoms: O_4  and  C_20
REMARK    2  A    between atoms: O_4  and  C_28
REMARK    3  A    between atoms: O_5  and  C_22
REMARK    4  A    between atoms: O_5  and  C_29
REMARK    5  A    between atoms: C_9  and  C_13
REMARK    6  A    between atoms: C_14  and  C_15
REMARK    7  A    between atoms: C_16  and  C_19
REMARK                            x       y       z     vdW  Elec       q    Type
REMARK                         _______ _______ _______ _____ _____    ______ ____
ROOT
ATOM      3  O   UNL     1      -5.079   1.499  26.624  0.00  0.00    -0.270 OA
ATOM      6  N   UNL     1      -4.104   0.555  24.739  0.00  0.00    -0.297 N 
ATOM      9  C   UNL     1      -2.868  -0.835  23.256  0.00  0.00    +0.095 C 
ATOM     10  C   UNL     1      -4.051  -1.625  23.837  0.00  0.00    +0.033 C 
ATOM     11  C   UNL     1      -3.293   0.616  23.523  0.00  0.00    +0.121 C 
ATOM     12  C   UNL     1      -4.463  -0.818  25.061  0.00  0.00    +0.109 C 
ATOM     14  C   UNL     1      -4.455   1.608  25.570  0.00  0.00    +0.247 C 
ENDROOT
BRANCH  14  15
ATOM     15  C   UNL     1      -4.035   2.959  25.169  0.00  0.00    +0.041 A 
ATOM     17  C   UNL     1      -2.702   3.345  25.305  0.00  0.00    +0.062 A 
ATOM     18  C   UNL     1      -4.970   3.854  24.651  0.00  0.00    +0.017 A 
ATOM     20  C   UNL     1      -2.304   4.627  24.924  0.00  0.00    +0.162 A 
ATOM     21  C   UNL     1      -4.574   5.135  24.269  0.00  0.00    +0.050 A 
ATOM     22  C   UNL     1      -3.240   5.521  24.406  0.00  0.00    +0.162 A 
BRANCH  20   4
ATOM      4  O   UNL     1      -1.000   4.992  25.062  0.00  0.00    -0.491 OA
ATOM     28  C   UNL     1      -0.014   4.014  24.734  0.00  0.00    +0.277 C 
ENDBRANCH  20   4
BRANCH  22   5
ATOM      5  O   UNL     1      -2.864   6.776  24.030  0.00  0.00    -0.491 OA
ATOM     29  C   UNL     1      -3.229   7.195  22.716  0.00  0.00    +0.277 C 
ENDBRANCH  22   5
ENDBRANCH  14  15
BRANCH   9  13
ATOM      2  O   UNL     1      -0.417  -0.717  23.347  0.00  0.00    -0.420 OA
ATOM      7  N   UNL     1      -1.315  -2.139  24.823  0.00  0.00    -0.112 NA
ATOM      8  N   UNL     1       0.059  -2.170  24.980  0.00  0.00    -0.107 NA
ATOM     13  C   UNL     1      -1.547  -1.278  23.859  0.00  0.00    +0.222 A 
ATOM     16  C   UNL     1       0.541  -1.326  24.099  0.00  0.00    +0.248 A 
BRANCH  16  19
ATOM      1 CL   UNL     1       6.153   0.227  22.903  0.00  0.00    -0.084 Cl
ATOM     19  C   UNL     1       1.895  -0.951  23.811  0.00  0.00    +0.039 A 
ATOM     23  C   UNL     1       2.163   0.265  23.182  0.00  0.00    +0.014 A 
ATOM     24  C   UNL     1       2.944  -1.802  24.159  0.00  0.00    +0.014 A 
ATOM     25  C   UNL     1       3.480   0.629  22.901  0.00  0.00    +0.021 A 
ATOM     26  C   UNL     1       4.261  -1.438  23.879  0.00  0.00    +0.021 A 
ATOM     27  C   UNL     1       4.529  -0.222  23.250  0.00  0.00    +0.041 A 
ENDBRANCH  16  19
ENDBRANCH   9  13
TORSDOF 5
ENDMDL
