MODEL 1
REMARK VINA RESULT:       7.8      0.000      0.000
REMARK  Name = 11884450
REMARK  7 active torsions:
REMARK  status: ('A' for Active; 'I' for Inactive)
REMARK    1  A    between atoms: S_1  and  N_7
REMARK    2  A    between atoms: S_1  and  C_22
REMARK    3  A    between atoms: O_6  and  C_35
REMARK    4  A    between atoms: O_6  and  C_36
REMARK    5  A    between atoms: N_9  and  C_20
REMARK    6  A    between atoms: C_23  and  C_29
REMARK    7  A    between atoms: C_27  and  C_30
REMARK                            x       y       z     vdW  Elec       q    Type
REMARK                         _______ _______ _______ _____ _____    ______ ____
ROOT
ATOM      4  O   UNL     1       0.449   2.235  26.504  0.00  0.00    -0.266 OA
ATOM      7  N   UNL     1      -4.412   2.637  25.486  0.00  0.00    -0.176 NA
ATOM      8  N   UNL     1      -1.357   3.437  25.636  0.00  0.00    -0.310 N 
ATOM     11  C   UNL     1      -3.322   4.223  27.077  0.00  0.00    +0.025 C 
ATOM     12  C   UNL     1      -3.305   4.709  24.670  0.00  0.00    +0.052 C 
ATOM     13  C   UNL     1      -3.443   5.342  26.052  0.00  0.00    +0.017 C 
ATOM     14  C   UNL     1      -4.434   3.181  26.873  0.00  0.00    +0.114 C 
ATOM     15  C   UNL     1      -4.453   3.708  24.445  0.00  0.00    +0.119 C 
ATOM     16  C   UNL     1      -1.920   3.608  26.982  0.00  0.00    +0.130 C 
ATOM     17  C   UNL     1      -1.963   4.018  24.518  0.00  0.00    +0.026 A 
ATOM     18  C   UNL     1      -1.370   3.946  23.314  0.00  0.00    +0.024 A 
ATOM     19  C   UNL     1      -0.130   2.749  25.546  0.00  0.00    +0.273 A 
ATOM     20  C   UNL     1       0.486   2.670  24.183  0.00  0.00    +0.099 A 
ATOM     21  C   UNL     1      -0.122   3.255  23.147  0.00  0.00    +0.030 A 
ENDROOT
BRANCH  20   9
ATOM      5  O   UNL     1       0.851   0.114  22.967  0.00  0.00    -0.270 OA
ATOM      9  N   UNL     1       1.668   2.002  24.052  0.00  0.00    -0.277 N 
ATOM     27  C   UNL     1       1.780   0.757  23.449  0.00  0.00    +0.248 C 
ATOM     37  H   UNL     1       2.508   2.558  24.187  0.00  0.00    +0.155 HD
BRANCH  27  30
ATOM     30  C   UNL     1       3.155   0.197  23.379  0.00  0.00    +0.037 A 
ATOM     31  C   UNL     1       4.188   1.016  22.973  0.00  0.00    +0.016 A 
ATOM     32  C   UNL     1       3.355  -1.123  23.724  0.00  0.00    +0.016 A 
ATOM     33  C   UNL     1       5.478   0.491  22.908  0.00  0.00    +0.046 A 
ATOM     34  C   UNL     1       4.646  -1.649  23.660  0.00  0.00    +0.046 A 
ATOM     35  C   UNL     1       5.707  -0.841  23.252  0.00  0.00    +0.120 A 
BRANCH  35   6
ATOM      6  O   UNL     1       6.967  -1.352  23.190  0.00  0.00    -0.495 OA
ATOM     36  C   UNL     1       8.028  -0.438  22.918  0.00  0.00    +0.277 C 
ENDBRANCH  35   6
ENDBRANCH  27  30
ENDBRANCH  20   9
BRANCH   7   1
ATOM      1  S   UNL     1      -5.429   1.290  25.202  0.00  0.00    +0.062 S 
ATOM      2  O   UNL     1      -6.059   1.438  23.908  0.00  0.00    -0.153 OA
ATOM      3  O   UNL     1      -6.217   1.036  26.390  0.00  0.00    -0.153 OA
BRANCH   1  22
ATOM     22  C   UNL     1      -4.219   0.011  25.071  0.00  0.00    +0.123 A 
ATOM     23  C   UNL     1      -3.292  -0.005  24.038  0.00  0.00    +0.078 A 
ATOM     24  C   UNL     1      -4.226  -0.986  26.039  0.00  0.00    +0.030 A 
ATOM     25  C   UNL     1      -2.355  -1.036  23.971  0.00  0.00    +0.021 A 
ATOM     26  C   UNL     1      -3.288  -2.017  25.972  0.00  0.00    +0.002 A 
ATOM     28  C   UNL     1      -2.354  -2.042  24.937  0.00  0.00    +0.001 A 
BRANCH  23  29
ATOM     10  N   UNL     1      -3.246   1.831  22.211  0.00  0.00    -0.191 NA
ATOM     29  C   UNL     1      -3.267   1.009  23.028  0.00  0.00    +0.101 C 
ENDBRANCH  23  29
ENDBRANCH   1  22
ENDBRANCH   7   1
TORSDOF 6
ENDMDL
MODEL 2
REMARK VINA RESULT:       9.6      1.336      1.852
REMARK  Name = 11884450
REMARK  7 active torsions:
REMARK  status: ('A' for Active; 'I' for Inactive)
REMARK    1  A    between atoms: S_1  and  N_7
REMARK    2  A    between atoms: S_1  and  C_22
REMARK    3  A    between atoms: O_6  and  C_35
REMARK    4  A    between atoms: O_6  and  C_36
REMARK    5  A    between atoms: N_9  and  C_20
REMARK    6  A    between atoms: C_23  and  C_29
REMARK    7  A    between atoms: C_27  and  C_30
REMARK                            x       y       z     vdW  Elec       q    Type
REMARK                         _______ _______ _______ _____ _____    ______ ____
ROOT
ATOM      4  O   UNL     1       0.423   2.760  25.723  0.00  0.00    -0.266 OA
ATOM      7  N   UNL     1      -4.435   1.843  25.106  0.00  0.00    -0.176 NA
ATOM      8  N   UNL     1      -1.563   3.025  24.519  0.00  0.00    -0.310 N 
ATOM     11  C   UNL     1      -3.632   4.175  25.495  0.00  0.00    +0.025 C 
ATOM     12  C   UNL     1      -3.700   3.275  23.210  0.00  0.00    +0.052 C 
ATOM     13  C   UNL     1      -3.944   4.529  24.047  0.00  0.00    +0.017 C 
ATOM     14  C   UNL     1      -4.550   3.042  25.983  0.00  0.00    +0.114 C 
ATOM     15  C   UNL     1      -4.659   2.160  23.663  0.00  0.00    +0.119 C 
ATOM     16  C   UNL     1      -2.146   3.815  25.612  0.00  0.00    +0.130 C 
ATOM     17  C   UNL     1      -2.259   2.813  23.326  0.00  0.00    +0.026 A 
ATOM     18  C   UNL     1      -1.664   2.186  22.298  0.00  0.00    +0.024 A 
ATOM     19  C   UNL     1      -0.236   2.583  24.697  0.00  0.00    +0.273 A 
ATOM     20  C   UNL     1       0.383   1.867  23.536  0.00  0.00    +0.099 A 
ATOM     21  C   UNL     1      -0.317   1.703  22.409  0.00  0.00    +0.030 A 
ENDROOT
BRANCH  20   9
ATOM      5  O   UNL     1       1.547  -0.334  22.141  0.00  0.00    -0.270 OA
ATOM      9  N   UNL     1       1.662   1.413  23.672  0.00  0.00    -0.277 N 
ATOM     27  C   UNL     1       2.170   0.333  22.963  0.00  0.00    +0.248 C 
ATOM     37  H   UNL     1       2.311   2.048  24.128  0.00  0.00    +0.155 HD
BRANCH  27  30
ATOM     30  C   UNL     1       3.593  -0.000  23.230  0.00  0.00    +0.037 A 
ATOM     31  C   UNL     1       3.906  -1.263  23.691  0.00  0.00    +0.016 A 
ATOM     32  C   UNL     1       4.557   0.961  23.007  0.00  0.00    +0.016 A 
ATOM     33  C   UNL     1       5.241  -1.576  23.941  0.00  0.00    +0.046 A 
ATOM     34  C   UNL     1       5.893   0.647  23.257  0.00  0.00    +0.046 A 
ATOM     35  C   UNL     1       6.235  -0.622  23.724  0.00  0.00    +0.120 A 
BRANCH  35   6
ATOM      6  O   UNL     1       7.538  -0.930  23.966  0.00  0.00    -0.495 OA
ATOM     36  C   UNL     1       8.523  -0.251  23.190  0.00  0.00    +0.277 C 
ENDBRANCH  35   6
ENDBRANCH  27  30
ENDBRANCH  20   9
BRANCH   7   1
ATOM      1  S   UNL     1      -5.207   0.428  25.681  0.00  0.00    +0.062 S 
ATOM      2  O   UNL     1      -6.536   0.350  25.114  0.00  0.00    -0.153 OA
ATOM      3  O   UNL     1      -4.999   0.325  27.110  0.00  0.00    -0.153 OA
BRANCH   1  22
ATOM     22  C   UNL     1      -4.214  -0.805  24.899  0.00  0.00    +0.123 A 
ATOM     23  C   UNL     1      -2.852  -0.901  25.146  0.00  0.00    +0.078 A 
ATOM     24  C   UNL     1      -4.843  -1.679  24.022  0.00  0.00    +0.030 A 
ATOM     25  C   UNL     1      -2.105  -1.890  24.506  0.00  0.00    +0.021 A 
ATOM     26  C   UNL     1      -4.096  -2.668  23.381  0.00  0.00    +0.002 A 
ATOM     28  C   UNL     1      -2.726  -2.772  23.623  0.00  0.00    +0.001 A 
BRANCH  23  29
ATOM     10  N   UNL     1      -1.638   0.712  26.770  0.00  0.00    -0.191 NA
ATOM     29  C   UNL     1      -2.181  -0.010  26.044  0.00  0.00    +0.101 C 
ENDBRANCH  23  29
ENDBRANCH   1  22
ENDBRANCH   7   1
TORSDOF 6
ENDMDL
MODEL 3
REMARK VINA RESULT:      11.1      1.769      4.239
REMARK  Name = 11884450
REMARK  7 active torsions:
REMARK  status: ('A' for Active; 'I' for Inactive)
REMARK    1  A    between atoms: S_1  and  N_7
REMARK    2  A    between atoms: S_1  and  C_22
REMARK    3  A    between atoms: O_6  and  C_35
REMARK    4  A    between atoms: O_6  and  C_36
REMARK    5  A    between atoms: N_9  and  C_20
REMARK    6  A    between atoms: C_23  and  C_29
REMARK    7  A    between atoms: C_27  and  C_30
REMARK                            x       y       z     vdW  Elec       q    Type
REMARK                         _______ _______ _______ _____ _____    ______ ____
ROOT
ATOM      4  O   UNL     1      -0.456   0.540  22.397  0.00  0.00    -0.266 OA
ATOM      7  N   UNL     1      -4.007   2.273  25.431  0.00  0.00    -0.176 NA
ATOM      8  N   UNL     1      -2.275   0.177  23.819  0.00  0.00    -0.310 N 
ATOM     11  C   UNL     1      -4.621   1.078  23.327  0.00  0.00    +0.025 C 
ATOM     12  C   UNL     1      -4.213  -0.205  25.381  0.00  0.00    +0.052 C 
ATOM     13  C   UNL     1      -5.096  -0.119  24.139  0.00  0.00    +0.017 C 
ATOM     14  C   UNL     1      -4.753   2.372  24.144  0.00  0.00    +0.114 C 
ATOM     15  C   UNL     1      -4.390   1.069  26.228  0.00  0.00    +0.119 C 
ATOM     16  C   UNL     1      -3.182   0.824  22.861  0.00  0.00    +0.130 C 
ATOM     17  C   UNL     1      -2.755  -0.390  25.003  0.00  0.00    +0.026 A 
ATOM     18  C   UNL     1      -1.928  -1.075  25.809  0.00  0.00    +0.024 A 
ATOM     19  C   UNL     1      -0.921   0.071  23.436  0.00  0.00    +0.273 A 
ATOM     20  C   UNL     1      -0.027  -0.680  24.374  0.00  0.00    +0.099 A 
ATOM     21  C   UNL     1      -0.536  -1.220  25.486  0.00  0.00    +0.030 A 
ENDROOT
BRANCH  20   9
ATOM      5  O   UNL     1       1.756   1.468  23.781  0.00  0.00    -0.270 OA
ATOM      9  N   UNL     1       1.292  -0.796  24.045  0.00  0.00    -0.277 N 
ATOM     27  C   UNL     1       2.108   0.291  23.767  0.00  0.00    +0.248 C 
ATOM     37  H   UNL     1       1.723  -1.692  24.256  0.00  0.00    +0.155 HD
BRANCH  27  30
ATOM     30  C   UNL     1       3.524  -0.031  23.451  0.00  0.00    +0.037 A 
ATOM     31  C   UNL     1       4.268   0.878  22.727  0.00  0.00    +0.016 A 
ATOM     32  C   UNL     1       4.050  -1.227  23.891  0.00  0.00    +0.016 A 
ATOM     33  C   UNL     1       5.596   0.576  22.430  0.00  0.00    +0.046 A 
ATOM     34  C   UNL     1       5.380  -1.530  23.594  0.00  0.00    +0.046 A 
ATOM     35  C   UNL     1       6.153  -0.628  22.865  0.00  0.00    +0.120 A 
BRANCH  35   6
ATOM      6  O   UNL     1       7.450  -0.921  22.576  0.00  0.00    -0.495 OA
ATOM     36  C   UNL     1       8.451  -0.099  23.173  0.00  0.00    +0.277 C 
ENDBRANCH  35   6
ENDBRANCH  27  30
ENDBRANCH  20   9
BRANCH   7   1
ATOM      1  S   UNL     1      -3.861   3.730  26.317  0.00  0.00    +0.062 S 
ATOM      2  O   UNL     1      -3.392   3.426  27.652  0.00  0.00    -0.153 OA
ATOM      3  O   UNL     1      -5.049   4.530  26.108  0.00  0.00    -0.153 OA
BRANCH   1  22
ATOM     22  C   UNL     1      -2.533   4.493  25.439  0.00  0.00    +0.123 A 
ATOM     23  C   UNL     1      -1.258   3.946  25.437  0.00  0.00    +0.078 A 
ATOM     24  C   UNL     1      -2.806   5.667  24.749  0.00  0.00    +0.030 A 
ATOM     25  C   UNL     1      -0.236   4.583  24.732  0.00  0.00    +0.021 A 
ATOM     26  C   UNL     1      -1.785   6.305  24.044  0.00  0.00    +0.002 A 
ATOM     28  C   UNL     1      -0.500   5.762  24.036  0.00  0.00    +0.001 A 
BRANCH  23  29
ATOM     10  N   UNL     1      -0.702   1.761  26.715  0.00  0.00    -0.191 NA
ATOM     29  C   UNL     1      -0.951   2.738  26.143  0.00  0.00    +0.101 C 
ENDBRANCH  23  29
ENDBRANCH   1  22
ENDBRANCH   7   1
TORSDOF 6
ENDMDL
MODEL 4
REMARK VINA RESULT:      11.2      1.640      4.071
REMARK  Name = 11884450
REMARK  7 active torsions:
REMARK  status: ('A' for Active; 'I' for Inactive)
REMARK    1  A    between atoms: S_1  and  N_7
REMARK    2  A    between atoms: S_1  and  C_22
REMARK    3  A    between atoms: O_6  and  C_35
REMARK    4  A    between atoms: O_6  and  C_36
REMARK    5  A    between atoms: N_9  and  C_20
REMARK    6  A    between atoms: C_23  and  C_29
REMARK    7  A    between atoms: C_27  and  C_30
REMARK                            x       y       z     vdW  Elec       q    Type
REMARK                         _______ _______ _______ _____ _____    ______ ____
ROOT
ATOM      4  O   UNL     1      -0.471  -1.315  22.592  0.00  0.00    -0.266 OA
ATOM      7  N   UNL     1      -4.394   0.952  24.666  0.00  0.00    -0.176 NA
ATOM      8  N   UNL     1      -2.162  -1.239  24.204  0.00  0.00    -0.310 N 
ATOM     11  C   UNL     1      -4.652  -1.294  23.606  0.00  0.00    +0.025 C 
ATOM     12  C   UNL     1      -3.966  -1.129  25.959  0.00  0.00    +0.052 C 
ATOM     13  C   UNL     1      -4.822  -1.928  24.980  0.00  0.00    +0.017 C 
ATOM     14  C   UNL     1      -5.120   0.170  23.625  0.00  0.00    +0.114 C 
ATOM     15  C   UNL     1      -4.472   0.324  26.019  0.00  0.00    +0.119 C 
ATOM     16  C   UNL     1      -3.188  -1.435  23.170  0.00  0.00    +0.130 C 
ATOM     17  C   UNL     1      -2.503  -1.163  25.557  0.00  0.00    +0.026 A 
ATOM     18  C   UNL     1      -1.542  -1.099  26.494  0.00  0.00    +0.024 A 
ATOM     19  C   UNL     1      -0.820  -1.234  23.771  0.00  0.00    +0.273 A 
ATOM     20  C   UNL     1       0.220  -1.137  24.844  0.00  0.00    +0.099 A 
ATOM     21  C   UNL     1      -0.154  -1.084  26.126  0.00  0.00    +0.030 A 
ENDROOT
BRANCH  20   9
ATOM      5  O   UNL     1       1.520   0.938  23.379  0.00  0.00    -0.270 OA
ATOM      9  N   UNL     1       1.530  -1.118  24.465  0.00  0.00    -0.277 N 
ATOM     27  C   UNL     1       2.104  -0.076  23.751  0.00  0.00    +0.248 C 
ATOM     37  H   UNL     1       2.138  -1.779  24.941  0.00  0.00    +0.155 HD
BRANCH  27  30
ATOM     30  C   UNL     1       3.552  -0.223  23.449  0.00  0.00    +0.037 A 
ATOM     31  C   UNL     1       4.196   0.789  22.768  0.00  0.00    +0.016 A 
ATOM     32  C   UNL     1       4.206  -1.366  23.859  0.00  0.00    +0.016 A 
ATOM     33  C   UNL     1       5.554   0.652  22.484  0.00  0.00    +0.046 A 
ATOM     34  C   UNL     1       5.565  -1.504  23.575  0.00  0.00    +0.046 A 
ATOM     35  C   UNL     1       6.239  -0.495  22.888  0.00  0.00    +0.120 A 
BRANCH  35   6
ATOM      6  O   UNL     1       7.565  -0.627  22.613  0.00  0.00    -0.495 OA
ATOM     36  C   UNL     1       8.472   0.164  23.379  0.00  0.00    +0.277 C 
ENDBRANCH  35   6
ENDBRANCH  27  30
ENDBRANCH  20   9
BRANCH   7   1
ATOM      1  S   UNL     1      -4.634   2.645  24.622  0.00  0.00    +0.062 S 
ATOM      2  O   UNL     1      -5.383   3.048  25.794  0.00  0.00    -0.153 OA
ATOM      3  O   UNL     1      -5.068   3.026  23.294  0.00  0.00    -0.153 OA
BRANCH   1  22
ATOM     22  C   UNL     1      -2.971   3.199  24.827  0.00  0.00    +0.123 A 
ATOM     23  C   UNL     1      -1.993   2.918  23.885  0.00  0.00    +0.078 A 
ATOM     24  C   UNL     1      -2.670   3.928  25.971  0.00  0.00    +0.030 A 
ATOM     25  C   UNL     1      -0.690   3.373  24.087  0.00  0.00    +0.021 A 
ATOM     26  C   UNL     1      -1.367   4.384  26.174  0.00  0.00    +0.002 A 
ATOM     28  C   UNL     1      -0.377   4.105  25.232  0.00  0.00    +0.001 A 
BRANCH  23  29
ATOM     10  N   UNL     1      -2.509   1.559  21.740  0.00  0.00    -0.191 NA
ATOM     29  C   UNL     1      -2.278   2.166  22.700  0.00  0.00    +0.101 C 
ENDBRANCH  23  29
ENDBRANCH   1  22
ENDBRANCH   7   1
TORSDOF 6
ENDMDL
