MODEL 1
REMARK VINA RESULT:      -4.7      0.000      0.000
REMARK  Name = 45783486
REMARK  10 active torsions:
REMARK  status: ('A' for Active; 'I' for Inactive)
REMARK    1  A    between atoms: O_2  and  C_23
REMARK    2  A    between atoms: O_2  and  C_24
REMARK    3  A    between atoms: N_3  and  C_12
REMARK    4  A    between atoms: N_7  and  C_21
REMARK    5  A    between atoms: N_7  and  C_22
REMARK    6  A    between atoms: C_8  and  C_13
REMARK    7  A    between atoms: C_12  and  C_14
REMARK    8  A    between atoms: C_14  and  C_15
REMARK    9  A    between atoms: C_16  and  C_17
REMARK   10  A    between atoms: C_22  and  C_23
REMARK                            x       y       z     vdW  Elec       q    Type
REMARK                         _______ _______ _______ _____ _____    ______ ____
ROOT
ATOM      1  O   UNL     1      -3.010 -10.728  14.529  0.00  0.00    -0.336 OA
ATOM      4  N   UNL     1      -5.124 -10.502  13.827  0.00  0.00    -0.190 NA
ATOM      5  N   UNL     1      -3.799 -10.663  15.684  0.00  0.00    -0.056 NA
ATOM     13  C   UNL     1      -3.868 -10.626  13.481  0.00  0.00    +0.245 A 
ATOM     16  C   UNL     1      -5.033 -10.532  15.187  0.00  0.00    +0.204 A 
ENDROOT
BRANCH  16  17
ATOM      6  N   UNL     1      -7.149  -9.837  18.165  0.00  0.00    -0.240 NA
ATOM     17  C   UNL     1      -6.193 -10.424  16.023  0.00  0.00    +0.041 A 
ATOM     18  C   UNL     1      -7.453 -10.780  15.551  0.00  0.00    +0.016 A 
ATOM     19  C   UNL     1      -6.097  -9.961  17.325  0.00  0.00    +0.124 A 
ATOM     20  C   UNL     1      -8.559 -10.666  16.384  0.00  0.00    +0.044 A 
ATOM     21  C   UNL     1      -8.357 -10.193  17.670  0.00  0.00    +0.119 A 
BRANCH  21   7
ATOM      7  N   UNL     1      -9.494 -10.081  18.507  0.00  0.00    -0.327 N 
ATOM     25  H   UNL     1      -9.487 -10.633  19.357  0.00  0.00    +0.148 HD
BRANCH   7  22
ATOM     22  C   UNL     1     -10.606  -9.244  18.189  0.00  0.00    +0.131 C 
BRANCH  22  23
ATOM     23  C   UNL     1     -10.127  -7.998  17.463  0.00  0.00    +0.178 C 
BRANCH  23   2
ATOM      2  O   UNL     1     -10.657  -7.986  16.143  0.00  0.00    -0.381 OA
ATOM     24  C   UNL     1     -10.680  -6.672  15.604  0.00  0.00    +0.194 C 
ENDBRANCH  23   2
ENDBRANCH  22  23
ENDBRANCH   7  22
ENDBRANCH  21   7
ENDBRANCH  16  17
BRANCH  13   8
ATOM      3  N   UNL     1      -3.755  -9.594  11.219  0.00  0.00    -0.291 NA
ATOM      8  C   UNL     1      -3.252 -10.670  12.098  0.00  0.00    +0.146 C 
ATOM      9  C   UNL     1      -1.725 -10.476  12.120  0.00  0.00    +0.030 C 
ATOM     10  C   UNL     1      -2.677  -9.294  10.277  0.00  0.00    +0.085 C 
ATOM     11  C   UNL     1      -1.459  -9.310  11.178  0.00  0.00    +0.017 C 
BRANCH   3  12
ATOM     12  C   UNL     1      -4.996  -9.941  10.539  0.00  0.00    +0.085 C 
BRANCH  12  14
ATOM     14  C   UNL     1      -5.486  -8.765   9.698  0.00  0.00    +0.012 C 
ATOM     15  C   UNL     1      -6.085  -9.237   8.383  0.00  0.00    +0.005 C 
ENDBRANCH  12  14
ENDBRANCH   3  12
ENDBRANCH  13   8
TORSDOF 8
ENDMDL
MODEL 2
REMARK VINA RESULT:      -3.7      2.247      8.356
REMARK  Name = 45783486
REMARK  10 active torsions:
REMARK  status: ('A' for Active; 'I' for Inactive)
REMARK    1  A    between atoms: O_2  and  C_23
REMARK    2  A    between atoms: O_2  and  C_24
REMARK    3  A    between atoms: N_3  and  C_12
REMARK    4  A    between atoms: N_7  and  C_21
REMARK    5  A    between atoms: N_7  and  C_22
REMARK    6  A    between atoms: C_8  and  C_13
REMARK    7  A    between atoms: C_12  and  C_14
REMARK    8  A    between atoms: C_14  and  C_15
REMARK    9  A    between atoms: C_16  and  C_17
REMARK   10  A    between atoms: C_22  and  C_23
REMARK                            x       y       z     vdW  Elec       q    Type
REMARK                         _______ _______ _______ _____ _____    ______ ____
ROOT
ATOM      1  O   UNL     1      -9.354  -9.936  12.922  0.00  0.00    -0.336 OA
ATOM      4  N   UNL     1      -7.580  -9.636  14.255  0.00  0.00    -0.190 NA
ATOM      5  N   UNL     1      -8.226 -10.061  12.103  0.00  0.00    -0.056 NA
ATOM     13  C   UNL     1      -8.885  -9.687  14.172  0.00  0.00    +0.245 A 
ATOM     16  C   UNL     1      -7.219  -9.872  12.961  0.00  0.00    +0.204 A 
ENDROOT
BRANCH  16  17
ATOM      6  N   UNL     1      -3.541 -10.398  13.111  0.00  0.00    -0.240 NA
ATOM     17  C   UNL     1      -5.843  -9.911  12.558  0.00  0.00    +0.041 A 
ATOM     18  C   UNL     1      -5.460  -9.518  11.279  0.00  0.00    +0.016 A 
ATOM     19  C   UNL     1      -4.854 -10.339  13.428  0.00  0.00    +0.124 A 
ATOM     20  C   UNL     1      -4.119  -9.565  10.917  0.00  0.00    +0.044 A 
ATOM     21  C   UNL     1      -3.207 -10.009  11.860  0.00  0.00    +0.119 A 
BRANCH  21   7
ATOM      7  N   UNL     1      -1.844 -10.053  11.475  0.00  0.00    -0.327 N 
ATOM     25  H   UNL     1      -1.331 -10.892  11.720  0.00  0.00    +0.148 HD
BRANCH   7  22
ATOM     22  C   UNL     1      -1.204  -8.981  10.783  0.00  0.00    +0.131 C 
BRANCH  22  23
ATOM     23  C   UNL     1       0.196  -8.770  11.332  0.00  0.00    +0.178 C 
BRANCH  23   2
ATOM      2  O   UNL     1       0.175  -7.721  12.292  0.00  0.00    -0.381 OA
ATOM     24  C   UNL     1       1.395  -6.994  12.296  0.00  0.00    +0.194 C 
ENDBRANCH  23   2
ENDBRANCH  22  23
ENDBRANCH   7  22
ENDBRANCH  21   7
ENDBRANCH  16  17
BRANCH  13   8
ATOM      3  N   UNL     1      -9.329  -9.462  16.611  0.00  0.00    -0.291 NA
ATOM      8  C   UNL     1      -9.924  -9.508  15.260  0.00  0.00    +0.146 C 
ATOM      9  C   UNL     1     -10.701  -8.186  15.129  0.00  0.00    +0.030 C 
ATOM     10  C   UNL     1     -10.215  -8.629  17.424  0.00  0.00    +0.085 C 
ATOM     11  C   UNL     1     -10.537  -7.493  16.474  0.00  0.00    +0.017 C 
BRANCH   3  12
ATOM     12  C   UNL     1      -9.128 -10.781  17.195  0.00  0.00    +0.085 C 
BRANCH  12  14
ATOM     14  C   UNL     1      -8.040 -10.727  18.265  0.00  0.00    +0.012 C 
ATOM     15  C   UNL     1      -6.783 -10.048  17.743  0.00  0.00    +0.005 C 
ENDBRANCH  12  14
ENDBRANCH   3  12
ENDBRANCH  13   8
TORSDOF 8
ENDMDL
MODEL 3
REMARK VINA RESULT:      -3.5     14.747     17.612
REMARK  Name = 45783486
REMARK  10 active torsions:
REMARK  status: ('A' for Active; 'I' for Inactive)
REMARK    1  A    between atoms: O_2  and  C_23
REMARK    2  A    between atoms: O_2  and  C_24
REMARK    3  A    between atoms: N_3  and  C_12
REMARK    4  A    between atoms: N_7  and  C_21
REMARK    5  A    between atoms: N_7  and  C_22
REMARK    6  A    between atoms: C_8  and  C_13
REMARK    7  A    between atoms: C_12  and  C_14
REMARK    8  A    between atoms: C_14  and  C_15
REMARK    9  A    between atoms: C_16  and  C_17
REMARK   10  A    between atoms: C_22  and  C_23
REMARK                            x       y       z     vdW  Elec       q    Type
REMARK                         _______ _______ _______ _____ _____    ______ ____
ROOT
ATOM      1  O   UNL     1      -2.900  -0.466  25.104  0.00  0.00    -0.336 OA
ATOM      4  N   UNL     1      -1.800   1.437  24.675  0.00  0.00    -0.190 NA
ATOM      5  N   UNL     1      -1.689  -0.841  24.510  0.00  0.00    -0.056 NA
ATOM     13  C   UNL     1      -2.885   0.891  25.164  0.00  0.00    +0.245 A 
ATOM     16  C   UNL     1      -1.096   0.335  24.287  0.00  0.00    +0.204 A 
ENDROOT
BRANCH  16  17
ATOM      6  N   UNL     1       2.276   1.656  23.443  0.00  0.00    -0.240 NA
ATOM     17  C   UNL     1       0.197   0.444  23.677  0.00  0.00    +0.041 A 
ATOM     18  C   UNL     1       0.638  -0.503  22.758  0.00  0.00    +0.016 A 
ATOM     19  C   UNL     1       1.047   1.494  23.983  0.00  0.00    +0.124 A 
ATOM     20  C   UNL     1       1.896  -0.372  22.182  0.00  0.00    +0.044 A 
ATOM     21  C   UNL     1       2.670   0.715  22.554  0.00  0.00    +0.119 A 
BRANCH  21   7
ATOM      7  N   UNL     1       3.950   0.835  21.959  0.00  0.00    -0.327 N 
ATOM     25  H   UNL     1       4.034   1.498  21.197  0.00  0.00    +0.148 HD
BRANCH   7  22
ATOM     22  C   UNL     1       5.075   0.070  22.391  0.00  0.00    +0.131 C 
BRANCH  22  23
ATOM     23  C   UNL     1       5.463   0.468  23.805  0.00  0.00    +0.178 C 
BRANCH  23   2
ATOM      2  O   UNL     1       5.488  -0.689  24.631  0.00  0.00    -0.381 OA
ATOM     24  C   UNL     1       4.828  -1.785  24.013  0.00  0.00    +0.194 C 
ENDBRANCH  23   2
ENDBRANCH  22  23
ENDBRANCH   7  22
ENDBRANCH  21   7
ENDBRANCH  16  17
BRANCH  13   8
ATOM      3  N   UNL     1      -4.233   2.971  25.382  0.00  0.00    -0.291 NA
ATOM      8  C   UNL     1      -4.102   1.554  25.775  0.00  0.00    +0.146 C 
ATOM      9  C   UNL     1      -5.422   0.900  25.329  0.00  0.00    +0.030 C 
ATOM     10  C   UNL     1      -5.664   3.274  25.400  0.00  0.00    +0.085 C 
ATOM     11  C   UNL     1      -6.255   2.038  24.755  0.00  0.00    +0.017 C 
BRANCH   3  12
ATOM     12  C   UNL     1      -3.470   3.876  26.232  0.00  0.00    +0.085 C 
BRANCH  12  14
ATOM     14  C   UNL     1      -2.685   4.870  25.379  0.00  0.00    +0.012 C 
ATOM     15  C   UNL     1      -1.214   4.495  25.306  0.00  0.00    +0.005 C 
ENDBRANCH  12  14
ENDBRANCH   3  12
ENDBRANCH  13   8
TORSDOF 8
ENDMDL
MODEL 4
REMARK VINA RESULT:      -2.3      2.879      8.543
REMARK  Name = 45783486
REMARK  10 active torsions:
REMARK  status: ('A' for Active; 'I' for Inactive)
REMARK    1  A    between atoms: O_2  and  C_23
REMARK    2  A    between atoms: O_2  and  C_24
REMARK    3  A    between atoms: N_3  and  C_12
REMARK    4  A    between atoms: N_7  and  C_21
REMARK    5  A    between atoms: N_7  and  C_22
REMARK    6  A    between atoms: C_8  and  C_13
REMARK    7  A    between atoms: C_12  and  C_14
REMARK    8  A    between atoms: C_14  and  C_15
REMARK    9  A    between atoms: C_16  and  C_17
REMARK   10  A    between atoms: C_22  and  C_23
REMARK                            x       y       z     vdW  Elec       q    Type
REMARK                         _______ _______ _______ _____ _____    ______ ____
ROOT
ATOM      1  O   UNL     1      -7.558  -9.272  12.471  0.00  0.00    -0.336 OA
ATOM      4  N   UNL     1      -6.012 -10.581  13.426  0.00  0.00    -0.190 NA
ATOM      5  N   UNL     1      -6.340  -8.941  11.865  0.00  0.00    -0.056 NA
ATOM     13  C   UNL     1      -7.277 -10.244  13.376  0.00  0.00    +0.245 A 
ATOM     16  C   UNL     1      -5.478  -9.756  12.480  0.00  0.00    +0.204 A 
ENDROOT
BRANCH  16  17
ATOM      6  N   UNL     1      -1.813 -10.243  12.881  0.00  0.00    -0.240 NA
ATOM     17  C   UNL     1      -4.076  -9.767  12.176  0.00  0.00    +0.041 A 
ATOM     18  C   UNL     1      -3.608  -9.336  10.939  0.00  0.00    +0.016 A 
ATOM     19  C   UNL     1      -3.146 -10.208  13.103  0.00  0.00    +0.124 A 
ATOM     20  C   UNL     1      -2.244  -9.358  10.673  0.00  0.00    +0.044 A 
ATOM     21  C   UNL     1      -1.396  -9.816  11.667  0.00  0.00    +0.119 A 
BRANCH  21   7
ATOM      7  N   UNL     1      -0.008  -9.833  11.381  0.00  0.00    -0.327 N 
ATOM     25  H   UNL     1       0.503 -10.661  11.667  0.00  0.00    +0.148 HD
BRANCH   7  22
ATOM     22  C   UNL     1       0.658  -8.752  10.729  0.00  0.00    +0.131 C 
BRANCH  22  23
ATOM     23  C   UNL     1       1.144  -7.745  11.758  0.00  0.00    +0.178 C 
BRANCH  23   2
ATOM      2  O   UNL     1       2.479  -7.364  11.452  0.00  0.00    -0.381 OA
ATOM     24  C   UNL     1       2.967  -6.397  12.370  0.00  0.00    +0.194 C 
ENDBRANCH  23   2
ENDBRANCH  22  23
ENDBRANCH   7  22
ENDBRANCH  21   7
ENDBRANCH  16  17
BRANCH  13   8
ATOM      3  N   UNL     1      -8.630 -10.070  15.457  0.00  0.00    -0.291 NA
ATOM      8  C   UNL     1      -8.445 -10.781  14.176  0.00  0.00    +0.146 C 
ATOM      9  C   UNL     1      -9.790 -10.624  13.444  0.00  0.00    +0.030 C 
ATOM     10  C   UNL     1     -10.058 -10.141  15.766  0.00  0.00    +0.085 C 
ATOM     11  C   UNL     1     -10.685  -9.867  14.415  0.00  0.00    +0.017 C 
BRANCH   3  12
ATOM     12  C   UNL     1      -7.809 -10.607  16.535  0.00  0.00    +0.085 C 
BRANCH  12  14
ATOM     14  C   UNL     1      -6.684  -9.633  16.880  0.00  0.00    +0.012 C 
ATOM     15  C   UNL     1      -5.520 -10.346  17.549  0.00  0.00    +0.005 C 
ENDBRANCH  12  14
ENDBRANCH   3  12
ENDBRANCH  13   8
TORSDOF 8
ENDMDL
MODEL 5
REMARK VINA RESULT:      -2.2     14.458     17.318
REMARK  Name = 45783486
REMARK  10 active torsions:
REMARK  status: ('A' for Active; 'I' for Inactive)
REMARK    1  A    between atoms: O_2  and  C_23
REMARK    2  A    between atoms: O_2  and  C_24
REMARK    3  A    between atoms: N_3  and  C_12
REMARK    4  A    between atoms: N_7  and  C_21
REMARK    5  A    between atoms: N_7  and  C_22
REMARK    6  A    between atoms: C_8  and  C_13
REMARK    7  A    between atoms: C_12  and  C_14
REMARK    8  A    between atoms: C_14  and  C_15
REMARK    9  A    between atoms: C_16  and  C_17
REMARK   10  A    between atoms: C_22  and  C_23
REMARK                            x       y       z     vdW  Elec       q    Type
REMARK                         _______ _______ _______ _____ _____    ______ ____
ROOT
ATOM      1  O   UNL     1      -2.001   1.769  25.627  0.00  0.00    -0.336 OA
ATOM      4  N   UNL     1      -1.651   1.463  23.436  0.00  0.00    -0.190 NA
ATOM      5  N   UNL     1      -0.628   1.539  25.481  0.00  0.00    -0.056 NA
ATOM     13  C   UNL     1      -2.528   1.707  24.376  0.00  0.00    +0.245 A 
ATOM     16  C   UNL     1      -0.499   1.369  24.161  0.00  0.00    +0.204 A 
ENDROOT
BRANCH  16  17
ATOM      6  N   UNL     1       3.036   1.795  23.089  0.00  0.00    -0.240 NA
ATOM     17  C   UNL     1       0.764   1.099  23.538  0.00  0.00    +0.041 A 
ATOM     18  C   UNL     1       0.966  -0.062  22.799  0.00  0.00    +0.016 A 
ATOM     19  C   UNL     1       1.822   1.987  23.652  0.00  0.00    +0.124 A 
ATOM     20  C   UNL     1       2.201  -0.295  22.206  0.00  0.00    +0.044 A 
ATOM     21  C   UNL     1       3.194   0.654  22.379  0.00  0.00    +0.119 A 
BRANCH  21   7
ATOM      7  N   UNL     1       4.448   0.402  21.769  0.00  0.00    -0.327 N 
ATOM     25  H   UNL     1       4.515   0.593  20.775  0.00  0.00    +0.148 HD
BRANCH   7  22
ATOM     22  C   UNL     1       5.570  -0.101  22.494  0.00  0.00    +0.131 C 
BRANCH  22  23
ATOM     23  C   UNL     1       5.525   0.394  23.930  0.00  0.00    +0.178 C 
BRANCH  23   2
ATOM      2  O   UNL     1       5.379  -0.715  24.808  0.00  0.00    -0.381 OA
ATOM     24  C   UNL     1       4.888  -1.859  24.124  0.00  0.00    +0.194 C 
ENDBRANCH  23   2
ENDBRANCH  22  23
ENDBRANCH   7  22
ENDBRANCH  21   7
ENDBRANCH  16  17
BRANCH  13   8
ATOM      3  N   UNL     1      -4.790   1.122  25.234  0.00  0.00    -0.291 NA
ATOM      8  C   UNL     1      -4.023   1.926  24.261  0.00  0.00    +0.146 C 
ATOM      9  C   UNL     1      -4.434   3.382  24.545  0.00  0.00    +0.030 C 
ATOM     10  C   UNL     1      -6.009   1.878  25.523  0.00  0.00    +0.085 C 
ATOM     11  C   UNL     1      -5.480   3.291  25.648  0.00  0.00    +0.017 C 
BRANCH   3  12
ATOM     12  C   UNL     1      -5.079  -0.226  24.764  0.00  0.00    +0.085 C 
BRANCH  12  14
ATOM     14  C   UNL     1      -3.975  -1.187  25.198  0.00  0.00    +0.012 C 
ATOM     15  C   UNL     1      -3.699  -2.233  24.129  0.00  0.00    +0.005 C 
ENDBRANCH  12  14
ENDBRANCH   3  12
ENDBRANCH  13   8
TORSDOF 8
ENDMDL
MODEL 6
REMARK VINA RESULT:      -2.0      3.327      7.984
REMARK  Name = 45783486
REMARK  10 active torsions:
REMARK  status: ('A' for Active; 'I' for Inactive)
REMARK    1  A    between atoms: O_2  and  C_23
REMARK    2  A    between atoms: O_2  and  C_24
REMARK    3  A    between atoms: N_3  and  C_12
REMARK    4  A    between atoms: N_7  and  C_21
REMARK    5  A    between atoms: N_7  and  C_22
REMARK    6  A    between atoms: C_8  and  C_13
REMARK    7  A    between atoms: C_12  and  C_14
REMARK    8  A    between atoms: C_14  and  C_15
REMARK    9  A    between atoms: C_16  and  C_17
REMARK   10  A    between atoms: C_22  and  C_23
REMARK                            x       y       z     vdW  Elec       q    Type
REMARK                         _______ _______ _______ _____ _____    ______ ____
ROOT
ATOM      1  O   UNL     1      -8.615  -8.849  16.464  0.00  0.00    -0.336 OA
ATOM      4  N   UNL     1      -8.886 -10.738  15.294  0.00  0.00    -0.190 NA
ATOM      5  N   UNL     1      -8.354  -8.520  15.129  0.00  0.00    -0.056 NA
ATOM     13  C   UNL     1      -8.920 -10.172  16.473  0.00  0.00    +0.245 A 
ATOM     16  C   UNL     1      -8.536  -9.685  14.501  0.00  0.00    +0.204 A 
ENDROOT
BRANCH  16  17
ATOM      6  N   UNL     1      -6.890  -9.948  11.177  0.00  0.00    -0.240 NA
ATOM     17  C   UNL     1      -8.372  -9.831  13.083  0.00  0.00    +0.041 A 
ATOM     18  C   UNL     1      -9.472  -9.990  12.247  0.00  0.00    +0.016 A 
ATOM     19  C   UNL     1      -7.114  -9.817  12.503  0.00  0.00    +0.124 A 
ATOM     20  C   UNL     1      -9.283 -10.129  10.877  0.00  0.00    +0.044 A 
ATOM     21  C   UNL     1      -7.984 -10.101  10.396  0.00  0.00    +0.119 A 
BRANCH  21   7
ATOM      7  N   UNL     1      -7.807 -10.245   8.997  0.00  0.00    -0.327 N 
ATOM     25  H   UNL     1      -7.826 -11.191   8.633  0.00  0.00    +0.148 HD
BRANCH   7  22
ATOM     22  C   UNL     1      -7.604  -9.131   8.128  0.00  0.00    +0.131 C 
BRANCH  22  23
ATOM     23  C   UNL     1      -7.521  -7.848   8.938  0.00  0.00    +0.178 C 
BRANCH  23   2
ATOM      2  O   UNL     1      -8.360  -6.862   8.350  0.00  0.00    -0.381 OA
ATOM     24  C   UNL     1      -9.732  -7.207   8.472  0.00  0.00    +0.194 C 
ENDBRANCH  23   2
ENDBRANCH  22  23
ENDBRANCH   7  22
ENDBRANCH  21   7
ENDBRANCH  16  17
BRANCH  13   8
ATOM      3  N   UNL     1      -8.472 -10.173  18.921  0.00  0.00    -0.291 NA
ATOM      8  C   UNL     1      -9.246 -10.781  17.821  0.00  0.00    +0.146 C 
ATOM      9  C   UNL     1     -10.720 -10.583  18.223  0.00  0.00    +0.030 C 
ATOM     10  C   UNL     1      -9.303 -10.281  20.121  0.00  0.00    +0.085 C 
ATOM     11  C   UNL     1     -10.672  -9.912  19.589  0.00  0.00    +0.017 C 
BRANCH   3  12
ATOM     12  C   UNL     1      -7.161 -10.781  19.106  0.00  0.00    +0.085 C 
BRANCH  12  14
ATOM     14  C   UNL     1      -6.072  -9.882  18.525  0.00  0.00    +0.012 C 
ATOM     15  C   UNL     1      -5.172 -10.648  17.569  0.00  0.00    +0.005 C 
ENDBRANCH  12  14
ENDBRANCH   3  12
ENDBRANCH  13   8
TORSDOF 8
ENDMDL
MODEL 7
REMARK VINA RESULT:      -1.4      3.520      8.546
REMARK  Name = 45783486
REMARK  10 active torsions:
REMARK  status: ('A' for Active; 'I' for Inactive)
REMARK    1  A    between atoms: O_2  and  C_23
REMARK    2  A    between atoms: O_2  and  C_24
REMARK    3  A    between atoms: N_3  and  C_12
REMARK    4  A    between atoms: N_7  and  C_21
REMARK    5  A    between atoms: N_7  and  C_22
REMARK    6  A    between atoms: C_8  and  C_13
REMARK    7  A    between atoms: C_12  and  C_14
REMARK    8  A    between atoms: C_14  and  C_15
REMARK    9  A    between atoms: C_16  and  C_17
REMARK   10  A    between atoms: C_22  and  C_23
REMARK                            x       y       z     vdW  Elec       q    Type
REMARK                         _______ _______ _______ _____ _____    ______ ____
ROOT
ATOM      1  O   UNL     1      -7.169  -8.672  11.187  0.00  0.00    -0.336 OA
ATOM      4  N   UNL     1      -5.867 -10.493  11.135  0.00  0.00    -0.190 NA
ATOM      5  N   UNL     1      -5.849  -8.207  11.198  0.00  0.00    -0.056 NA
ATOM     13  C   UNL     1      -7.090 -10.028  11.149  0.00  0.00    +0.245 A 
ATOM     16  C   UNL     1      -5.140  -9.340  11.165  0.00  0.00    +0.204 A 
ENDROOT
BRANCH  16  17
ATOM      6  N   UNL     1      -1.645  -9.930  12.288  0.00  0.00    -0.240 NA
ATOM     17  C   UNL     1      -3.706  -9.352  11.164  0.00  0.00    +0.041 A 
ATOM     18  C   UNL     1      -2.985  -8.826  10.097  0.00  0.00    +0.016 A 
ATOM     19  C   UNL     1      -2.995  -9.888  12.226  0.00  0.00    +0.124 A 
ATOM     20  C   UNL     1      -1.596  -8.852  10.125  0.00  0.00    +0.044 A 
ATOM     21  C   UNL     1      -0.979  -9.410  11.232  0.00  0.00    +0.119 A 
BRANCH  21   7
ATOM      7  N   UNL     1       0.438  -9.429  11.245  0.00  0.00    -0.327 N 
ATOM     25  H   UNL     1       0.877 -10.340  11.324  0.00  0.00    +0.148 HD
BRANCH   7  22
ATOM     22  C   UNL     1       1.226  -8.243  11.158  0.00  0.00    +0.131 C 
BRANCH  22  23
ATOM     23  C   UNL     1       0.828  -7.273  12.258  0.00  0.00    +0.178 C 
BRANCH  23   2
ATOM      2  O   UNL     1       1.737  -6.179  12.276  0.00  0.00    -0.381 OA
ATOM     24  C   UNL     1       3.079  -6.616  12.120  0.00  0.00    +0.194 C 
ENDBRANCH  23   2
ENDBRANCH  22  23
ENDBRANCH   7  22
ENDBRANCH  21   7
ENDBRANCH  16  17
BRANCH  13   8
ATOM      3  N   UNL     1      -9.411 -10.189  12.035  0.00  0.00    -0.291 NA
ATOM      8  C   UNL     1      -8.405 -10.781  11.130  0.00  0.00    +0.146 C 
ATOM      9  C   UNL     1      -9.073 -10.775   9.743  0.00  0.00    +0.030 C 
ATOM     10  C   UNL     1     -10.718 -10.487  11.450  0.00  0.00    +0.085 C 
ATOM     11  C   UNL     1     -10.472 -10.222   9.979  0.00  0.00    +0.017 C 
BRANCH   3  12
ATOM     12  C   UNL     1      -9.302 -10.668  13.407  0.00  0.00    +0.085 C 
BRANCH  12  14
ATOM     14  C   UNL     1      -9.904  -9.651  14.373  0.00  0.00    +0.012 C 
ATOM     15  C   UNL     1     -10.227 -10.285  15.716  0.00  0.00    +0.005 C 
ENDBRANCH  12  14
ENDBRANCH   3  12
ENDBRANCH  13   8
TORSDOF 8
ENDMDL
