MODEL 1
REMARK VINA RESULT:      15.1      0.000      0.000
REMARK  Name = 45361338
REMARK  11 active torsions:
REMARK  status: ('A' for Active; 'I' for Inactive)
REMARK    1  A    between atoms: O_2  and  C_11
REMARK    2  A    between atoms: N_6  and  C_25
REMARK    3  A    between atoms: N_6  and  C_26
REMARK    4  A    between atoms: N_8  and  C_34
REMARK    5  A    between atoms: C_9  and  C_17
REMARK    6  A    between atoms: C_12  and  C_18
REMARK    7  A    between atoms: C_14  and  C_21
REMARK    8  A    between atoms: C_18  and  C_22
REMARK    9  A    between atoms: C_18  and  C_23
REMARK   10  A    between atoms: C_25  and  C_28
REMARK   11  A    between atoms: C_27  and  C_29
REMARK                            x       y       z     vdW  Elec       q    Type
REMARK                         _______ _______ _______ _____ _____    ______ ____
ROOT
ATOM      1  S   UNL     1       1.409  -2.004  24.164  0.00  0.00    -0.057 S 
ATOM      4  O   UNL     1       4.224   1.509  22.880  0.00  0.00    -0.268 OA
ATOM      5  N   UNL     1       1.470   0.518  23.595  0.00  0.00    -0.229 NA
ATOM      7  N   UNL     1       3.562  -0.673  23.476  0.00  0.00    -0.259 N 
ATOM      9  C   UNL     1      -2.347  -0.607  25.090  0.00  0.00    -0.022 C 
ATOM     10  C   UNL     1      -2.355   0.558  24.024  0.00  0.00    +0.033 C 
ATOM     11  C   UNL     1      -3.498   1.575  24.303  0.00  0.00    +0.123 C 
ATOM     12  C   UNL     1      -4.876   0.895  24.461  0.00  0.00    +0.029 C 
ATOM     13  C   UNL     1      -3.752  -1.248  25.171  0.00  0.00    +0.008 C 
ATOM     14  C   UNL     1      -0.931   1.236  23.877  0.00  0.00    +0.042 C 
ATOM     15  C   UNL     1      -4.852  -0.242  25.483  0.00  0.00    +0.007 C 
ATOM     16  C   UNL     1      -1.349  -1.721  24.646  0.00  0.00    +0.051 C 
ATOM     17  C   UNL     1      -1.941  -0.103  26.500  0.00  0.00    +0.012 C 
ATOM     19  C   UNL     1       0.158   0.191  23.888  0.00  0.00    +0.057 A 
ATOM     20  C   UNL     1      -0.047  -1.126  24.244  0.00  0.00    +0.015 A 
ATOM     21  C   UNL     1      -0.803   2.112  22.621  0.00  0.00    +0.014 C 
ATOM     24  C   UNL     1       2.214  -0.562  23.696  0.00  0.00    +0.165 A 
ATOM     27  C   UNL     1       4.486   0.330  23.090  0.00  0.00    +0.266 C 
ATOM     36  H   UNL     1       3.925  -1.611  23.630  0.00  0.00    +0.157 HD
ENDROOT
BRANCH  27  29
ATOM      8  N   UNL     1       6.962   0.506  23.583  0.00  0.00    -0.346 N 
ATOM     29  C   UNL     1       5.903  -0.099  22.957  0.00  0.00    +0.105 A 
ATOM     31  C   UNL     1       6.396  -1.147  22.212  0.00  0.00    +0.032 A 
ATOM     32  C   UNL     1       8.123  -0.140  23.248  0.00  0.00    +0.086 A 
ATOM     33  C   UNL     1       7.801  -1.173  22.396  0.00  0.00    +0.020 A 
ATOM     34  C   UNL     1       6.883   1.652  24.463  0.00  0.00    +0.149 C 
ENDBRANCH  27  29
BRANCH  11   2
ATOM      2  O   UNL     1      -3.600   2.486  23.210  0.00  0.00    -0.391 OA
ATOM     35  H   UNL     1      -2.982   3.219  23.371  0.00  0.00    +0.210 HD
ENDBRANCH  11   2
BRANCH  12  18
ATOM     18  C   UNL     1      -5.968   1.902  24.840  0.00  0.00    +0.078 C 
ATOM     22  C   UNL     1      -6.053   2.990  23.769  0.00  0.00    +0.017 C 
BRANCH  18  23
ATOM      3  O   UNL     1      -6.345   2.169  27.189  0.00  0.00    -0.275 OA
ATOM      6  N   UNL     1      -4.626   3.438  26.301  0.00  0.00    -0.301 N 
ATOM     23  C   UNL     1      -5.664   2.504  26.213  0.00  0.00    +0.219 C 
ATOM     26  C   UNL     1      -4.326   4.049  27.591  0.00  0.00    +0.132 C 
BRANCH   6  25
ATOM     25  C   UNL     1      -3.754   3.862  25.207  0.00  0.00    +0.134 C 
BRANCH  25  28
ATOM     28  C   UNL     1      -2.433   4.273  25.769  0.00  0.00    -0.016 C 
ATOM     30  C   UNL     1      -1.521   4.977  25.091  0.00  0.00    +0.005 C 
ENDBRANCH  25  28
ENDBRANCH   6  25
ENDBRANCH  18  23
ENDBRANCH  12  18
TORSDOF 6
ENDMDL
MODEL 2
REMARK VINA RESULT:      15.5      1.593      2.230
REMARK  Name = 45361338
REMARK  11 active torsions:
REMARK  status: ('A' for Active; 'I' for Inactive)
REMARK    1  A    between atoms: O_2  and  C_11
REMARK    2  A    between atoms: N_6  and  C_25
REMARK    3  A    between atoms: N_6  and  C_26
REMARK    4  A    between atoms: N_8  and  C_34
REMARK    5  A    between atoms: C_9  and  C_17
REMARK    6  A    between atoms: C_12  and  C_18
REMARK    7  A    between atoms: C_14  and  C_21
REMARK    8  A    between atoms: C_18  and  C_22
REMARK    9  A    between atoms: C_18  and  C_23
REMARK   10  A    between atoms: C_25  and  C_28
REMARK   11  A    between atoms: C_27  and  C_29
REMARK                            x       y       z     vdW  Elec       q    Type
REMARK                         _______ _______ _______ _____ _____    ______ ____
ROOT
ATOM      1  S   UNL     1       2.386  -0.273  21.793  0.00  0.00    -0.057 S 
ATOM      4  O   UNL     1       5.541   0.950  25.026  0.00  0.00    -0.268 OA
ATOM      5  N   UNL     1       2.664   0.718  24.166  0.00  0.00    -0.229 NA
ATOM      7  N   UNL     1       4.684   0.133  22.988  0.00  0.00    -0.259 N 
ATOM      9  C   UNL     1      -1.430  -0.040  23.311  0.00  0.00    -0.022 C 
ATOM     10  C   UNL     1      -1.154   1.194  24.257  0.00  0.00    +0.033 C 
ATOM     11  C   UNL     1      -2.295   1.376  25.299  0.00  0.00    +0.123 C 
ATOM     12  C   UNL     1      -3.696   1.417  24.650  0.00  0.00    +0.029 C 
ATOM     13  C   UNL     1      -2.839   0.088  22.686  0.00  0.00    +0.008 C 
ATOM     14  C   UNL     1       0.288   1.132  24.906  0.00  0.00    +0.042 C 
ATOM     15  C   UNL     1      -3.945   0.226  23.724  0.00  0.00    +0.007 C 
ATOM     16  C   UNL     1      -0.399  -0.048  22.140  0.00  0.00    +0.051 C 
ATOM     17  C   UNL     1      -1.338  -1.389  24.071  0.00  0.00    +0.012 C 
ATOM     19  C   UNL     1       1.309   0.679  23.889  0.00  0.00    +0.057 A 
ATOM     20  C   UNL     1       0.982   0.146  22.660  0.00  0.00    +0.015 A 
ATOM     21  C   UNL     1       0.730   2.462  25.533  0.00  0.00    +0.014 C 
ATOM     24  C   UNL     1       3.327   0.254  23.129  0.00  0.00    +0.165 A 
ATOM     27  C   UNL     1       5.707   0.474  23.909  0.00  0.00    +0.266 C 
ATOM     36  H   UNL     1       4.969  -0.268  22.099  0.00  0.00    +0.157 HD
ENDROOT
BRANCH  27  29
ATOM      8  N   UNL     1       7.486  -0.900  22.748  0.00  0.00    -0.346 N 
ATOM     29  C   UNL     1       7.101   0.197  23.473  0.00  0.00    +0.105 A 
ATOM     31  C   UNL     1       8.220   0.965  23.706  0.00  0.00    +0.032 A 
ATOM     32  C   UNL     1       8.835  -0.844  22.514  0.00  0.00    +0.086 A 
ATOM     33  C   UNL     1       9.318   0.305  23.099  0.00  0.00    +0.020 A 
ATOM     34  C   UNL     1       6.617  -1.963  22.293  0.00  0.00    +0.149 C 
ENDBRANCH  27  29
BRANCH  11   2
ATOM      2  O   UNL     1      -2.112   2.611  25.990  0.00  0.00    -0.391 OA
ATOM     35  H   UNL     1      -2.451   2.503  26.895  0.00  0.00    +0.210 HD
ENDBRANCH  11   2
BRANCH  12  18
ATOM     18  C   UNL     1      -4.809   1.489  25.702  0.00  0.00    +0.078 C 
ATOM     22  C   UNL     1      -5.572   0.164  25.729  0.00  0.00    +0.017 C 
BRANCH  18  23
ATOM      3  O   UNL     1      -6.876   2.427  24.939  0.00  0.00    -0.275 OA
ATOM      6  N   UNL     1      -5.268   3.954  25.600  0.00  0.00    -0.301 N 
ATOM     23  C   UNL     1      -5.746   2.657  25.386  0.00  0.00    +0.219 C 
ATOM     26  C   UNL     1      -6.128   5.090  25.287  0.00  0.00    +0.132 C 
BRANCH   6  25
ATOM     25  C   UNL     1      -3.964   4.311  26.156  0.00  0.00    +0.134 C 
BRANCH  25  28
ATOM     28  C   UNL     1      -3.127   4.922  25.080  0.00  0.00    -0.016 C 
ATOM     30  C   UNL     1      -1.837   5.240  25.229  0.00  0.00    +0.005 C 
ENDBRANCH  25  28
ENDBRANCH   6  25
ENDBRANCH  18  23
ENDBRANCH  12  18
TORSDOF 6
ENDMDL
