MODEL 1
REMARK VINA RESULT:      -3.1      0.000      0.000
REMARK  Name = 26743726
REMARK  7 active torsions:
REMARK  status: ('A' for Active; 'I' for Inactive)
REMARK    1  A    between atoms: O_4  and  C_15
REMARK    2  A    between atoms: O_6  and  C_28
REMARK    3  A    between atoms: O_6  and  C_29
REMARK    4  A    between atoms: N_7  and  C_11
REMARK    5  A    between atoms: N_8  and  C_21
REMARK    6  A    between atoms: C_12  and  C_20
REMARK    7  A    between atoms: C_22  and  C_23
REMARK                            x       y       z     vdW  Elec       q    Type
REMARK                         _______ _______ _______ _____ _____    ______ ____
ROOT
ATOM      5  O   UNL     1      -1.782   3.564  24.500  0.00  0.00    -0.336 OA
ATOM      9  N   UNL     1      -1.557   1.457  23.774  0.00  0.00    -0.190 NA
ATOM     10  N   UNL     1      -0.411   3.369  24.289  0.00  0.00    -0.056 NA
ATOM     20  C   UNL     1      -2.384   2.390  24.173  0.00  0.00    +0.245 A 
ATOM     22  C   UNL     1      -0.359   2.104  23.861  0.00  0.00    +0.202 A 
ENDROOT
BRANCH  22  23
ATOM     23  C   UNL     1       0.874   1.457  23.515  0.00  0.00    +0.023 A 
ATOM     24  C   UNL     1       0.909   0.076  23.328  0.00  0.00    +0.015 A 
ATOM     25  C   UNL     1       2.038   2.210  23.367  0.00  0.00    +0.015 A 
ATOM     26  C   UNL     1       2.107  -0.553  22.994  0.00  0.00    +0.046 A 
ATOM     27  C   UNL     1       3.237   1.582  23.033  0.00  0.00    +0.046 A 
ATOM     28  C   UNL     1       3.273   0.200  22.846  0.00  0.00    +0.130 A 
BRANCH  28   6
ATOM      6  O   UNL     1       4.443  -0.413  22.519  0.00  0.00    -0.406 OA
BRANCH   6  29
ATOM      1  F   UNL     1       5.421  -1.327  24.336  0.00  0.00    -0.133 F 
ATOM      2  F   UNL     1       6.712  -0.461  22.801  0.00  0.00    -0.133 F 
ATOM      3  F   UNL     1       5.501   0.845  24.109  0.00  0.00    -0.133 F 
ATOM     29  C   UNL     1       5.529  -0.324  23.435  0.00  0.00    +0.575 C 
ENDBRANCH   6  29
ENDBRANCH  28   6
ENDBRANCH  22  23
BRANCH  20  12
ATOM      7  N   UNL     1      -4.323   1.617  25.529  0.00  0.00    -0.286 NA
ATOM     12  C   UNL     1      -3.890   2.340  24.317  0.00  0.00    +0.149 C 
ATOM     13  C   UNL     1      -5.597   2.210  25.933  0.00  0.00    +0.116 C 
ATOM     14  C   UNL     1      -4.522   3.739  24.446  0.00  0.00    +0.061 C 
ATOM     15  C   UNL     1      -5.326   3.690  25.739  0.00  0.00    +0.130 C 
BRANCH   7  11
ATOM      8  N   UNL     1      -3.273  -2.325  24.337  0.00  0.00    -0.305 NA
ATOM     11  C   UNL     1      -4.428   0.173  25.332  0.00  0.00    +0.060 C 
ATOM     16  C   UNL     1      -3.287  -0.545  26.057  0.00  0.00    +0.034 C 
ATOM     17  C   UNL     1      -4.403  -0.179  23.841  0.00  0.00    +0.034 C 
ATOM     18  C   UNL     1      -3.322  -2.051  25.780  0.00  0.00    +0.085 C 
ATOM     19  C   UNL     1      -4.401  -1.696  23.636  0.00  0.00    +0.085 C 
ATOM     21  C   UNL     1      -3.256  -3.766  24.090  0.00  0.00    +0.104 C 
ENDBRANCH   7  11
BRANCH  15   4
ATOM      4  O   UNL     1      -6.525   4.431  25.613  0.00  0.00    -0.390 OA
ATOM     30  H   UNL     1      -6.594   5.010  26.390  0.00  0.00    +0.210 HD
ENDBRANCH  15   4
ENDBRANCH  20  12
TORSDOF 6
ENDMDL
