MODEL 1
REMARK VINA RESULT:       5.1      0.000      0.000
REMARK  Name = 45784113
REMARK  12 active torsions:
REMARK  status: ('A' for Active; 'I' for Inactive)
REMARK    1  A    between atoms: N_2  and  C_13
REMARK    2  A    between atoms: C_8  and  C_12
REMARK    3  A    between atoms: C_9  and  C_13
REMARK    4  A    between atoms: C_11  and  C_16
REMARK    5  A    between atoms: C_12  and  C_17
REMARK    6  A    between atoms: C_12  and  C_18
REMARK    7  A    between atoms: C_15  and  C_21
REMARK    8  A    between atoms: C_16  and  C_24
REMARK    9  A    between atoms: C_26  and  C_27
REMARK   10  A    between atoms: C_27  and  C_29
REMARK   11  A    between atoms: C_27  and  C_30
REMARK   12  A    between atoms: C_27  and  C_31
REMARK                            x       y       z     vdW  Elec       q    Type
REMARK                         _______ _______ _______ _____ _____    ______ ____
ROOT
ATOM      8  C   UNL     1      -2.771   0.276  24.411  0.00  0.00    +0.000 C 
ATOM      9  C   UNL     1      -3.152   1.051  23.129  0.00  0.00    +0.029 C 
ATOM     10  C   UNL     1      -2.270   1.242  25.494  0.00  0.00    +0.012 C 
ATOM     11  C   UNL     1      -3.286   2.348  25.846  0.00  0.00    +0.024 C 
ATOM     14  C   UNL     1      -3.938   2.305  23.422  0.00  0.00    -0.023 C 
ATOM     15  C   UNL     1      -4.021   2.891  24.630  0.00  0.00    -0.073 C 
ATOM     21  C   UNL     1      -4.904   4.092  24.830  0.00  0.00    +0.039 C 
ENDROOT
BRANCH   8  12
ATOM     12  C   UNL     1      -3.945  -0.570  24.923  0.00  0.00    -0.013 C 
ATOM     17  C   UNL     1      -3.567  -1.272  26.224  0.00  0.00    +0.007 C 
ATOM     18  C   UNL     1      -4.370  -1.584  23.865  0.00  0.00    +0.007 C 
ENDBRANCH   8  12
BRANCH   9  13
ATOM     13  C   UNL     1      -1.918   1.414  22.298  0.00  0.00    +0.092 C 
BRANCH  13   2
ATOM      2  N   UNL     1      -0.705   0.875  22.912  0.00  0.00    -0.299 NA
ATOM      3  N   UNL     1       2.086   0.300  23.103  0.00  0.00    -0.312 N 
ATOM      6  N   UNL     1       3.732  -1.301  23.713  0.00  0.00    -0.237 NA
ATOM      7  N   UNL     1       5.708   0.626  23.211  0.00  0.00    -0.258 NA
ATOM     19  C   UNL     1       0.258   1.948  23.180  0.00  0.00    +0.103 C 
ATOM     20  C   UNL     1      -0.094  -0.138  22.041  0.00  0.00    +0.103 C 
ATOM     22  C   UNL     1       1.510   1.405  23.874  0.00  0.00    +0.122 C 
ATOM     23  C   UNL     1       1.144  -0.751  22.697  0.00  0.00    +0.122 C 
ATOM     25  C   UNL     1       3.426  -0.056  23.296  0.00  0.00    +0.140 A 
ATOM     28  C   UNL     1       4.396   0.890  23.049  0.00  0.00    +0.154 A 
ATOM     32  C   UNL     1       5.045  -1.565  23.874  0.00  0.00    +0.132 A 
ATOM     33  C   UNL     1       6.015  -0.618  23.628  0.00  0.00    +0.130 A 
ENDBRANCH  13   2
ENDBRANCH   9  13
BRANCH  11  16
ATOM     16  C   UNL     1      -2.565   3.440  26.646  0.00  0.00    +0.105 C 
BRANCH  16  24
ATOM      1  O   UNL     1      -0.669   3.107  28.144  0.00  0.00    -0.424 OA
ATOM      4  N   UNL     1      -0.193   2.788  25.981  0.00  0.00    -0.112 NA
ATOM      5  N   UNL     1       0.961   2.569  26.709  0.00  0.00    -0.112 NA
ATOM     24  C   UNL     1      -1.118   3.100  26.858  0.00  0.00    +0.218 A 
ATOM     26  C   UNL     1       0.636   2.765  27.966  0.00  0.00    +0.223 A 
BRANCH  26  27
ATOM     27  C   UNL     1       1.467   2.667  29.173  0.00  0.00    +0.040 C 
ATOM     29  C   UNL     1       0.686   3.099  30.462  0.00  0.00    +0.020 C 
ATOM     30  C   UNL     1       2.739   3.584  29.087  0.00  0.00    +0.020 C 
ATOM     31  C   UNL     1       2.033   1.238  29.513  0.00  0.00    +0.020 C 
ENDBRANCH  26  27
ENDBRANCH  16  24
ENDBRANCH  11  16
TORSDOF 6
ENDMDL
MODEL 2
REMARK VINA RESULT:       5.1      2.294      3.225
REMARK  Name = 45784113
REMARK  12 active torsions:
REMARK  status: ('A' for Active; 'I' for Inactive)
REMARK    1  A    between atoms: N_2  and  C_13
REMARK    2  A    between atoms: C_8  and  C_12
REMARK    3  A    between atoms: C_9  and  C_13
REMARK    4  A    between atoms: C_11  and  C_16
REMARK    5  A    between atoms: C_12  and  C_17
REMARK    6  A    between atoms: C_12  and  C_18
REMARK    7  A    between atoms: C_15  and  C_21
REMARK    8  A    between atoms: C_16  and  C_24
REMARK    9  A    between atoms: C_26  and  C_27
REMARK   10  A    between atoms: C_27  and  C_29
REMARK   11  A    between atoms: C_27  and  C_30
REMARK   12  A    between atoms: C_27  and  C_31
REMARK                            x       y       z     vdW  Elec       q    Type
REMARK                         _______ _______ _______ _____ _____    ______ ____
ROOT
ATOM      8  C   UNL     1      -3.164  -0.649  24.915  0.00  0.00    +0.000 C 
ATOM      9  C   UNL     1      -3.411  -0.097  23.491  0.00  0.00    +0.029 C 
ATOM     10  C   UNL     1      -3.694   0.331  25.970  0.00  0.00    +0.012 C 
ATOM     11  C   UNL     1      -5.192   0.662  25.801  0.00  0.00    +0.024 C 
ATOM     14  C   UNL     1      -4.791   0.489  23.328  0.00  0.00    -0.023 C 
ATOM     15  C   UNL     1      -5.606   0.822  24.346  0.00  0.00    -0.073 C 
ATOM     21  C   UNL     1      -6.998   1.319  24.070  0.00  0.00    +0.039 C 
ENDROOT
BRANCH   8  12
ATOM     12  C   UNL     1      -3.784  -2.042  25.089  0.00  0.00    -0.013 C 
ATOM     17  C   UNL     1      -2.893  -2.913  25.969  0.00  0.00    +0.007 C 
ATOM     18  C   UNL     1      -4.011  -2.697  23.730  0.00  0.00    +0.007 C 
ENDBRANCH   8  12
BRANCH   9  13
ATOM     13  C   UNL     1      -2.368   0.956  23.104  0.00  0.00    +0.092 C 
BRANCH  13   2
ATOM      2  N   UNL     1      -1.037   0.559  23.560  0.00  0.00    -0.299 NA
ATOM      3  N   UNL     1       1.790   0.201  23.359  0.00  0.00    -0.312 N 
ATOM      6  N   UNL     1       3.635  -1.221  23.822  0.00  0.00    -0.237 NA
ATOM      7  N   UNL     1       5.347   0.792  22.882  0.00  0.00    -0.258 NA
ATOM     19  C   UNL     1      -0.137   1.717  23.598  0.00  0.00    +0.103 C 
ATOM     20  C   UNL     1      -0.480  -0.479  22.682  0.00  0.00    +0.103 C 
ATOM     22  C   UNL     1       1.244   1.325  24.128  0.00  0.00    +0.122 C 
ATOM     23  C   UNL     1       0.888  -0.945  23.182  0.00  0.00    +0.122 C 
ATOM     25  C   UNL     1       3.167  -0.041  23.368  0.00  0.00    +0.140 A 
ATOM     28  C   UNL     1       4.009   0.947  22.906  0.00  0.00    +0.154 A 
ATOM     32  C   UNL     1       4.974  -1.377  23.798  0.00  0.00    +0.132 A 
ATOM     33  C   UNL     1       5.815  -0.388  23.336  0.00  0.00    +0.130 A 
ENDBRANCH  13   2
ENDBRANCH   9  13
BRANCH  11  16
ATOM     16  C   UNL     1      -5.521   1.893  26.654  0.00  0.00    +0.105 C 
BRANCH  16  24
ATOM      1  O   UNL     1      -3.535   3.071  25.868  0.00  0.00    -0.424 OA
ATOM      4  N   UNL     1      -5.409   4.293  25.805  0.00  0.00    -0.112 NA
ATOM      5  N   UNL     1      -4.371   5.077  25.336  0.00  0.00    -0.112 NA
ATOM     24  C   UNL     1      -4.875   3.132  26.104  0.00  0.00    +0.218 A 
ATOM     26  C   UNL     1      -3.298   4.324  25.390  0.00  0.00    +0.223 A 
BRANCH  26  27
ATOM     27  C   UNL     1      -1.914   4.639  25.014  0.00  0.00    +0.040 C 
ATOM     29  C   UNL     1      -1.607   4.257  23.524  0.00  0.00    +0.020 C 
ATOM     30  C   UNL     1      -0.873   3.869  25.901  0.00  0.00    +0.020 C 
ATOM     31  C   UNL     1      -1.490   6.151  25.130  0.00  0.00    +0.020 C 
ENDBRANCH  26  27
ENDBRANCH  16  24
ENDBRANCH  11  16
TORSDOF 6
ENDMDL
MODEL 3
REMARK VINA RESULT:       5.9      2.329      4.595
REMARK  Name = 45784113
REMARK  12 active torsions:
REMARK  status: ('A' for Active; 'I' for Inactive)
REMARK    1  A    between atoms: N_2  and  C_13
REMARK    2  A    between atoms: C_8  and  C_12
REMARK    3  A    between atoms: C_9  and  C_13
REMARK    4  A    between atoms: C_11  and  C_16
REMARK    5  A    between atoms: C_12  and  C_17
REMARK    6  A    between atoms: C_12  and  C_18
REMARK    7  A    between atoms: C_15  and  C_21
REMARK    8  A    between atoms: C_16  and  C_24
REMARK    9  A    between atoms: C_26  and  C_27
REMARK   10  A    between atoms: C_27  and  C_29
REMARK   11  A    between atoms: C_27  and  C_30
REMARK   12  A    between atoms: C_27  and  C_31
REMARK                            x       y       z     vdW  Elec       q    Type
REMARK                         _______ _______ _______ _____ _____    ______ ____
ROOT
ATOM      8  C   UNL     1      -3.448   3.114  24.099  0.00  0.00    +0.000 C 
ATOM      9  C   UNL     1      -3.483   3.781  25.493  0.00  0.00    +0.029 C 
ATOM     10  C   UNL     1      -3.958   1.669  24.181  0.00  0.00    +0.012 C 
ATOM     11  C   UNL     1      -5.381   1.554  24.768  0.00  0.00    +0.024 C 
ATOM     14  C   UNL     1      -4.760   3.490  26.242  0.00  0.00    -0.023 C 
ATOM     15  C   UNL     1      -5.625   2.510  25.926  0.00  0.00    -0.073 C 
ATOM     21  C   UNL     1      -6.914   2.361  26.688  0.00  0.00    +0.039 C 
ENDROOT
BRANCH   8  12
ATOM     12  C   UNL     1      -4.245   3.927  23.069  0.00  0.00    -0.013 C 
ATOM     17  C   UNL     1      -3.899   3.477  21.654  0.00  0.00    +0.007 C 
ATOM     18  C   UNL     1      -3.976   5.418  23.245  0.00  0.00    +0.007 C 
ENDBRANCH   8  12
BRANCH   9  13
ATOM     13  C   UNL     1      -2.288   3.360  26.353  0.00  0.00    +0.092 C 
BRANCH  13   2
ATOM      2  N   UNL     1      -1.087   3.214  25.533  0.00  0.00    -0.299 NA
ATOM      3  N   UNL     1       0.870   1.803  24.003  0.00  0.00    -0.312 N 
ATOM      6  N   UNL     1       3.176   1.577  23.479  0.00  0.00    -0.237 NA
ATOM      7  N   UNL     1       2.487  -0.318  21.530  0.00  0.00    -0.258 NA
ATOM     19  C   UNL     1      -1.426   2.670  24.213  0.00  0.00    +0.103 C 
ATOM     20  C   UNL     1      -0.112   2.338  26.198  0.00  0.00    +0.103 C 
ATOM     22  C   UNL     1      -0.184   2.565  23.325  0.00  0.00    +0.122 C 
ATOM     23  C   UNL     1       1.173   2.223  25.377  0.00  0.00    +0.122 C 
ATOM     25  C   UNL     1       1.896   1.220  23.252  0.00  0.00    +0.140 A 
ATOM     28  C   UNL     1       1.558   0.289  22.294  0.00  0.00    +0.154 A 
ATOM     32  C   UNL     1       4.105   0.969  22.714  0.00  0.00    +0.132 A 
ATOM     33  C   UNL     1       3.767   0.039  21.757  0.00  0.00    +0.130 A 
ENDBRANCH  13   2
ENDBRANCH   9  13
BRANCH  11  16
ATOM     16  C   UNL     1      -5.642   0.089  25.137  0.00  0.00    +0.105 C 
BRANCH  16  24
ATOM      1  O   UNL     1      -3.303  -0.573  25.337  0.00  0.00    -0.424 OA
ATOM      4  N   UNL     1      -4.468  -1.769  23.848  0.00  0.00    -0.112 NA
ATOM      5  N   UNL     1      -3.171  -2.246  23.858  0.00  0.00    -0.112 NA
ATOM     24  C   UNL     1      -4.499  -0.793  24.725  0.00  0.00    +0.218 A 
ATOM     26  C   UNL     1      -2.527  -1.520  24.742  0.00  0.00    +0.223 A 
BRANCH  26  27
ATOM     27  C   UNL     1      -1.122  -1.589  25.165  0.00  0.00    +0.040 C 
ATOM     29  C   UNL     1      -0.852  -0.732  26.450  0.00  0.00    +0.020 C 
ATOM     30  C   UNL     1      -0.147  -1.059  24.055  0.00  0.00    +0.020 C 
ATOM     31  C   UNL     1      -0.574  -3.021  25.522  0.00  0.00    +0.020 C 
ENDBRANCH  26  27
ENDBRANCH  16  24
ENDBRANCH  11  16
TORSDOF 6
ENDMDL
MODEL 4
REMARK VINA RESULT:       6.2      2.206      3.941
REMARK  Name = 45784113
REMARK  12 active torsions:
REMARK  status: ('A' for Active; 'I' for Inactive)
REMARK    1  A    between atoms: N_2  and  C_13
REMARK    2  A    between atoms: C_8  and  C_12
REMARK    3  A    between atoms: C_9  and  C_13
REMARK    4  A    between atoms: C_11  and  C_16
REMARK    5  A    between atoms: C_12  and  C_17
REMARK    6  A    between atoms: C_12  and  C_18
REMARK    7  A    between atoms: C_15  and  C_21
REMARK    8  A    between atoms: C_16  and  C_24
REMARK    9  A    between atoms: C_26  and  C_27
REMARK   10  A    between atoms: C_27  and  C_29
REMARK   11  A    between atoms: C_27  and  C_30
REMARK   12  A    between atoms: C_27  and  C_31
REMARK                            x       y       z     vdW  Elec       q    Type
REMARK                         _______ _______ _______ _____ _____    ______ ____
ROOT
ATOM      8  C   UNL     1      -4.403   2.092  24.091  0.00  0.00    +0.000 C 
ATOM      9  C   UNL     1      -3.619   2.978  23.095  0.00  0.00    +0.029 C 
ATOM     10  C   UNL     1      -3.467   1.544  25.176  0.00  0.00    +0.012 C 
ATOM     11  C   UNL     1      -2.716   2.647  25.952  0.00  0.00    +0.024 C 
ATOM     14  C   UNL     1      -2.659   3.915  23.786  0.00  0.00    -0.023 C 
ATOM     15  C   UNL     1      -2.255   3.792  25.062  0.00  0.00    -0.073 C 
ATOM     21  C   UNL     1      -1.361   4.833  25.678  0.00  0.00    +0.039 C 
ENDROOT
BRANCH   8  12
ATOM     12  C   UNL     1      -5.583   2.856  24.710  0.00  0.00    -0.013 C 
ATOM     17  C   UNL     1      -5.117   4.202  25.255  0.00  0.00    +0.007 C 
ATOM     18  C   UNL     1      -6.237   2.024  25.808  0.00  0.00    +0.007 C 
ENDBRANCH   8  12
BRANCH   9  13
ATOM     13  C   UNL     1      -2.851   2.136  22.072  0.00  0.00    +0.092 C 
BRANCH  13   2
ATOM      2  N   UNL     1      -1.683   1.509  22.690  0.00  0.00    -0.299 NA
ATOM      3  N   UNL     1       1.062   0.751  22.902  0.00  0.00    -0.312 N 
ATOM      6  N   UNL     1       2.594  -0.963  23.501  0.00  0.00    -0.237 NA
ATOM      7  N   UNL     1       4.696   0.840  23.059  0.00  0.00    -0.258 NA
ATOM     19  C   UNL     1      -0.657   2.513  22.990  0.00  0.00    +0.103 C 
ATOM     20  C   UNL     1      -1.128   0.474  21.807  0.00  0.00    +0.103 C 
ATOM     22  C   UNL     1       0.548   1.877  23.688  0.00  0.00    +0.122 C 
ATOM     23  C   UNL     1       0.060  -0.230  22.466  0.00  0.00    +0.122 C 
ATOM     25  C   UNL     1       2.373   0.305  23.104  0.00  0.00    +0.140 A 
ATOM     28  C   UNL     1       3.406   1.191  22.887  0.00  0.00    +0.154 A 
ATOM     32  C   UNL     1       3.884  -1.315  23.673  0.00  0.00    +0.132 A 
ATOM     33  C   UNL     1       4.916  -0.428  23.456  0.00  0.00    +0.130 A 
ENDBRANCH  13   2
ENDBRANCH   9  13
BRANCH  11  16
ATOM     16  C   UNL     1      -1.569   2.000  26.737  0.00  0.00    +0.105 C 
BRANCH  16  24
ATOM      1  O   UNL     1      -2.331  -0.040  25.639  0.00  0.00    -0.424 OA
ATOM      4  N   UNL     1      -0.221  -0.132  26.378  0.00  0.00    -0.112 NA
ATOM      5  N   UNL     1      -0.519  -1.344  25.783  0.00  0.00    -0.112 NA
ATOM     24  C   UNL     1      -1.307   0.597  26.271  0.00  0.00    +0.218 A 
ATOM     26  C   UNL     1      -1.760  -1.245  25.366  0.00  0.00    +0.223 A 
BRANCH  26  27
ATOM     27  C   UNL     1      -2.592  -2.230  24.664  0.00  0.00    +0.040 C 
ATOM     29  C   UNL     1      -3.317  -3.204  25.657  0.00  0.00    +0.020 C 
ATOM     30  C   UNL     1      -1.748  -3.126  23.690  0.00  0.00    +0.020 C 
ATOM     31  C   UNL     1      -3.747  -1.649  23.766  0.00  0.00    +0.020 C 
ENDBRANCH  26  27
ENDBRANCH  16  24
ENDBRANCH  11  16
TORSDOF 6
ENDMDL
MODEL 5
REMARK VINA RESULT:       6.4      2.448      4.929
REMARK  Name = 45784113
REMARK  12 active torsions:
REMARK  status: ('A' for Active; 'I' for Inactive)
REMARK    1  A    between atoms: N_2  and  C_13
REMARK    2  A    between atoms: C_8  and  C_12
REMARK    3  A    between atoms: C_9  and  C_13
REMARK    4  A    between atoms: C_11  and  C_16
REMARK    5  A    between atoms: C_12  and  C_17
REMARK    6  A    between atoms: C_12  and  C_18
REMARK    7  A    between atoms: C_15  and  C_21
REMARK    8  A    between atoms: C_16  and  C_24
REMARK    9  A    between atoms: C_26  and  C_27
REMARK   10  A    between atoms: C_27  and  C_29
REMARK   11  A    between atoms: C_27  and  C_30
REMARK   12  A    between atoms: C_27  and  C_31
REMARK                            x       y       z     vdW  Elec       q    Type
REMARK                         _______ _______ _______ _____ _____    ______ ____
ROOT
ATOM      8  C   UNL     1      -2.124   3.999  23.651  0.00  0.00    +0.000 C 
ATOM      9  C   UNL     1      -1.322   3.090  24.611  0.00  0.00    +0.029 C 
ATOM     10  C   UNL     1      -3.628   3.889  23.936  0.00  0.00    +0.012 C 
ATOM     11  C   UNL     1      -4.001   4.227  25.395  0.00  0.00    +0.024 C 
ATOM     14  C   UNL     1      -1.812   3.176  26.035  0.00  0.00    -0.023 C 
ATOM     15  C   UNL     1      -2.998   3.691  26.406  0.00  0.00    -0.073 C 
ATOM     21  C   UNL     1      -3.351   3.808  27.863  0.00  0.00    +0.039 C 
ENDROOT
BRANCH   8  12
ATOM     12  C   UNL     1      -1.649   5.457  23.734  0.00  0.00    -0.013 C 
ATOM     17  C   UNL     1      -0.628   5.620  24.856  0.00  0.00    +0.007 C 
ATOM     18  C   UNL     1      -2.836   6.392  23.942  0.00  0.00    +0.007 C 
ENDBRANCH   8  12
BRANCH   9  13
ATOM     13  C   UNL     1      -1.347   1.627  24.158  0.00  0.00    +0.092 C 
BRANCH  13   2
ATOM      2  N   UNL     1      -0.071   1.253  23.549  0.00  0.00    -0.299 NA
ATOM      3  N   UNL     1       2.597   0.234  23.503  0.00  0.00    -0.312 N 
ATOM      6  N   UNL     1       4.791   0.493  22.632  0.00  0.00    -0.237 NA
ATOM      7  N   UNL     1       5.512  -1.906  23.894  0.00  0.00    -0.258 NA
ATOM     19  C   UNL     1       0.179  -0.183  23.716  0.00  0.00    +0.103 C 
ATOM     20  C   UNL     1       1.029   2.024  24.143  0.00  0.00    +0.103 C 
ATOM     22  C   UNL     1       1.485  -0.599  23.034  0.00  0.00    +0.122 C 
ATOM     23  C   UNL     1       2.362   1.683  23.475  0.00  0.00    +0.122 C 
ATOM     25  C   UNL     1       3.912  -0.222  23.362  0.00  0.00    +0.140 A 
ATOM     28  C   UNL     1       4.266  -1.400  23.981  0.00  0.00    +0.154 A 
ATOM     32  C   UNL     1       6.038  -0.014  22.545  0.00  0.00    +0.132 A 
ATOM     33  C   UNL     1       6.392  -1.192  23.164  0.00  0.00    +0.130 A 
ENDBRANCH  13   2
ENDBRANCH   9  13
BRANCH  11  16
ATOM     16  C   UNL     1      -5.432   3.744  25.660  0.00  0.00    +0.105 C 
BRANCH  16  24
ATOM      1  O   UNL     1      -4.515   1.554  25.099  0.00  0.00    -0.424 OA
ATOM      4  N   UNL     1      -6.734   1.708  24.851  0.00  0.00    -0.112 NA
ATOM      5  N   UNL     1      -6.353   0.426  24.502  0.00  0.00    -0.112 NA
ATOM     24  C   UNL     1      -5.630   2.331  25.192  0.00  0.00    +0.218 A 
ATOM     26  C   UNL     1      -5.051   0.381  24.662  0.00  0.00    +0.223 A 
BRANCH  26  27
ATOM     27  C   UNL     1      -4.119  -0.732  24.441  0.00  0.00    +0.040 C 
ATOM     29  C   UNL     1      -3.275  -1.055  25.722  0.00  0.00    +0.020 C 
ATOM     30  C   UNL     1      -3.096  -0.424  23.292  0.00  0.00    +0.020 C 
ATOM     31  C   UNL     1      -4.766  -2.109  24.036  0.00  0.00    +0.020 C 
ENDBRANCH  26  27
ENDBRANCH  16  24
ENDBRANCH  11  16
TORSDOF 6
ENDMDL
MODEL 6
REMARK VINA RESULT:       8.4      2.737      6.230
REMARK  Name = 45784113
REMARK  12 active torsions:
REMARK  status: ('A' for Active; 'I' for Inactive)
REMARK    1  A    between atoms: N_2  and  C_13
REMARK    2  A    between atoms: C_8  and  C_12
REMARK    3  A    between atoms: C_9  and  C_13
REMARK    4  A    between atoms: C_11  and  C_16
REMARK    5  A    between atoms: C_12  and  C_17
REMARK    6  A    between atoms: C_12  and  C_18
REMARK    7  A    between atoms: C_15  and  C_21
REMARK    8  A    between atoms: C_16  and  C_24
REMARK    9  A    between atoms: C_26  and  C_27
REMARK   10  A    between atoms: C_27  and  C_29
REMARK   11  A    between atoms: C_27  and  C_30
REMARK   12  A    between atoms: C_27  and  C_31
REMARK                            x       y       z     vdW  Elec       q    Type
REMARK                         _______ _______ _______ _____ _____    ______ ____
ROOT
ATOM      8  C   UNL     1      -2.472   4.718  25.709  0.00  0.00    +0.000 C 
ATOM      9  C   UNL     1      -3.704   4.380  24.838  0.00  0.00    +0.029 C 
ATOM     10  C   UNL     1      -1.675   3.447  26.031  0.00  0.00    +0.012 C 
ATOM     11  C   UNL     1      -1.219   2.675  24.774  0.00  0.00    +0.024 C 
ATOM     14  C   UNL     1      -3.381   3.410  23.729  0.00  0.00    -0.023 C 
ATOM     15  C   UNL     1      -2.272   2.651  23.676  0.00  0.00    -0.073 C 
ATOM     21  C   UNL     1      -2.006   1.779  22.479  0.00  0.00    +0.039 C 
ENDROOT
BRANCH   8  12
ATOM     12  C   UNL     1      -1.584   5.774  25.035  0.00  0.00    -0.013 C 
ATOM     17  C   UNL     1      -2.323   6.425  23.870  0.00  0.00    +0.007 C 
ATOM     18  C   UNL     1      -0.276   5.146  24.563  0.00  0.00    +0.007 C 
ENDBRANCH   8  12
BRANCH   9  13
ATOM     13  C   UNL     1      -4.854   3.817  25.679  0.00  0.00    +0.092 C 
BRANCH  13   2
ATOM      2  N   UNL     1      -4.946   2.366  25.525  0.00  0.00    -0.299 NA
ATOM      3  N   UNL     1      -4.079  -0.228  24.702  0.00  0.00    -0.312 N 
ATOM      6  N   UNL     1      -4.719  -2.317  23.769  0.00  0.00    -0.237 NA
ATOM      7  N   UNL     1      -2.114  -3.252  24.224  0.00  0.00    -0.258 NA
ATOM     19  C   UNL     1      -3.831   1.703  26.210  0.00  0.00    +0.103 C 
ATOM     20  C   UNL     1      -4.947   1.998  24.102  0.00  0.00    +0.103 C 
ATOM     22  C   UNL     1      -3.945   0.181  26.104  0.00  0.00    +0.122 C 
ATOM     23  C   UNL     1      -5.100   0.486  23.926  0.00  0.00    +0.122 C 
ATOM     25  C   UNL     1      -3.770  -1.541  24.330  0.00  0.00    +0.140 A 
ATOM     28  C   UNL     1      -2.491  -2.001  24.553  0.00  0.00    +0.154 A 
ATOM     32  C   UNL     1      -4.342  -3.569  23.439  0.00  0.00    +0.132 A 
ATOM     33  C   UNL     1      -3.062  -4.028  23.663  0.00  0.00    +0.130 A 
ENDBRANCH  13   2
ENDBRANCH   9  13
BRANCH  11  16
ATOM     16  C   UNL     1      -0.765   1.273  25.198  0.00  0.00    +0.105 C 
BRANCH  16  24
ATOM      1  O   UNL     1       1.410   1.191  24.096  0.00  0.00    -0.424 OA
ATOM      4  N   UNL     1      -0.056  -0.322  23.342  0.00  0.00    -0.112 NA
ATOM      5  N   UNL     1       1.123  -0.480  22.637  0.00  0.00    -0.112 NA
ATOM     24  C   UNL     1       0.157   0.664  24.182  0.00  0.00    +0.218 A 
ATOM     26  C   UNL     1       1.949   0.423  23.110  0.00  0.00    +0.223 A 
BRANCH  26  27
ATOM     27  C   UNL     1       3.339   0.709  22.732  0.00  0.00    +0.040 C 
ATOM     29  C   UNL     1       3.660   2.243  22.784  0.00  0.00    +0.020 C 
ATOM     30  C   UNL     1       3.662   0.230  21.272  0.00  0.00    +0.020 C 
ATOM     31  C   UNL     1       4.453   0.042  23.622  0.00  0.00    +0.020 C 
ENDBRANCH  26  27
ENDBRANCH  16  24
ENDBRANCH  11  16
TORSDOF 6
ENDMDL
