MODEL 1
REMARK VINA RESULT:      -4.5      0.000      0.000
REMARK  Name = 51137803
REMARK  6 active torsions:
REMARK  status: ('A' for Active; 'I' for Inactive)
REMARK    1  A    between atoms: O_3  and  C_18
REMARK    2  A    between atoms: O_3  and  C_28
REMARK    3  A    between atoms: N_5  and  C_15
REMARK    4  A    between atoms: C_8  and  C_12
REMARK    5  A    between atoms: C_14  and  C_16
REMARK    6  A    between atoms: C_15  and  C_17
REMARK                            x       y       z     vdW  Elec       q    Type
REMARK                         _______ _______ _______ _____ _____    ______ ____
ROOT
ATOM      2  O   UNL     1      12.640  -9.542  32.726  0.00  0.00    -0.253 OA
ATOM      4  N   UNL     1      13.007  -7.280  32.460  0.00  0.00    -0.285 N 
ATOM      5  N   UNL     1      10.897  -8.201  32.034  0.00  0.00    -0.295 N 
ATOM      8  C   UNL     1      14.997  -5.981  32.406  0.00  0.00    +0.096 C 
ATOM      9  C   UNL     1      13.783  -5.050  32.548  0.00  0.00    +0.033 C 
ATOM     10  C   UNL     1      14.413  -7.332  32.839  0.00  0.00    +0.122 C 
ATOM     11  C   UNL     1      12.601  -5.917  32.130  0.00  0.00    +0.110 C 
ATOM     13  C   UNL     1      12.211  -8.424  32.430  0.00  0.00    +0.302 C 
ATOM     29  H   UNL     1      10.602  -7.273  31.753  0.00  0.00    +0.151 HD
ENDROOT
BRANCH   8  12
ATOM      1  O   UNL     1      15.315  -6.948  30.171  0.00  0.00    -0.420 OA
ATOM      6  N   UNL     1      16.356  -4.991  30.472  0.00  0.00    -0.112 NA
ATOM      7  N   UNL     1      16.615  -5.420  29.183  0.00  0.00    -0.107 NA
ATOM     12  C   UNL     1      15.594  -5.914  31.011  0.00  0.00    +0.222 A 
ATOM     14  C   UNL     1      15.989  -6.566  29.053  0.00  0.00    +0.252 A 
BRANCH  14  16
ATOM     16  C   UNL     1      15.905  -7.459  27.934  0.00  0.00    +0.080 A 
ATOM     18  C   UNL     1      16.202  -7.020  26.644  0.00  0.00    +0.132 A 
ATOM     19  C   UNL     1      15.520  -8.783  28.149  0.00  0.00    +0.017 A 
ATOM     22  C   UNL     1      16.112  -7.903  25.568  0.00  0.00    +0.046 A 
ATOM     23  C   UNL     1      15.430  -9.666  27.072  0.00  0.00    +0.001 A 
ATOM     24  C   UNL     1      15.726  -9.226  25.783  0.00  0.00    +0.004 A 
BRANCH  18   3
ATOM      3  O   UNL     1      16.580  -5.732  26.405  0.00  0.00    -0.494 OA
ATOM     28  C   UNL     1      17.196  -5.461  25.147  0.00  0.00    +0.277 C 
ENDBRANCH  18   3
ENDBRANCH  14  16
ENDBRANCH   8  12
BRANCH   5  15
ATOM     15  C   UNL     1       9.925  -9.266  31.939  0.00  0.00    +0.141 C 
BRANCH  15  17
ATOM     17  C   UNL     1       8.517  -8.745  31.934  0.00  0.00    -0.030 A 
ATOM     20  C   UNL     1       8.124  -7.790  32.872  0.00  0.00    +0.005 A 
ATOM     21  C   UNL     1       7.603  -9.217  30.993  0.00  0.00    +0.005 A 
ATOM     25  C   UNL     1       6.816  -7.307  32.867  0.00  0.00    +0.000 A 
ATOM     26  C   UNL     1       6.295  -8.732  30.988  0.00  0.00    +0.000 A 
ATOM     27  C   UNL     1       5.901  -7.777  31.925  0.00  0.00    +0.000 A 
ENDBRANCH  15  17
ENDBRANCH   5  15
TORSDOF 5
ENDMDL
MODEL 2
REMARK VINA RESULT:      -3.2      1.596      2.229
REMARK  Name = 51137803
REMARK  6 active torsions:
REMARK  status: ('A' for Active; 'I' for Inactive)
REMARK    1  A    between atoms: O_3  and  C_18
REMARK    2  A    between atoms: O_3  and  C_28
REMARK    3  A    between atoms: N_5  and  C_15
REMARK    4  A    between atoms: C_8  and  C_12
REMARK    5  A    between atoms: C_14  and  C_16
REMARK    6  A    between atoms: C_15  and  C_17
REMARK                            x       y       z     vdW  Elec       q    Type
REMARK                         _______ _______ _______ _____ _____    ______ ____
ROOT
ATOM      2  O   UNL     1      15.105  -8.603  32.685  0.00  0.00    -0.253 OA
ATOM      4  N   UNL     1      14.682  -6.416  32.085  0.00  0.00    -0.285 N 
ATOM      5  N   UNL     1      12.988  -8.028  31.974  0.00  0.00    -0.295 N 
ATOM      8  C   UNL     1      16.119  -4.565  31.683  0.00  0.00    +0.096 C 
ATOM      9  C   UNL     1      14.670  -4.070  31.804  0.00  0.00    +0.033 C 
ATOM     10  C   UNL     1      16.038  -5.947  32.343  0.00  0.00    +0.122 C 
ATOM     11  C   UNL     1      13.831  -5.328  31.612  0.00  0.00    +0.110 C 
ATOM     13  C   UNL     1      14.315  -7.746  32.279  0.00  0.00    +0.302 C 
ATOM     29  H   UNL     1      12.389  -7.302  31.598  0.00  0.00    +0.151 HD
ENDROOT
BRANCH   8  12
ATOM      1  O   UNL     1      16.461  -5.666  29.514  0.00  0.00    -0.420 OA
ATOM      6  N   UNL     1      17.156  -3.540  29.575  0.00  0.00    -0.112 NA
ATOM      7  N   UNL     1      17.405  -4.036  28.308  0.00  0.00    -0.107 NA
ATOM     12  C   UNL     1      16.605  -4.525  30.244  0.00  0.00    +0.222 A 
ATOM     14  C   UNL     1      16.985  -5.279  28.320  0.00  0.00    +0.252 A 
BRANCH  14  16
ATOM     16  C   UNL     1      16.991  -6.273  27.286  0.00  0.00    +0.080 A 
ATOM     18  C   UNL     1      17.027  -5.906  25.941  0.00  0.00    +0.132 A 
ATOM     19  C   UNL     1      16.958  -7.622  27.640  0.00  0.00    +0.017 A 
ATOM     22  C   UNL     1      17.029  -6.887  24.950  0.00  0.00    +0.046 A 
ATOM     23  C   UNL     1      16.960  -8.604  26.649  0.00  0.00    +0.001 A 
ATOM     24  C   UNL     1      16.996  -8.236  25.304  0.00  0.00    +0.004 A 
BRANCH  18   3
ATOM      3  O   UNL     1      17.059  -4.595  25.566  0.00  0.00    -0.494 OA
ATOM     28  C   UNL     1      17.300  -4.323  24.187  0.00  0.00    +0.277 C 
ENDBRANCH  18   3
ENDBRANCH  14  16
ENDBRANCH   8  12
BRANCH   5  15
ATOM     15  C   UNL     1      12.427  -9.353  32.109  0.00  0.00    +0.141 C 
BRANCH  15  17
ATOM     17  C   UNL     1      10.926  -9.330  32.114  0.00  0.00    -0.030 A 
ATOM     20  C   UNL     1      10.209 -10.482  31.791  0.00  0.00    +0.005 A 
ATOM     21  C   UNL     1      10.248  -8.156  32.441  0.00  0.00    +0.005 A 
ATOM     25  C   UNL     1       8.815 -10.460  31.795  0.00  0.00    +0.000 A 
ATOM     26  C   UNL     1       8.853  -8.134  32.447  0.00  0.00    +0.000 A 
ATOM     27  C   UNL     1       8.136  -9.286  32.123  0.00  0.00    +0.000 A 
ENDBRANCH  15  17
ENDBRANCH   5  15
TORSDOF 5
ENDMDL
MODEL 3
REMARK VINA RESULT:      -3.2      1.866      2.729
REMARK  Name = 51137803
REMARK  6 active torsions:
REMARK  status: ('A' for Active; 'I' for Inactive)
REMARK    1  A    between atoms: O_3  and  C_18
REMARK    2  A    between atoms: O_3  and  C_28
REMARK    3  A    between atoms: N_5  and  C_15
REMARK    4  A    between atoms: C_8  and  C_12
REMARK    5  A    between atoms: C_14  and  C_16
REMARK    6  A    between atoms: C_15  and  C_17
REMARK                            x       y       z     vdW  Elec       q    Type
REMARK                         _______ _______ _______ _____ _____    ______ ____
ROOT
ATOM      2  O   UNL     1      15.178  -8.364  32.621  0.00  0.00    -0.253 OA
ATOM      4  N   UNL     1      14.714  -6.153  32.155  0.00  0.00    -0.285 N 
ATOM      5  N   UNL     1      13.056  -7.790  31.924  0.00  0.00    -0.295 N 
ATOM      8  C   UNL     1      16.115  -4.251  31.886  0.00  0.00    +0.096 C 
ATOM      9  C   UNL     1      14.654  -3.795  32.021  0.00  0.00    +0.033 C 
ATOM     10  C   UNL     1      16.057  -5.673  32.457  0.00  0.00    +0.122 C 
ATOM     11  C   UNL     1      13.844  -5.055  31.741  0.00  0.00    +0.110 C 
ATOM     13  C   UNL     1      14.374  -7.500  32.261  0.00  0.00    +0.302 C 
ATOM     29  H   UNL     1      12.445  -7.055  31.587  0.00  0.00    +0.151 HD
ENDROOT
BRANCH   8  12
ATOM      1  O   UNL     1      16.550  -5.220  29.672  0.00  0.00    -0.420 OA
ATOM      6  N   UNL     1      17.111  -3.062  29.846  0.00  0.00    -0.112 NA
ATOM      7  N   UNL     1      17.405  -3.478  28.560  0.00  0.00    -0.107 NA
ATOM     12  C   UNL     1      16.614  -4.111  30.458  0.00  0.00    +0.222 A 
ATOM     14  C   UNL     1      17.063  -4.744  28.505  0.00  0.00    +0.252 A 
BRANCH  14  16
ATOM     16  C   UNL     1      17.142  -5.683  27.425  0.00  0.00    +0.080 A 
ATOM     18  C   UNL     1      17.291  -7.048  27.672  0.00  0.00    +0.132 A 
ATOM     19  C   UNL     1      17.070  -5.217  26.112  0.00  0.00    +0.017 A 
ATOM     22  C   UNL     1      17.368  -7.946  26.608  0.00  0.00    +0.046 A 
ATOM     23  C   UNL     1      17.147  -6.115  25.047  0.00  0.00    +0.001 A 
ATOM     24  C   UNL     1      17.296  -7.479  25.295  0.00  0.00    +0.004 A 
BRANCH  18   3
ATOM      3  O   UNL     1      17.365  -7.532  28.945  0.00  0.00    -0.494 OA
ATOM     28  C   UNL     1      16.426  -8.542  29.309  0.00  0.00    +0.277 C 
ENDBRANCH  18   3
ENDBRANCH  14  16
ENDBRANCH   8  12
BRANCH   5  15
ATOM     15  C   UNL     1      12.522  -9.132  31.969  0.00  0.00    +0.141 C 
BRANCH  15  17
ATOM     17  C   UNL     1      11.046  -9.141  32.239  0.00  0.00    -0.030 A 
ATOM     20  C   UNL     1      10.366  -7.940  32.442  0.00  0.00    +0.005 A 
ATOM     21  C   UNL     1      10.353 -10.351  32.287  0.00  0.00    +0.005 A 
ATOM     25  C   UNL     1       8.994  -7.949  32.693  0.00  0.00    +0.000 A 
ATOM     26  C   UNL     1       8.982 -10.360  32.538  0.00  0.00    +0.000 A 
ATOM     27  C   UNL     1       8.301  -9.159  32.741  0.00  0.00    +0.000 A 
ENDBRANCH  15  17
ENDBRANCH   5  15
TORSDOF 5
ENDMDL
MODEL 4
REMARK VINA RESULT:      -1.1     15.327     19.275
REMARK  Name = 51137803
REMARK  6 active torsions:
REMARK  status: ('A' for Active; 'I' for Inactive)
REMARK    1  A    between atoms: O_3  and  C_18
REMARK    2  A    between atoms: O_3  and  C_28
REMARK    3  A    between atoms: N_5  and  C_15
REMARK    4  A    between atoms: C_8  and  C_12
REMARK    5  A    between atoms: C_14  and  C_16
REMARK    6  A    between atoms: C_15  and  C_17
REMARK                            x       y       z     vdW  Elec       q    Type
REMARK                         _______ _______ _______ _____ _____    ______ ____
ROOT
ATOM      2  O   UNL     1       1.213   0.547  24.542  0.00  0.00    -0.253 OA
ATOM      4  N   UNL     1      -0.426  -1.053  24.270  0.00  0.00    -0.285 N 
ATOM      5  N   UNL     1       1.087  -0.596  22.543  0.00  0.00    -0.295 N 
ATOM      8  C   UNL     1      -2.359  -1.591  25.545  0.00  0.00    +0.096 C 
ATOM      9  C   UNL     1      -2.083  -2.716  24.537  0.00  0.00    +0.033 C 
ATOM     10  C   UNL     1      -1.006  -0.871  25.595  0.00  0.00    +0.122 C 
ATOM     11  C   UNL     1      -1.143  -2.081  23.519  0.00  0.00    +0.110 C 
ATOM     13  C   UNL     1       0.667  -0.305  23.836  0.00  0.00    +0.302 C 
ATOM     29  H   UNL     1       0.577  -1.269  21.983  0.00  0.00    +0.151 HD
ENDROOT
BRANCH   8  12
ATOM      1  O   UNL     1      -3.480   0.586  25.354  0.00  0.00    -0.420 OA
ATOM      6  N   UNL     1      -4.693  -1.132  24.591  0.00  0.00    -0.112 NA
ATOM      7  N   UNL     1      -5.435   0.023  24.425  0.00  0.00    -0.107 NA
ATOM     12  C   UNL     1      -3.560  -0.756  25.136  0.00  0.00    +0.222 A 
ATOM     14  C   UNL     1      -4.688   0.999  24.885  0.00  0.00    +0.252 A 
BRANCH  14  16
ATOM     16  C   UNL     1      -4.944   2.408  24.966  0.00  0.00    +0.080 A 
ATOM     18  C   UNL     1      -4.097   3.326  24.345  0.00  0.00    +0.132 A 
ATOM     19  C   UNL     1      -6.056   2.857  25.678  0.00  0.00    +0.017 A 
ATOM     22  C   UNL     1      -4.361   4.692  24.436  0.00  0.00    +0.046 A 
ATOM     23  C   UNL     1      -6.320   4.224  25.770  0.00  0.00    +0.001 A 
ATOM     24  C   UNL     1      -5.473   5.141  25.149  0.00  0.00    +0.004 A 
BRANCH  18   3
ATOM      3  O   UNL     1      -3.002   2.915  23.642  0.00  0.00    -0.494 OA
ATOM     28  C   UNL     1      -1.733   3.067  24.275  0.00  0.00    +0.277 C 
ENDBRANCH  18   3
ENDBRANCH  14  16
ENDBRANCH   8  12
BRANCH   5  15
ATOM     15  C   UNL     1       2.202   0.081  21.920  0.00  0.00    +0.141 C 
BRANCH  15  17
ATOM     17  C   UNL     1       3.468  -0.076  22.711  0.00  0.00    -0.030 A 
ATOM     20  C   UNL     1       4.328   1.009  22.874  0.00  0.00    +0.005 A 
ATOM     21  C   UNL     1       3.784  -1.309  23.283  0.00  0.00    +0.005 A 
ATOM     25  C   UNL     1       5.505   0.862  23.609  0.00  0.00    +0.000 A 
ATOM     26  C   UNL     1       4.960  -1.455  24.018  0.00  0.00    +0.000 A 
ATOM     27  C   UNL     1       5.821  -0.370  24.182  0.00  0.00    +0.000 A 
ENDBRANCH  15  17
ENDBRANCH   5  15
TORSDOF 5
ENDMDL
MODEL 5
REMARK VINA RESULT:      -0.5      3.900      5.118
REMARK  Name = 51137803
REMARK  6 active torsions:
REMARK  status: ('A' for Active; 'I' for Inactive)
REMARK    1  A    between atoms: O_3  and  C_18
REMARK    2  A    between atoms: O_3  and  C_28
REMARK    3  A    between atoms: N_5  and  C_15
REMARK    4  A    between atoms: C_8  and  C_12
REMARK    5  A    between atoms: C_14  and  C_16
REMARK    6  A    between atoms: C_15  and  C_17
REMARK                            x       y       z     vdW  Elec       q    Type
REMARK                         _______ _______ _______ _____ _____    ______ ____
ROOT
ATOM      2  O   UNL     1      16.887  -6.485  32.783  0.00  0.00    -0.253 OA
ATOM      4  N   UNL     1      15.759  -4.614  32.045  0.00  0.00    -0.285 N 
ATOM      5  N   UNL     1      14.649  -6.665  32.257  0.00  0.00    -0.295 N 
ATOM      8  C   UNL     1      16.511  -2.475  31.331  0.00  0.00    +0.096 C 
ATOM      9  C   UNL     1      14.993  -2.432  31.563  0.00  0.00    +0.033 C 
ATOM     10  C   UNL     1      16.916  -3.730  32.114  0.00  0.00    +0.122 C 
ATOM     11  C   UNL     1      14.577  -3.898  31.573  0.00  0.00    +0.110 C 
ATOM     13  C   UNL     1      15.841  -5.961  32.392  0.00  0.00    +0.302 C 
ATOM     29  H   UNL     1      13.827  -6.204  31.886  0.00  0.00    +0.151 HD
ENDROOT
BRANCH   8  12
ATOM      1  O   UNL     1      16.762  -3.641  29.184  0.00  0.00    -0.420 OA
ATOM      6  N   UNL     1      17.225  -1.455  29.091  0.00  0.00    -0.112 NA
ATOM      7  N   UNL     1      17.405  -1.985  27.826  0.00  0.00    -0.107 NA
ATOM     12  C   UNL     1      16.851  -2.457  29.850  0.00  0.00    +0.222 A 
ATOM     14  C   UNL     1      17.124  -3.262  27.929  0.00  0.00    +0.252 A 
BRANCH  14  16
ATOM     16  C   UNL     1      17.139  -4.301  26.940  0.00  0.00    +0.080 A 
ATOM     18  C   UNL     1      16.917  -4.010  25.593  0.00  0.00    +0.132 A 
ATOM     19  C   UNL     1      17.376  -5.616  27.339  0.00  0.00    +0.017 A 
ATOM     22  C   UNL     1      16.932  -5.034  24.647  0.00  0.00    +0.046 A 
ATOM     23  C   UNL     1      17.391  -6.641  26.392  0.00  0.00    +0.001 A 
ATOM     24  C   UNL     1      17.170  -6.349  25.046  0.00  0.00    +0.004 A 
BRANCH  18   3
ATOM      3  O   UNL     1      16.682  -2.734  25.175  0.00  0.00    -0.494 OA
ATOM     28  C   UNL     1      16.347  -2.555  23.800  0.00  0.00    +0.277 C 
ENDBRANCH  18   3
ENDBRANCH  14  16
ENDBRANCH   8  12
BRANCH   5  15
ATOM     15  C   UNL     1      14.542  -8.072  32.566  0.00  0.00    +0.141 C 
BRANCH  15  17
ATOM     17  C   UNL     1      14.719  -8.931  31.347  0.00  0.00    -0.030 A 
ATOM     20  C   UNL     1      13.609  -9.521  30.742  0.00  0.00    +0.005 A 
ATOM     21  C   UNL     1      15.993  -9.138  30.819  0.00  0.00    +0.005 A 
ATOM     25  C   UNL     1      13.773 -10.318  29.610  0.00  0.00    +0.000 A 
ATOM     26  C   UNL     1      16.157  -9.935  29.686  0.00  0.00    +0.000 A 
ATOM     27  C   UNL     1      15.048 -10.525  29.081  0.00  0.00    +0.000 A 
ENDBRANCH  15  17
ENDBRANCH   5  15
TORSDOF 5
ENDMDL
