MODEL 1
REMARK VINA RESULT:      22.9      0.000      0.000
REMARK  Name = 23928013
REMARK  8 active torsions:
REMARK  status: ('A' for Active; 'I' for Inactive)
REMARK    1  A    between atoms: O_3  and  C_12
REMARK    2  A    between atoms: N_9  and  C_35
REMARK    3  A    between atoms: C_10  and  C_18
REMARK    4  A    between atoms: C_13  and  C_19
REMARK    5  A    between atoms: C_15  and  C_22
REMARK    6  A    between atoms: C_19  and  C_23
REMARK    7  A    between atoms: C_19  and  C_24
REMARK    8  A    between atoms: C_30  and  C_31
REMARK                            x       y       z     vdW  Elec       q    Type
REMARK                         _______ _______ _______ _____ _____    ______ ____
ROOT
ATOM      1  S   UNL     1       1.911  -2.185  24.352  0.00  0.00    -0.057 S 
ATOM      5  O   UNL     1       4.596   1.317  22.793  0.00  0.00    -0.268 OA
ATOM      6  N   UNL     1       1.890   0.301  23.639  0.00  0.00    -0.229 NA
ATOM      8  N   UNL     1       4.009  -0.842  23.531  0.00  0.00    -0.259 N 
ATOM     10  C   UNL     1      -1.855  -0.830  25.302  0.00  0.00    -0.022 C 
ATOM     11  C   UNL     1      -1.921   0.272  24.172  0.00  0.00    +0.033 C 
ATOM     12  C   UNL     1      -3.084   1.274  24.424  0.00  0.00    +0.123 C 
ATOM     13  C   UNL     1      -4.439   0.570  24.660  0.00  0.00    +0.029 C 
ATOM     14  C   UNL     1      -3.240  -1.500  25.457  0.00  0.00    +0.008 C 
ATOM     15  C   UNL     1      -0.521   0.976  23.949  0.00  0.00    +0.042 C 
ATOM     16  C   UNL     1      -4.357  -0.506  25.742  0.00  0.00    +0.007 C 
ATOM     17  C   UNL     1      -0.841  -1.944  24.893  0.00  0.00    +0.051 C 
ATOM     18  C   UNL     1      -1.426  -0.237  26.669  0.00  0.00    +0.012 C 
ATOM     20  C   UNL     1       0.595  -0.041  23.988  0.00  0.00    +0.057 A 
ATOM     21  C   UNL     1       0.435  -1.340  24.423  0.00  0.00    +0.015 A 
ATOM     22  C   UNL     1      -0.448   1.783  22.644  0.00  0.00    +0.014 C 
ATOM     25  C   UNL     1       2.665  -0.753  23.781  0.00  0.00    +0.165 A 
ATOM     30  C   UNL     1       4.894   0.159  23.063  0.00  0.00    +0.266 C 
ATOM     37  H   UNL     1       4.401  -1.760  23.727  0.00  0.00    +0.157 HD
ENDROOT
BRANCH  30  31
ATOM      9  N   UNL     1       7.378   0.433  23.463  0.00  0.00    -0.346 N 
ATOM     31  C   UNL     1       6.318  -0.241  22.914  0.00  0.00    +0.105 A 
ATOM     32  C   UNL     1       6.818  -1.321  22.220  0.00  0.00    +0.032 A 
ATOM     33  C   UNL     1       8.547  -0.202  23.132  0.00  0.00    +0.086 A 
ATOM     34  C   UNL     1       8.228  -1.296  22.359  0.00  0.00    +0.020 A 
ATOM     35  C   UNL     1       7.294   1.630  24.269  0.00  0.00    +0.149 C 
ENDBRANCH  30  31
BRANCH  12   3
ATOM      3  O   UNL     1      -3.238   2.117  23.284  0.00  0.00    -0.391 OA
ATOM     36  H   UNL     1      -4.016   1.812  22.786  0.00  0.00    +0.210 HD
ENDBRANCH  12   3
BRANCH  13  19
ATOM     19  C   UNL     1      -5.546   1.570  25.012  0.00  0.00    +0.078 C 
ATOM     23  C   UNL     1      -6.904   1.056  24.566  0.00  0.00    +0.017 C 
BRANCH  19  24
ATOM      2  S   UNL     1      -1.588   4.944  25.593  0.00  0.00    -0.158 S 
ATOM      4  O   UNL     1      -5.704   3.131  23.236  0.00  0.00    -0.275 OA
ATOM      7  N   UNL     1      -4.467   3.793  25.089  0.00  0.00    -0.300 N 
ATOM     24  C   UNL     1      -5.251   2.899  24.360  0.00  0.00    +0.219 C 
ATOM     26  C   UNL     1      -3.819   3.499  26.373  0.00  0.00    +0.118 C 
ATOM     27  C   UNL     1      -4.138   5.101  24.521  0.00  0.00    +0.118 C 
ATOM     28  C   UNL     1      -2.306   3.388  26.213  0.00  0.00    +0.088 C 
ATOM     29  C   UNL     1      -2.664   5.186  24.142  0.00  0.00    +0.088 C 
ENDBRANCH  19  24
ENDBRANCH  13  19
TORSDOF 4
ENDMDL
