MODEL 1
REMARK VINA RESULT:      -3.7      0.000      0.000
REMARK  Name = 40777339
REMARK  10 active torsions:
REMARK  status: ('A' for Active; 'I' for Inactive)
REMARK    1  A    between atoms: N_4  and  C_24
REMARK    2  A    between atoms: N_4  and  C_25
REMARK    3  A    between atoms: C_6  and  C_10
REMARK    4  A    between atoms: C_7  and  C_12
REMARK    5  A    between atoms: C_10  and  C_20
REMARK    6  A    between atoms: C_11  and  C_16
REMARK    7  A    between atoms: C_12  and  C_22
REMARK    8  A    between atoms: C_16  and  C_21
REMARK    9  A    between atoms: C_24  and  C_26
REMARK   10  A    between atoms: C_25  and  C_27
REMARK                            x       y       z     vdW  Elec       q    Type
REMARK                         _______ _______ _______ _____ _____    ______ ____
ROOT
ATOM      3  N   UNL     1      -3.765  -2.903  25.247  0.00  0.00    -0.316 NA
ATOM      6  C   UNL     1      -2.175  -1.050  24.790  0.00  0.00    +0.012 C 
ATOM      7  C   UNL     1      -3.101  -0.490  23.683  0.00  0.00    +0.004 C 
ATOM      8  C   UNL     1      -3.983  -1.628  23.142  0.00  0.00    +0.019 C 
ATOM      9  C   UNL     1      -2.967  -1.834  25.850  0.00  0.00    +0.085 C 
ATOM     13  C   UNL     1      -4.706  -2.385  24.255  0.00  0.00    +0.081 C 
ATOM     28  H   UNL     1      -4.281  -3.392  25.978  0.00  0.00    +0.122 HD
ENDROOT
BRANCH   6  10
ATOM     10  C   UNL     1      -1.312   0.025  25.450  0.00  0.00    +0.064 C 
BRANCH  10  20
ATOM      1  O   UNL     1       1.441   1.647  23.791  0.00  0.00    -0.359 OA
ATOM      5  N   UNL     1       0.443   1.599  24.758  0.00  0.00    -0.083 NA
ATOM     20  C   UNL     1      -0.164   0.423  24.569  0.00  0.00    +0.084 A 
ATOM     21  C   UNL     1       1.406   0.508  23.053  0.00  0.00    +0.138 A 
ATOM     23  C   UNL     1       0.402  -0.305  23.508  0.00  0.00    +0.071 A 
BRANCH  21  16
ATOM     16  C   UNL     1       2.399   0.393  21.980  0.00  0.00    +0.080 C 
BRANCH  16  11
ATOM     11  C   UNL     1       3.752  -0.127  22.464  0.00  0.00    -0.004 C 
ATOM     14  C   UNL     1       4.597   1.016  23.042  0.00  0.00    +0.004 C 
ATOM     15  C   UNL     1       3.563  -1.245  23.500  0.00  0.00    +0.004 C 
ATOM     17  C   UNL     1       5.933   0.512  23.583  0.00  0.00    +0.000 C 
ATOM     18  C   UNL     1       4.900  -1.744  24.039  0.00  0.00    +0.000 C 
ATOM     19  C   UNL     1       5.742  -0.604  24.604  0.00  0.00    +0.000 C 
ENDBRANCH  16  11
ENDBRANCH  21  16
ENDBRANCH  10  20
ENDBRANCH   6  10
BRANCH   7  12
ATOM     12  C   UNL     1      -3.959   0.699  24.131  0.00  0.00    +0.100 C 
BRANCH  12  22
ATOM      2  O   UNL     1      -2.675   2.164  22.737  0.00  0.00    -0.276 OA
ATOM      4  N   UNL     1      -3.553   3.077  24.680  0.00  0.00    -0.302 N 
ATOM     22  C   UNL     1      -3.332   2.035  23.772  0.00  0.00    +0.216 C 
BRANCH   4  24
ATOM     24  C   UNL     1      -3.017   4.418  24.474  0.00  0.00    +0.104 C 
ATOM     26  C   UNL     1      -1.719   4.617  25.229  0.00  0.00    +0.024 C 
ENDBRANCH   4  24
BRANCH   4  25
ATOM     25  C   UNL     1      -4.335   2.901  25.900  0.00  0.00    +0.104 C 
ATOM     27  C   UNL     1      -5.793   3.249  25.679  0.00  0.00    +0.024 C 
ENDBRANCH   4  25
ENDBRANCH  12  22
ENDBRANCH   7  12
TORSDOF 8
ENDMDL
MODEL 2
REMARK VINA RESULT:      -2.8      1.796      3.968
REMARK  Name = 40777339
REMARK  10 active torsions:
REMARK  status: ('A' for Active; 'I' for Inactive)
REMARK    1  A    between atoms: N_4  and  C_24
REMARK    2  A    between atoms: N_4  and  C_25
REMARK    3  A    between atoms: C_6  and  C_10
REMARK    4  A    between atoms: C_7  and  C_12
REMARK    5  A    between atoms: C_10  and  C_20
REMARK    6  A    between atoms: C_11  and  C_16
REMARK    7  A    between atoms: C_12  and  C_22
REMARK    8  A    between atoms: C_16  and  C_21
REMARK    9  A    between atoms: C_24  and  C_26
REMARK   10  A    between atoms: C_25  and  C_27
REMARK                            x       y       z     vdW  Elec       q    Type
REMARK                         _______ _______ _______ _____ _____    ______ ____
ROOT
ATOM      3  N   UNL     1       0.310   4.697  24.488  0.00  0.00    -0.316 NA
ATOM      6  C   UNL     1      -0.964   2.997  25.775  0.00  0.00    +0.012 C 
ATOM      7  C   UNL     1      -2.272   3.807  25.606  0.00  0.00    +0.004 C 
ATOM      8  C   UNL     1      -1.921   5.286  25.372  0.00  0.00    +0.019 C 
ATOM      9  C   UNL     1       0.025   3.269  24.628  0.00  0.00    +0.085 C 
ATOM     13  C   UNL     1      -0.905   5.473  24.245  0.00  0.00    +0.081 C 
ATOM     28  H   UNL     1       0.960   4.837  23.715  0.00  0.00    +0.122 HD
ENDROOT
BRANCH   6  10
ATOM     10  C   UNL     1      -1.205   1.496  25.934  0.00  0.00    +0.064 C 
BRANCH  10  20
ATOM      1  O   UNL     1       0.237  -1.024  23.804  0.00  0.00    -0.359 OA
ATOM      5  N   UNL     1      -0.549  -0.624  24.879  0.00  0.00    -0.083 NA
ATOM     20  C   UNL     1      -0.467   0.710  24.889  0.00  0.00    +0.084 A 
ATOM     21  C   UNL     1       0.766   0.073  23.203  0.00  0.00    +0.138 A 
ATOM     23  C   UNL     1       0.348   1.203  23.855  0.00  0.00    +0.071 A 
BRANCH  21  16
ATOM     16  C   UNL     1       1.627  -0.169  22.040  0.00  0.00    +0.080 C 
BRANCH  16  11
ATOM     11  C   UNL     1       3.104  -0.309  22.405  0.00  0.00    -0.004 C 
ATOM     14  C   UNL     1       3.690   1.044  22.827  0.00  0.00    +0.004 C 
ATOM     15  C   UNL     1       3.292  -1.357  23.511  0.00  0.00    +0.004 C 
ATOM     17  C   UNL     1       5.152   0.919  23.248  0.00  0.00    +0.000 C 
ATOM     18  C   UNL     1       4.754  -1.477  23.931  0.00  0.00    +0.000 C 
ATOM     19  C   UNL     1       5.336  -0.128  24.342  0.00  0.00    +0.000 C 
ENDBRANCH  16  11
ENDBRANCH  21  16
ENDBRANCH  10  20
ENDBRANCH   6  10
BRANCH   7  12
ATOM     12  C   UNL     1      -3.191   3.282  24.495  0.00  0.00    +0.100 C 
BRANCH  12  22
ATOM      2  O   UNL     1      -5.273   3.990  25.446  0.00  0.00    -0.276 OA
ATOM      4  N   UNL     1      -5.104   1.755  24.852  0.00  0.00    -0.302 N 
ATOM     22  C   UNL     1      -4.614   3.059  24.977  0.00  0.00    +0.216 C 
BRANCH   4  24
ATOM     24  C   UNL     1      -6.451   1.383  25.270  0.00  0.00    +0.104 C 
ATOM     26  C   UNL     1      -6.641   1.574  26.760  0.00  0.00    +0.024 C 
ENDBRANCH   4  24
BRANCH   4  25
ATOM     25  C   UNL     1      -4.304   0.667  24.294  0.00  0.00    +0.104 C 
ATOM     27  C   UNL     1      -4.117  -0.453  25.296  0.00  0.00    +0.024 C 
ENDBRANCH   4  25
ENDBRANCH  12  22
ENDBRANCH   7  12
TORSDOF 8
ENDMDL
MODEL 3
REMARK VINA RESULT:      -2.0      1.572      3.955
REMARK  Name = 40777339
REMARK  10 active torsions:
REMARK  status: ('A' for Active; 'I' for Inactive)
REMARK    1  A    between atoms: N_4  and  C_24
REMARK    2  A    between atoms: N_4  and  C_25
REMARK    3  A    between atoms: C_6  and  C_10
REMARK    4  A    between atoms: C_7  and  C_12
REMARK    5  A    between atoms: C_10  and  C_20
REMARK    6  A    between atoms: C_11  and  C_16
REMARK    7  A    between atoms: C_12  and  C_22
REMARK    8  A    between atoms: C_16  and  C_21
REMARK    9  A    between atoms: C_24  and  C_26
REMARK   10  A    between atoms: C_25  and  C_27
REMARK                            x       y       z     vdW  Elec       q    Type
REMARK                         _______ _______ _______ _____ _____    ______ ____
ROOT
ATOM      3  N   UNL     1      -0.954   5.290  25.004  0.00  0.00    -0.316 NA
ATOM      6  C   UNL     1      -1.597   3.056  25.878  0.00  0.00    +0.012 C 
ATOM      7  C   UNL     1      -3.097   3.428  25.810  0.00  0.00    +0.004 C 
ATOM      8  C   UNL     1      -3.239   4.958  25.883  0.00  0.00    +0.019 C 
ATOM      9  C   UNL     1      -0.767   3.847  24.851  0.00  0.00    +0.085 C 
ATOM     13  C   UNL     1      -2.357   5.675  24.862  0.00  0.00    +0.081 C 
ATOM     28  H   UNL     1      -0.397   5.778  24.303  0.00  0.00    +0.122 HD
ENDROOT
BRANCH   6  10
ATOM     10  C   UNL     1      -1.344   1.556  25.731  0.00  0.00    +0.064 C 
BRANCH  10  20
ATOM      1  O   UNL     1       1.700   1.534  23.808  0.00  0.00    -0.359 OA
ATOM      5  N   UNL     1       0.870   2.059  24.792  0.00  0.00    -0.083 NA
ATOM     20  C   UNL     1      -0.216   1.281  24.780  0.00  0.00    +0.084 A 
ATOM     21  C   UNL     1       1.093   0.463  23.235  0.00  0.00    +0.138 A 
ATOM     23  C   UNL     1      -0.130   0.259  23.818  0.00  0.00    +0.071 A 
BRANCH  21  16
ATOM     16  C   UNL     1       1.836  -0.216  22.167  0.00  0.00    +0.080 C 
BRANCH  16  11
ATOM     11  C   UNL     1       3.318  -0.398  22.487  0.00  0.00    -0.004 C 
ATOM     14  C   UNL     1       3.960   0.941  22.870  0.00  0.00    +0.004 C 
ATOM     15  C   UNL     1       3.508  -1.435  23.604  0.00  0.00    +0.004 C 
ATOM     17  C   UNL     1       5.430   0.776  23.246  0.00  0.00    +0.000 C 
ATOM     18  C   UNL     1       4.978  -1.596  23.979  0.00  0.00    +0.000 C 
ATOM     19  C   UNL     1       5.616  -0.260  24.350  0.00  0.00    +0.000 C 
ENDBRANCH  16  11
ENDBRANCH  21  16
ENDBRANCH  10  20
ENDBRANCH   6  10
BRANCH   7  12
ATOM     12  C   UNL     1      -3.822   2.872  24.579  0.00  0.00    +0.100 C 
BRANCH  12  22
ATOM      2  O   UNL     1      -5.328   1.400  25.722  0.00  0.00    -0.276 OA
ATOM      4  N   UNL     1      -4.026   0.465  24.046  0.00  0.00    -0.302 N 
ATOM     22  C   UNL     1      -4.469   1.523  24.846  0.00  0.00    +0.216 C 
BRANCH   4  24
ATOM     24  C   UNL     1      -4.551  -0.889  24.183  0.00  0.00    +0.104 C 
ATOM     26  C   UNL     1      -3.545  -1.810  24.840  0.00  0.00    +0.024 C 
ENDBRANCH   4  24
BRANCH   4  25
ATOM     25  C   UNL     1      -3.006   0.634  23.015  0.00  0.00    +0.104 C 
ATOM     27  C   UNL     1      -3.079   2.009  22.384  0.00  0.00    +0.024 C 
ENDBRANCH   4  25
ENDBRANCH  12  22
ENDBRANCH   7  12
TORSDOF 8
ENDMDL
MODEL 4
REMARK VINA RESULT:      -1.6      1.550      4.105
REMARK  Name = 40777339
REMARK  10 active torsions:
REMARK  status: ('A' for Active; 'I' for Inactive)
REMARK    1  A    between atoms: N_4  and  C_24
REMARK    2  A    between atoms: N_4  and  C_25
REMARK    3  A    between atoms: C_6  and  C_10
REMARK    4  A    between atoms: C_7  and  C_12
REMARK    5  A    between atoms: C_10  and  C_20
REMARK    6  A    between atoms: C_11  and  C_16
REMARK    7  A    between atoms: C_12  and  C_22
REMARK    8  A    between atoms: C_16  and  C_21
REMARK    9  A    between atoms: C_24  and  C_26
REMARK   10  A    between atoms: C_25  and  C_27
REMARK                            x       y       z     vdW  Elec       q    Type
REMARK                         _______ _______ _______ _____ _____    ______ ____
ROOT
ATOM      3  N   UNL     1      -5.771   3.447  25.707  0.00  0.00    -0.316 NA
ATOM      6  C   UNL     1      -3.347   3.256  25.201  0.00  0.00    +0.012 C 
ATOM      7  C   UNL     1      -3.409   1.716  25.342  0.00  0.00    +0.004 C 
ATOM      8  C   UNL     1      -4.596   1.342  26.247  0.00  0.00    +0.019 C 
ATOM      9  C   UNL     1      -4.707   3.843  24.784  0.00  0.00    +0.085 C 
ATOM     13  C   UNL     1      -5.902   1.993  25.794  0.00  0.00    +0.081 C 
ATOM     28  H   UNL     1      -6.656   3.846  25.393  0.00  0.00    +0.122 HD
ENDROOT
BRANCH   6  10
ATOM     10  C   UNL     1      -2.245   3.727  24.252  0.00  0.00    +0.064 C 
BRANCH  10  20
ATOM      1  O   UNL     1       0.624   1.623  24.802  0.00  0.00    -0.359 OA
ATOM      5  N   UNL     1      -0.266   2.616  25.194  0.00  0.00    -0.083 NA
ATOM     20  C   UNL     1      -1.125   2.731  24.176  0.00  0.00    +0.084 A 
ATOM     21  C   UNL     1       0.279   1.172  23.569  0.00  0.00    +0.138 A 
ATOM     23  C   UNL     1      -0.829   1.846  23.125  0.00  0.00    +0.071 A 
BRANCH  21  16
ATOM     16  C   UNL     1       1.120   0.114  22.999  0.00  0.00    +0.080 C 
BRANCH  16  11
ATOM     11  C   UNL     1       2.555   0.137  23.524  0.00  0.00    -0.004 C 
ATOM     14  C   UNL     1       3.178  -1.263  23.463  0.00  0.00    +0.004 C 
ATOM     15  C   UNL     1       3.402   1.148  22.739  0.00  0.00    +0.004 C 
ATOM     17  C   UNL     1       4.630  -1.256  23.932  0.00  0.00    +0.000 C 
ATOM     18  C   UNL     1       4.854   1.151  23.210  0.00  0.00    +0.000 C 
ATOM     19  C   UNL     1       5.468  -0.245  23.156  0.00  0.00    +0.000 C 
ENDBRANCH  16  11
ENDBRANCH  21  16
ENDBRANCH  10  20
ENDBRANCH   6  10
BRANCH   7  12
ATOM     12  C   UNL     1      -3.486   0.970  24.005  0.00  0.00    +0.100 C 
BRANCH  12  22
ATOM      2  O   UNL     1      -4.930  -0.914  23.679  0.00  0.00    -0.276 OA
ATOM      4  N   UNL     1      -3.003  -1.279  24.918  0.00  0.00    -0.302 N 
ATOM     22  C   UNL     1      -3.885  -0.486  24.176  0.00  0.00    +0.216 C 
BRANCH   4  24
ATOM     24  C   UNL     1      -3.248  -2.694  25.169  0.00  0.00    +0.104 C 
ATOM     26  C   UNL     1      -3.766  -3.395  23.930  0.00  0.00    +0.024 C 
ENDBRANCH   4  24
BRANCH   4  25
ATOM     25  C   UNL     1      -1.771  -0.749  25.498  0.00  0.00    +0.104 C 
ATOM     27  C   UNL     1      -0.651  -1.767  25.442  0.00  0.00    +0.024 C 
ENDBRANCH   4  25
ENDBRANCH  12  22
ENDBRANCH   7  12
TORSDOF 8
ENDMDL
MODEL 5
REMARK VINA RESULT:      -1.4      1.295      2.023
REMARK  Name = 40777339
REMARK  10 active torsions:
REMARK  status: ('A' for Active; 'I' for Inactive)
REMARK    1  A    between atoms: N_4  and  C_24
REMARK    2  A    between atoms: N_4  and  C_25
REMARK    3  A    between atoms: C_6  and  C_10
REMARK    4  A    between atoms: C_7  and  C_12
REMARK    5  A    between atoms: C_10  and  C_20
REMARK    6  A    between atoms: C_11  and  C_16
REMARK    7  A    between atoms: C_12  and  C_22
REMARK    8  A    between atoms: C_16  and  C_21
REMARK    9  A    between atoms: C_24  and  C_26
REMARK   10  A    between atoms: C_25  and  C_27
REMARK                            x       y       z     vdW  Elec       q    Type
REMARK                         _______ _______ _______ _____ _____    ______ ____
ROOT
ATOM      3  N   UNL     1      -2.368  -2.660  24.803  0.00  0.00    -0.316 NA
ATOM      6  C   UNL     1      -2.623  -0.379  23.854  0.00  0.00    +0.012 C 
ATOM      7  C   UNL     1      -4.153  -0.422  24.086  0.00  0.00    +0.004 C 
ATOM      8  C   UNL     1      -4.615  -1.889  24.122  0.00  0.00    +0.019 C 
ATOM      9  C   UNL     1      -1.873  -1.285  24.847  0.00  0.00    +0.085 C 
ATOM     13  C   UNL     1      -3.798  -2.733  25.100  0.00  0.00    +0.081 C 
ATOM     28  H   UNL     1      -1.855  -3.226  25.479  0.00  0.00    +0.122 HD
ENDROOT
BRANCH   6  10
ATOM     10  C   UNL     1      -2.052   1.038  23.882  0.00  0.00    +0.064 C 
BRANCH  10  20
ATOM      1  O   UNL     1       1.499   1.631  23.818  0.00  0.00    -0.359 OA
ATOM      5  N   UNL     1       0.215   1.898  24.280  0.00  0.00    -0.083 NA
ATOM     20  C   UNL     1      -0.573   1.038  23.628  0.00  0.00    +0.084 A 
ATOM     21  C   UNL     1       1.448   0.625  22.908  0.00  0.00    +0.138 A 
ATOM     23  C   UNL     1       0.151   0.211  22.751  0.00  0.00    +0.071 A 
BRANCH  21  16
ATOM     16  C   UNL     1       2.725   0.213  22.315  0.00  0.00    +0.080 C 
BRANCH  16  11
ATOM     11  C   UNL     1       3.830   0.006  23.349  0.00  0.00    -0.004 C 
ATOM     14  C   UNL     1       4.284  -1.459  23.372  0.00  0.00    +0.004 C 
ATOM     15  C   UNL     1       5.015   0.942  23.069  0.00  0.00    +0.004 C 
ATOM     17  C   UNL     1       5.426  -1.680  24.361  0.00  0.00    +0.000 C 
ATOM     18  C   UNL     1       6.155   0.717  24.058  0.00  0.00    +0.000 C 
ATOM     19  C   UNL     1       6.598  -0.743  24.086  0.00  0.00    +0.000 C 
ENDBRANCH  16  11
ENDBRANCH  21  16
ENDBRANCH  10  20
ENDBRANCH   6  10
BRANCH   7  12
ATOM     12  C   UNL     1      -4.614   0.327  25.342  0.00  0.00    +0.100 C 
BRANCH  12  22
ATOM      2  O   UNL     1      -6.429   1.682  24.561  0.00  0.00    -0.276 OA
ATOM      4  N   UNL     1      -4.521   2.798  25.263  0.00  0.00    -0.302 N 
ATOM     22  C   UNL     1      -5.283   1.651  25.016  0.00  0.00    +0.216 C 
BRANCH   4  24
ATOM     24  C   UNL     1      -5.024   4.141  25.002  0.00  0.00    +0.104 C 
ATOM     26  C   UNL     1      -6.204   4.474  25.890  0.00  0.00    +0.024 C 
ENDBRANCH   4  24
BRANCH   4  25
ATOM     25  C   UNL     1      -3.165   2.736  25.803  0.00  0.00    +0.104 C 
ATOM     27  C   UNL     1      -2.526   4.109  25.854  0.00  0.00    +0.024 C 
ENDBRANCH   4  25
ENDBRANCH  12  22
ENDBRANCH   7  12
TORSDOF 8
ENDMDL
MODEL 6
REMARK VINA RESULT:      -1.0      2.738      4.482
REMARK  Name = 40777339
REMARK  10 active torsions:
REMARK  status: ('A' for Active; 'I' for Inactive)
REMARK    1  A    between atoms: N_4  and  C_24
REMARK    2  A    between atoms: N_4  and  C_25
REMARK    3  A    between atoms: C_6  and  C_10
REMARK    4  A    between atoms: C_7  and  C_12
REMARK    5  A    between atoms: C_10  and  C_20
REMARK    6  A    between atoms: C_11  and  C_16
REMARK    7  A    between atoms: C_12  and  C_22
REMARK    8  A    between atoms: C_16  and  C_21
REMARK    9  A    between atoms: C_24  and  C_26
REMARK   10  A    between atoms: C_25  and  C_27
REMARK                            x       y       z     vdW  Elec       q    Type
REMARK                         _______ _______ _______ _____ _____    ______ ____
ROOT
ATOM      3  N   UNL     1      -3.968  -3.725  24.129  0.00  0.00    -0.316 NA
ATOM      6  C   UNL     1      -2.066  -2.131  24.238  0.00  0.00    +0.012 C 
ATOM      7  C   UNL     1      -3.030  -0.927  24.120  0.00  0.00    +0.004 C 
ATOM      8  C   UNL     1      -4.323  -1.385  23.422  0.00  0.00    +0.019 C 
ATOM      9  C   UNL     1      -2.759  -3.354  24.865  0.00  0.00    +0.085 C 
ATOM     13  C   UNL     1      -4.930  -2.626  24.075  0.00  0.00    +0.081 C 
ATOM     28  H   UNL     1      -4.402  -4.531  24.579  0.00  0.00    +0.122 HD
ENDROOT
BRANCH   6  10
ATOM     10  C   UNL     1      -0.780  -1.797  24.993  0.00  0.00    +0.064 C 
BRANCH  10  20
ATOM      1  O   UNL     1       0.911   0.864  23.255  0.00  0.00    -0.359 OA
ATOM      5  N   UNL     1       0.524  -0.464  23.393  0.00  0.00    -0.083 NA
ATOM     20  C   UNL     1      -0.190  -0.500  24.523  0.00  0.00    +0.084 A 
ATOM     21  C   UNL     1       0.425   1.584  24.298  0.00  0.00    +0.138 A 
ATOM     23  C   UNL     1      -0.284   0.763  25.134  0.00  0.00    +0.071 A 
BRANCH  21  16
ATOM     16  C   UNL     1       0.742   3.016  24.310  0.00  0.00    +0.080 C 
BRANCH  16  11
ATOM     11  C   UNL     1      -0.207   3.836  25.181  0.00  0.00    -0.004 C 
ATOM     14  C   UNL     1      -0.843   4.973  24.371  0.00  0.00    +0.004 C 
ATOM     15  C   UNL     1      -1.286   2.937  25.801  0.00  0.00    +0.004 C 
ATOM     17  C   UNL     1      -1.838   5.775  25.206  0.00  0.00    +0.000 C 
ATOM     18  C   UNL     1      -2.280   3.742  26.635  0.00  0.00    +0.000 C 
ATOM     19  C   UNL     1      -2.903   4.877  25.828  0.00  0.00    +0.000 C 
ENDBRANCH  16  11
ENDBRANCH  21  16
ENDBRANCH  10  20
ENDBRANCH   6  10
BRANCH   7  12
ATOM     12  C   UNL     1      -3.345  -0.246  25.457  0.00  0.00    +0.100 C 
BRANCH  12  22
ATOM      2  O   UNL     1      -5.512   0.576  26.067  0.00  0.00    -0.276 OA
ATOM      4  N   UNL     1      -4.377   1.749  24.420  0.00  0.00    -0.302 N 
ATOM     22  C   UNL     1      -4.515   0.718  25.355  0.00  0.00    +0.216 C 
BRANCH   4  24
ATOM     24  C   UNL     1      -5.414   2.753  24.206  0.00  0.00    +0.104 C 
ATOM     26  C   UNL     1      -5.753   3.481  25.490  0.00  0.00    +0.024 C 
ENDBRANCH   4  24
BRANCH   4  25
ATOM     25  C   UNL     1      -3.187   1.898  23.586  0.00  0.00    +0.104 C 
ATOM     27  C   UNL     1      -3.350   3.021  22.583  0.00  0.00    +0.024 C 
ENDBRANCH   4  25
ENDBRANCH  12  22
ENDBRANCH   7  12
TORSDOF 8
ENDMDL
MODEL 7
REMARK VINA RESULT:      -1.0      1.220      1.923
REMARK  Name = 40777339
REMARK  10 active torsions:
REMARK  status: ('A' for Active; 'I' for Inactive)
REMARK    1  A    between atoms: N_4  and  C_24
REMARK    2  A    between atoms: N_4  and  C_25
REMARK    3  A    between atoms: C_6  and  C_10
REMARK    4  A    between atoms: C_7  and  C_12
REMARK    5  A    between atoms: C_10  and  C_20
REMARK    6  A    between atoms: C_11  and  C_16
REMARK    7  A    between atoms: C_12  and  C_22
REMARK    8  A    between atoms: C_16  and  C_21
REMARK    9  A    between atoms: C_24  and  C_26
REMARK   10  A    between atoms: C_25  and  C_27
REMARK                            x       y       z     vdW  Elec       q    Type
REMARK                         _______ _______ _______ _____ _____    ______ ____
ROOT
ATOM      3  N   UNL     1      -3.442  -3.222  24.891  0.00  0.00    -0.316 NA
ATOM      6  C   UNL     1      -2.567  -0.898  24.881  0.00  0.00    +0.012 C 
ATOM      7  C   UNL     1      -3.800  -0.406  24.086  0.00  0.00    +0.004 C 
ATOM      8  C   UNL     1      -4.398  -1.588  23.304  0.00  0.00    +0.019 C 
ATOM      9  C   UNL     1      -2.892  -2.148  25.718  0.00  0.00    +0.085 C 
ATOM     13  C   UNL     1      -4.656  -2.804  24.193  0.00  0.00    +0.081 C 
ATOM     28  H   UNL     1      -3.652  -4.027  25.481  0.00  0.00    +0.122 HD
ENDROOT
BRANCH   6  10
ATOM     10  C   UNL     1      -1.946   0.189  25.758  0.00  0.00    +0.064 C 
BRANCH  10  20
ATOM      1  O   UNL     1       0.918   2.143  24.787  0.00  0.00    -0.359 OA
ATOM      5  N   UNL     1      -0.213   1.920  25.564  0.00  0.00    -0.083 NA
ATOM     20  C   UNL     1      -0.704   0.754  25.133  0.00  0.00    +0.084 A 
ATOM     21  C   UNL     1       1.075   1.113  23.917  0.00  0.00    +0.138 A 
ATOM     23  C   UNL     1       0.068   0.201  24.097  0.00  0.00    +0.071 A 
BRANCH  21  16
ATOM     16  C   UNL     1       2.230   1.187  23.015  0.00  0.00    +0.080 C 
BRANCH  16  11
ATOM     11  C   UNL     1       3.492   0.557  23.600  0.00  0.00    -0.004 C 
ATOM     14  C   UNL     1       3.477  -0.965  23.411  0.00  0.00    +0.004 C 
ATOM     15  C   UNL     1       4.748   1.175  22.969  0.00  0.00    +0.004 C 
ATOM     17  C   UNL     1       4.755  -1.612  23.940  0.00  0.00    +0.000 C 
ATOM     18  C   UNL     1       6.023   0.524  23.499  0.00  0.00    +0.000 C 
ATOM     19  C   UNL     1       6.001  -0.990  23.317  0.00  0.00    +0.000 C 
ENDBRANCH  16  11
ENDBRANCH  21  16
ENDBRANCH  10  20
ENDBRANCH   6  10
BRANCH   7  12
ATOM     12  C   UNL     1      -4.869   0.273  24.951  0.00  0.00    +0.100 C 
BRANCH  12  22
ATOM      2  O   UNL     1      -5.222   2.434  25.923  0.00  0.00    -0.276 OA
ATOM      4  N   UNL     1      -3.876   2.346  24.037  0.00  0.00    -0.302 N 
ATOM     22  C   UNL     1      -4.683   1.779  25.029  0.00  0.00    +0.216 C 
BRANCH   4  24
ATOM     24  C   UNL     1      -3.602   3.777  23.977  0.00  0.00    +0.104 C 
ATOM     26  C   UNL     1      -2.644   4.204  25.069  0.00  0.00    +0.024 C 
ENDBRANCH   4  24
BRANCH   4  25
ATOM     25  C   UNL     1      -3.247   1.549  22.986  0.00  0.00    +0.104 C 
ATOM     27  C   UNL     1      -2.633   2.428  21.916  0.00  0.00    +0.024 C 
ENDBRANCH   4  25
ENDBRANCH  12  22
ENDBRANCH   7  12
TORSDOF 8
ENDMDL
MODEL 8
REMARK VINA RESULT:      -0.8      2.819      5.648
REMARK  Name = 40777339
REMARK  10 active torsions:
REMARK  status: ('A' for Active; 'I' for Inactive)
REMARK    1  A    between atoms: N_4  and  C_24
REMARK    2  A    between atoms: N_4  and  C_25
REMARK    3  A    between atoms: C_6  and  C_10
REMARK    4  A    between atoms: C_7  and  C_12
REMARK    5  A    between atoms: C_10  and  C_20
REMARK    6  A    between atoms: C_11  and  C_16
REMARK    7  A    between atoms: C_12  and  C_22
REMARK    8  A    between atoms: C_16  and  C_21
REMARK    9  A    between atoms: C_24  and  C_26
REMARK   10  A    between atoms: C_25  and  C_27
REMARK                            x       y       z     vdW  Elec       q    Type
REMARK                         _______ _______ _______ _____ _____    ______ ____
ROOT
ATOM      3  N   UNL     1      -0.641   5.860  25.079  0.00  0.00    -0.316 NA
ATOM      6  C   UNL     1      -0.296   3.512  24.349  0.00  0.00    +0.012 C 
ATOM      7  C   UNL     1      -1.732   3.134  24.784  0.00  0.00    +0.004 C 
ATOM      8  C   UNL     1      -2.202   4.117  25.870  0.00  0.00    +0.019 C 
ATOM      9  C   UNL     1      -0.186   5.003  23.984  0.00  0.00    +0.085 C 
ATOM     13  C   UNL     1      -2.025   5.576  25.453  0.00  0.00    +0.081 C 
ATOM     28  H   UNL     1      -0.562   6.837  24.797  0.00  0.00    +0.122 HD
ENDROOT
BRANCH   6  10
ATOM     10  C   UNL     1       0.235   2.641  23.210  0.00  0.00    +0.064 C 
BRANCH  10  20
ATOM      1  O   UNL     1       0.935  -0.872  23.574  0.00  0.00    -0.359 OA
ATOM      5  N   UNL     1       1.114   0.361  22.957  0.00  0.00    -0.083 NA
ATOM     20  C   UNL     1       0.302   1.196  23.611  0.00  0.00    +0.084 A 
ATOM     21  C   UNL     1       0.027  -0.745  24.575  0.00  0.00    +0.138 A 
ATOM     23  C   UNL     1      -0.407   0.553  24.641  0.00  0.00    +0.071 A 
BRANCH  21  16
ATOM     16  C   UNL     1      -0.283  -1.960  25.337  0.00  0.00    +0.080 C 
BRANCH  16  11
ATOM     11  C   UNL     1      -1.773  -2.297  25.352  0.00  0.00    -0.004 C 
ATOM     14  C   UNL     1      -2.604  -1.068  25.742  0.00  0.00    +0.004 C 
ATOM     15  C   UNL     1      -2.217  -2.847  23.989  0.00  0.00    +0.004 C 
ATOM     17  C   UNL     1      -4.101  -1.366  25.712  0.00  0.00    +0.000 C 
ATOM     18  C   UNL     1      -3.715  -3.142  23.962  0.00  0.00    +0.000 C 
ATOM     19  C   UNL     1      -4.538  -1.921  24.360  0.00  0.00    +0.000 C 
ENDBRANCH  16  11
ENDBRANCH  21  16
ENDBRANCH  10  20
ENDBRANCH   6  10
BRANCH   7  12
ATOM     12  C   UNL     1      -2.738   3.076  23.629  0.00  0.00    +0.100 C 
BRANCH  12  22
ATOM      2  O   UNL     1      -3.808   0.954  23.321  0.00  0.00    -0.276 OA
ATOM      4  N   UNL     1      -4.862   2.458  24.738  0.00  0.00    -0.302 N 
ATOM     22  C   UNL     1      -3.840   2.058  23.870  0.00  0.00    +0.216 C 
BRANCH   4  24
ATOM     24  C   UNL     1      -5.988   1.593  25.069  0.00  0.00    +0.104 C 
ATOM     26  C   UNL     1      -6.226   1.541  26.564  0.00  0.00    +0.024 C 
ENDBRANCH   4  24
BRANCH   4  25
ATOM     25  C   UNL     1      -4.878   3.771  25.378  0.00  0.00    +0.104 C 
ATOM     27  C   UNL     1      -6.264   4.382  25.353  0.00  0.00    +0.024 C 
ENDBRANCH   4  25
ENDBRANCH  12  22
ENDBRANCH   7  12
TORSDOF 8
ENDMDL
MODEL 9
REMARK VINA RESULT:      -0.4      1.502      4.183
REMARK  Name = 40777339
REMARK  10 active torsions:
REMARK  status: ('A' for Active; 'I' for Inactive)
REMARK    1  A    between atoms: N_4  and  C_24
REMARK    2  A    between atoms: N_4  and  C_25
REMARK    3  A    between atoms: C_6  and  C_10
REMARK    4  A    between atoms: C_7  and  C_12
REMARK    5  A    between atoms: C_10  and  C_20
REMARK    6  A    between atoms: C_11  and  C_16
REMARK    7  A    between atoms: C_12  and  C_22
REMARK    8  A    between atoms: C_16  and  C_21
REMARK    9  A    between atoms: C_24  and  C_26
REMARK   10  A    between atoms: C_25  and  C_27
REMARK                            x       y       z     vdW  Elec       q    Type
REMARK                         _______ _______ _______ _____ _____    ______ ____
ROOT
ATOM      3  N   UNL     1      -2.653   4.972  24.169  0.00  0.00    -0.316 NA
ATOM      6  C   UNL     1      -1.782   3.405  25.887  0.00  0.00    +0.012 C 
ATOM      7  C   UNL     1      -3.004   2.473  25.700  0.00  0.00    +0.004 C 
ATOM      8  C   UNL     1      -4.181   3.295  25.147  0.00  0.00    +0.019 C 
ATOM      9  C   UNL     1      -1.484   4.214  24.613  0.00  0.00    +0.085 C 
ATOM     13  C   UNL     1      -3.798   4.101  23.907  0.00  0.00    +0.081 C 
ATOM     28  H   UNL     1      -2.420   5.486  23.320  0.00  0.00    +0.122 HD
ENDROOT
BRANCH   6  10
ATOM     10  C   UNL     1      -0.531   2.664  26.359  0.00  0.00    +0.064 C 
BRANCH  10  20
ATOM      1  O   UNL     1       0.250  -0.253  24.398  0.00  0.00    -0.359 OA
ATOM      5  N   UNL     1      -0.306   0.369  25.510  0.00  0.00    -0.083 NA
ATOM     20  C   UNL     1      -0.063   1.672  25.335  0.00  0.00    +0.084 A 
ATOM     21  C   UNL     1       0.809   0.685  23.592  0.00  0.00    +0.138 A 
ATOM     23  C   UNL     1       0.636   1.928  24.142  0.00  0.00    +0.071 A 
BRANCH  21  16
ATOM     16  C   UNL     1       1.445   0.198  22.363  0.00  0.00    +0.080 C 
BRANCH  16  11
ATOM     11  C   UNL     1       2.920  -0.156  22.549  0.00  0.00    -0.004 C 
ATOM     14  C   UNL     1       3.729   1.084  22.948  0.00  0.00    +0.004 C 
ATOM     15  C   UNL     1       3.081  -1.274  23.589  0.00  0.00    +0.004 C 
ATOM     17  C   UNL     1       5.198   0.745  23.192  0.00  0.00    +0.000 C 
ATOM     18  C   UNL     1       4.551  -1.609  23.832  0.00  0.00    +0.000 C 
ATOM     19  C   UNL     1       5.355  -0.372  24.220  0.00  0.00    +0.000 C 
ENDBRANCH  16  11
ENDBRANCH  21  16
ENDBRANCH  10  20
ENDBRANCH   6  10
BRANCH   7  12
ATOM     12  C   UNL     1      -2.728   1.253  24.814  0.00  0.00    +0.100 C 
BRANCH  12  22
ATOM      2  O   UNL     1      -4.978   0.541  25.227  0.00  0.00    -0.276 OA
ATOM      4  N   UNL     1      -3.472  -1.094  24.564  0.00  0.00    -0.302 N 
ATOM     22  C   UNL     1      -3.836   0.217  24.892  0.00  0.00    +0.216 C 
BRANCH   4  24
ATOM     24  C   UNL     1      -4.424  -2.199  24.591  0.00  0.00    +0.104 C 
ATOM     26  C   UNL     1      -4.546  -2.858  23.233  0.00  0.00    +0.024 C 
ENDBRANCH   4  24
BRANCH   4  25
ATOM     25  C   UNL     1      -2.112  -1.454  24.170  0.00  0.00    +0.104 C 
ATOM     27  C   UNL     1      -1.722  -2.816  24.707  0.00  0.00    +0.024 C 
ENDBRANCH   4  25
ENDBRANCH  12  22
ENDBRANCH   7  12
TORSDOF 8
ENDMDL
MODEL 10
REMARK VINA RESULT:       0.2      1.764      2.921
REMARK  Name = 40777339
REMARK  10 active torsions:
REMARK  status: ('A' for Active; 'I' for Inactive)
REMARK    1  A    between atoms: N_4  and  C_24
REMARK    2  A    between atoms: N_4  and  C_25
REMARK    3  A    between atoms: C_6  and  C_10
REMARK    4  A    between atoms: C_7  and  C_12
REMARK    5  A    between atoms: C_10  and  C_20
REMARK    6  A    between atoms: C_11  and  C_16
REMARK    7  A    between atoms: C_12  and  C_22
REMARK    8  A    between atoms: C_16  and  C_21
REMARK    9  A    between atoms: C_24  and  C_26
REMARK   10  A    between atoms: C_25  and  C_27
REMARK                            x       y       z     vdW  Elec       q    Type
REMARK                         _______ _______ _______ _____ _____    ______ ____
ROOT
ATOM      3  N   UNL     1      -4.968  -0.241  25.009  0.00  0.00    -0.316 NA
ATOM      6  C   UNL     1      -3.933   1.576  23.669  0.00  0.00    +0.012 C 
ATOM      7  C   UNL     1      -4.762   2.644  24.422  0.00  0.00    +0.004 C 
ATOM      8  C   UNL     1      -6.035   1.987  24.983  0.00  0.00    +0.019 C 
ATOM      9  C   UNL     1      -3.705   0.322  24.531  0.00  0.00    +0.085 C 
ATOM     13  C   UNL     1      -5.732   0.727  25.794  0.00  0.00    +0.081 C 
ATOM     28  H   UNL     1      -4.776  -1.063  25.582  0.00  0.00    +0.122 HD
ENDROOT
BRANCH   6  10
ATOM     10  C   UNL     1      -2.603   2.113  23.140  0.00  0.00    +0.064 C 
BRANCH  10  20
ATOM      1  O   UNL     1      -0.241  -0.278  24.433  0.00  0.00    -0.359 OA
ATOM      5  N   UNL     1      -1.349   0.552  24.564  0.00  0.00    -0.083 NA
ATOM     20  C   UNL     1      -1.487   1.136  23.370  0.00  0.00    +0.084 A 
ATOM     21  C   UNL     1       0.253  -0.170  23.173  0.00  0.00    +0.138 A 
ATOM     23  C   UNL     1      -0.505   0.717  22.455  0.00  0.00    +0.071 A 
BRANCH  21  16
ATOM     16  C   UNL     1       1.432  -0.984  22.860  0.00  0.00    +0.080 C 
BRANCH  16  11
ATOM     11  C   UNL     1       2.731  -0.401  23.413  0.00  0.00    -0.004 C 
ATOM     14  C   UNL     1       3.760  -1.509  23.665  0.00  0.00    +0.004 C 
ATOM     15  C   UNL     1       3.295   0.663  22.460  0.00  0.00    +0.004 C 
ATOM     17  C   UNL     1       5.087  -0.944  24.168  0.00  0.00    +0.000 C 
ATOM     18  C   UNL     1       4.622   1.224  22.965  0.00  0.00    +0.000 C 
ATOM     19  C   UNL     1       5.640   0.118  23.224  0.00  0.00    +0.000 C 
ENDBRANCH  16  11
ENDBRANCH  21  16
ENDBRANCH  10  20
ENDBRANCH   6  10
BRANCH   7  12
ATOM     12  C   UNL     1      -3.988   3.368  25.530  0.00  0.00    +0.100 C 
BRANCH  12  22
ATOM      2  O   UNL     1      -3.358   5.263  24.205  0.00  0.00    -0.276 OA
ATOM      4  N   UNL     1      -1.669   4.221  25.405  0.00  0.00    -0.302 N 
ATOM     22  C   UNL     1      -2.992   4.375  24.979  0.00  0.00    +0.216 C 
BRANCH   4  24
ATOM     24  C   UNL     1      -0.598   5.108  24.964  0.00  0.00    +0.104 C 
ATOM     26  C   UNL     1      -0.010   4.653  23.645  0.00  0.00    +0.024 C 
ENDBRANCH   4  24
BRANCH   4  25
ATOM     25  C   UNL     1      -1.259   3.161  26.323  0.00  0.00    +0.104 C 
ATOM     27  C   UNL     1       0.218   2.851  26.187  0.00  0.00    +0.024 C 
ENDBRANCH   4  25
ENDBRANCH  12  22
ENDBRANCH   7  12
TORSDOF 8
ENDMDL
