MODEL 1
REMARK VINA RESULT:       3.5      0.000      0.000
REMARK  Name = 56774828
REMARK  10 active torsions:
REMARK  status: ('A' for Active; 'I' for Inactive)
REMARK    1  A    between atoms: O_5  and  C_13
REMARK    2  A    between atoms: N_8  and  C_15
REMARK    3  A    between atoms: N_9  and  C_26
REMARK    4  A    between atoms: N_10  and  C_35
REMARK    5  A    between atoms: C_12  and  C_13
REMARK    6  A    between atoms: C_13  and  C_17
REMARK    7  A    between atoms: C_15  and  C_19
REMARK    8  A    between atoms: C_29  and  C_30
REMARK    9  A    between atoms: C_31  and  C_32
REMARK   10  A    between atoms: C_34  and  C_36
REMARK                            x       y       z     vdW  Elec       q    Type
REMARK                         _______ _______ _______ _____ _____    ______ ____
ROOT
ATOM     13  C   UNL     1      -3.390   2.832  24.132  0.00  0.00    +0.167 C 
ENDROOT
BRANCH  13  12
ATOM      4  O   UNL     1      -5.273   4.360  25.784  0.00  0.00    -0.369 OA
ATOM      6  O   UNL     1      -7.647   2.014  24.407  0.00  0.00    -0.273 OA
ATOM      8  N   UNL     1      -5.410   1.685  24.960  0.00  0.00    -0.287 N 
ATOM     12  C   UNL     1      -4.138   2.301  25.358  0.00  0.00    +0.135 C 
ATOM     14  C   UNL     1      -4.391   3.410  26.371  0.00  0.00    +0.185 C 
ATOM     16  C   UNL     1      -6.590   2.422  24.892  0.00  0.00    +0.242 C 
ATOM     18  C   UNL     1      -6.543   3.795  25.554  0.00  0.00    +0.255 C 
BRANCH   8  15
ATOM     15  C   UNL     1      -5.368   0.316  24.461  0.00  0.00    +0.143 C 
BRANCH  15  19
ATOM     19  C   UNL     1      -4.039  -0.335  24.713  0.00  0.00    -0.030 A 
ATOM     22  C   UNL     1      -3.446  -1.115  23.721  0.00  0.00    +0.006 A 
ATOM     23  C   UNL     1      -3.398  -0.159  25.939  0.00  0.00    +0.006 A 
ATOM     27  C   UNL     1      -2.211  -1.719  23.954  0.00  0.00    +0.013 A 
ATOM     28  C   UNL     1      -2.163  -0.763  26.173  0.00  0.00    +0.013 A 
ATOM     29  C   UNL     1      -1.569  -1.543  25.181  0.00  0.00    +0.055 A 
BRANCH  29  30
ATOM      1  F   UNL     1       0.270  -1.916  26.665  0.00  0.00    -0.166 F 
ATOM      2  F   UNL     1       0.708  -1.788  24.538  0.00  0.00    -0.166 F 
ATOM      3  F   UNL     1      -0.278  -3.550  25.347  0.00  0.00    -0.166 F 
ATOM     30  C   UNL     1      -0.247  -2.187  25.429  0.00  0.00    +0.417 C 
ENDBRANCH  29  30
ENDBRANCH  15  19
ENDBRANCH   8  15
ENDBRANCH  13  12
BRANCH  13  17
ATOM     17  C   UNL     1      -1.963   2.347  24.093  0.00  0.00    -0.017 A 
ATOM     20  C   UNL     1      -1.084   2.681  25.123  0.00  0.00    +0.008 A 
ATOM     21  C   UNL     1      -1.522   1.564  23.026  0.00  0.00    +0.008 A 
ATOM     24  C   UNL     1       0.236   2.232  25.087  0.00  0.00    +0.023 A 
ATOM     25  C   UNL     1      -0.202   1.115  22.990  0.00  0.00    +0.023 A 
ATOM     26  C   UNL     1       0.677   1.449  24.019  0.00  0.00    +0.034 A 
BRANCH  26   9
ATOM      7  O   UNL     1       2.173   0.001  21.862  0.00  0.00    -0.268 OA
ATOM      9  N   UNL     1       1.997   0.999  23.984  0.00  0.00    -0.280 N 
ATOM     31  C   UNL     1       2.651   0.325  22.944  0.00  0.00    +0.266 C 
ATOM     38  H   UNL     1       2.537   1.189  24.825  0.00  0.00    +0.155 HD
BRANCH  31  32
ATOM     10  N   UNL     1       4.546  -1.176  23.704  0.00  0.00    -0.262 N 
ATOM     11  N   UNL     1       5.883  -1.219  23.835  0.00  0.00    -0.176 NA
ATOM     32  C   UNL     1       4.080  -0.000  23.194  0.00  0.00    +0.124 A 
ATOM     33  C   UNL     1       5.189   0.780  22.976  0.00  0.00    +0.057 A 
ATOM     34  C   UNL     1       6.270  -0.022  23.387  0.00  0.00    +0.061 A 
ATOM     35  C   UNL     1       3.761  -2.322  24.099  0.00  0.00    +0.173 C 
ATOM     36  C   UNL     1       7.702   0.324  23.369  0.00  0.00    +0.067 C 
ENDBRANCH  31  32
ENDBRANCH  26   9
ENDBRANCH  13  17
BRANCH  13   5
ATOM      5  O   UNL     1      -4.066   2.415  22.951  0.00  0.00    -0.385 OA
ATOM     37  H   UNL     1      -4.974   2.762  22.961  0.00  0.00    +0.210 HD
ENDBRANCH  13   5
TORSDOF 8
ENDMDL
MODEL 2
REMARK VINA RESULT:       4.2      1.254      1.890
REMARK  Name = 56774828
REMARK  10 active torsions:
REMARK  status: ('A' for Active; 'I' for Inactive)
REMARK    1  A    between atoms: O_5  and  C_13
REMARK    2  A    between atoms: N_8  and  C_15
REMARK    3  A    between atoms: N_9  and  C_26
REMARK    4  A    between atoms: N_10  and  C_35
REMARK    5  A    between atoms: C_12  and  C_13
REMARK    6  A    between atoms: C_13  and  C_17
REMARK    7  A    between atoms: C_15  and  C_19
REMARK    8  A    between atoms: C_29  and  C_30
REMARK    9  A    between atoms: C_31  and  C_32
REMARK   10  A    between atoms: C_34  and  C_36
REMARK                            x       y       z     vdW  Elec       q    Type
REMARK                         _______ _______ _______ _____ _____    ______ ____
ROOT
ATOM     13  C   UNL     1      -2.959   3.047  24.144  0.00  0.00    +0.167 C 
ENDROOT
BRANCH  13  12
ATOM      4  O   UNL     1      -3.346   5.150  26.153  0.00  0.00    -0.369 OA
ATOM      6  O   UNL     1      -6.831   4.521  25.448  0.00  0.00    -0.273 OA
ATOM      8  N   UNL     1      -5.044   3.030  25.462  0.00  0.00    -0.287 N 
ATOM     12  C   UNL     1      -3.587   2.857  25.528  0.00  0.00    +0.135 C 
ATOM     14  C   UNL     1      -2.992   3.827  26.540  0.00  0.00    +0.185 C 
ATOM     16  C   UNL     1      -5.642   4.273  25.656  0.00  0.00    +0.242 C 
ATOM     18  C   UNL     1      -4.739   5.349  26.249  0.00  0.00    +0.255 C 
BRANCH   8  15
ATOM     15  C   UNL     1      -5.837   1.895  25.006  0.00  0.00    +0.143 C 
BRANCH  15  19
ATOM     19  C   UNL     1      -5.030   0.630  24.953  0.00  0.00    -0.030 A 
ATOM     22  C   UNL     1      -4.291   0.228  26.065  0.00  0.00    +0.006 A 
ATOM     23  C   UNL     1      -5.022  -0.143  23.792  0.00  0.00    +0.006 A 
ATOM     27  C   UNL     1      -3.542  -0.948  26.016  0.00  0.00    +0.013 A 
ATOM     28  C   UNL     1      -4.273  -1.319  23.743  0.00  0.00    +0.013 A 
ATOM     29  C   UNL     1      -3.533  -1.721  24.855  0.00  0.00    +0.055 A 
BRANCH  29  30
ATOM      1  F   UNL     1      -2.840  -3.647  23.617  0.00  0.00    -0.166 F 
ATOM      2  F   UNL     1      -3.109  -3.878  25.762  0.00  0.00    -0.166 F 
ATOM      3  F   UNL     1      -1.395  -2.786  24.987  0.00  0.00    -0.166 F 
ATOM     30  C   UNL     1      -2.735  -2.980  24.804  0.00  0.00    +0.417 C 
ENDBRANCH  29  30
ENDBRANCH  15  19
ENDBRANCH   8  15
ENDBRANCH  13  12
BRANCH  13  17
ATOM     17  C   UNL     1      -1.563   2.480  24.080  0.00  0.00    -0.017 A 
ATOM     20  C   UNL     1      -0.461   3.317  24.258  0.00  0.00    +0.008 A 
ATOM     21  C   UNL     1      -1.374   1.119  23.842  0.00  0.00    +0.008 A 
ATOM     24  C   UNL     1       0.830   2.793  24.200  0.00  0.00    +0.023 A 
ATOM     25  C   UNL     1      -0.083   0.595  23.783  0.00  0.00    +0.023 A 
ATOM     26  C   UNL     1       1.019   1.431  23.962  0.00  0.00    +0.034 A 
BRANCH  26   9
ATOM      7  O   UNL     1       2.481   0.126  21.691  0.00  0.00    -0.268 OA
ATOM      9  N   UNL     1       2.310   0.907  23.904  0.00  0.00    -0.280 N 
ATOM     31  C   UNL     1       2.949   0.305  22.811  0.00  0.00    +0.266 C 
ATOM     38  H   UNL     1       2.839   0.974  24.770  0.00  0.00    +0.155 HD
BRANCH  31  32
ATOM     10  N   UNL     1       4.721  -1.298  23.655  0.00  0.00    -0.262 N 
ATOM     11  N   UNL     1       6.052  -1.457  23.754  0.00  0.00    -0.176 NA
ATOM     32  C   UNL     1       4.349  -0.132  23.053  0.00  0.00    +0.124 A 
ATOM     33  C   UNL     1       5.518   0.516  22.736  0.00  0.00    +0.057 A 
ATOM     34  C   UNL     1       6.533  -0.346  23.190  0.00  0.00    +0.061 A 
ATOM     35  C   UNL     1       3.847  -2.324  24.172  0.00  0.00    +0.173 C 
ATOM     36  C   UNL     1       7.990  -0.142  23.103  0.00  0.00    +0.067 C 
ENDBRANCH  31  32
ENDBRANCH  26   9
ENDBRANCH  13  17
BRANCH  13   5
ATOM      5  O   UNL     1      -3.774   2.413  23.165  0.00  0.00    -0.385 OA
ATOM     37  H   UNL     1      -4.696   2.402  23.474  0.00  0.00    +0.210 HD
ENDBRANCH  13   5
TORSDOF 8
ENDMDL
