MODEL 1
REMARK VINA RESULT:      -5.0      0.000      0.000
REMARK  Name = 56775488
REMARK  8 active torsions:
REMARK  status: ('A' for Active; 'I' for Inactive)
REMARK    1  A    between atoms: O_4  and  C_16
REMARK    2  A    between atoms: O_4  and  C_26
REMARK    3  A    between atoms: N_5  and  C_7
REMARK    4  A    between atoms: N_5  and  C_11
REMARK    5  A    between atoms: C_7  and  C_10
REMARK    6  A    between atoms: C_10  and  C_12
REMARK    7  A    between atoms: C_11  and  C_13
REMARK    8  A    between atoms: C_15  and  C_18
REMARK                            x       y       z     vdW  Elec       q    Type
REMARK                         _______ _______ _______ _____ _____    ______ ____
ROOT
ATOM      2  O   UNL     1      -4.004  -8.196  10.160  0.00  0.00    -0.376 OA
ATOM      7  C   UNL     1      -5.837  -9.098   9.542  0.00  0.00    +0.072 C 
ATOM      8  C   UNL     1      -5.398  -7.971  10.471  0.00  0.00    +0.184 C 
ATOM      9  C   UNL     1      -4.344  -9.335   9.338  0.00  0.00    +0.184 C 
ENDROOT
BRANCH   7   5
ATOM      5  N   UNL     1      -6.389  -8.514   8.327  0.00  0.00    -0.302 NA
ATOM     28  H   UNL     1      -5.929  -8.797   7.462  0.00  0.00    +0.123 HD
BRANCH   5  11
ATOM     11  C   UNL     1      -7.818  -8.806   8.244  0.00  0.00    +0.120 C 
BRANCH  11  13
ATOM     13  C   UNL     1      -8.655  -7.573   8.464  0.00  0.00    +0.008 A 
ATOM     16  C   UNL     1      -9.958  -7.674   8.951  0.00  0.00    +0.124 A 
ATOM     17  C   UNL     1      -8.113  -6.320   8.176  0.00  0.00    +0.008 A 
ATOM     19  C   UNL     1     -10.719  -6.523   9.149  0.00  0.00    +0.046 A 
ATOM     20  C   UNL     1      -8.874  -5.169   8.375  0.00  0.00    +0.001 A 
ATOM     21  C   UNL     1     -10.177  -5.270   8.861  0.00  0.00    +0.004 A 
BRANCH  16   4
ATOM      4  O   UNL     1     -10.502  -8.889   9.238  0.00  0.00    -0.495 OA
ATOM     26  C   UNL     1     -10.719  -9.194  10.614  0.00  0.00    +0.277 C 
ENDBRANCH  16   4
ENDBRANCH  11  13
ENDBRANCH   5  11
ENDBRANCH   7   5
BRANCH   7  10
ATOM     10  C   UNL     1      -6.701 -10.233  10.105  0.00  0.00    +0.085 C 
BRANCH  10  12
ATOM      3  O   UNL     1      -7.740  -9.707  13.481  0.00  0.00    -0.354 OA
ATOM      6  N   UNL     1      -7.959  -9.674  12.109  0.00  0.00    -0.083 NA
ATOM     12  C   UNL     1      -6.826 -10.130  11.568  0.00  0.00    +0.086 A 
ATOM     14  C   UNL     1      -5.866 -10.465  12.539  0.00  0.00    +0.076 A 
ATOM     15  C   UNL     1      -6.490 -10.180  13.725  0.00  0.00    +0.167 A 
BRANCH  15  18
ATOM      1  F   UNL     1      -5.044 -10.537  19.093  0.00  0.00    -0.205 F 
ATOM     18  C   UNL     1      -6.116 -10.275  15.115  0.00  0.00    +0.020 A 
ATOM     22  C   UNL     1      -7.087 -10.149  16.108  0.00  0.00    +0.014 A 
ATOM     23  C   UNL     1      -4.783 -10.487  15.464  0.00  0.00    +0.014 A 
ATOM     24  C   UNL     1      -6.725 -10.239  17.453  0.00  0.00    +0.039 A 
ATOM     25  C   UNL     1      -4.421 -10.576  16.809  0.00  0.00    +0.039 A 
ATOM     27  C   UNL     1      -5.391 -10.452  17.803  0.00  0.00    +0.123 A 
ENDBRANCH  15  18
ENDBRANCH  10  12
ENDBRANCH   7  10
TORSDOF 7
ENDMDL
MODEL 2
REMARK VINA RESULT:      -3.4      4.109      6.877
REMARK  Name = 56775488
REMARK  8 active torsions:
REMARK  status: ('A' for Active; 'I' for Inactive)
REMARK    1  A    between atoms: O_4  and  C_16
REMARK    2  A    between atoms: O_4  and  C_26
REMARK    3  A    between atoms: N_5  and  C_7
REMARK    4  A    between atoms: N_5  and  C_11
REMARK    5  A    between atoms: C_7  and  C_10
REMARK    6  A    between atoms: C_10  and  C_12
REMARK    7  A    between atoms: C_11  and  C_13
REMARK    8  A    between atoms: C_15  and  C_18
REMARK                            x       y       z     vdW  Elec       q    Type
REMARK                         _______ _______ _______ _____ _____    ______ ____
ROOT
ATOM      2  O   UNL     1      -6.052  -7.803   9.660  0.00  0.00    -0.376 OA
ATOM      7  C   UNL     1      -5.804  -9.685  10.635  0.00  0.00    +0.072 C 
ATOM      8  C   UNL     1      -5.369  -8.240  10.857  0.00  0.00    +0.184 C 
ATOM      9  C   UNL     1      -6.417  -9.164   9.340  0.00  0.00    +0.184 C 
ENDROOT
BRANCH   7   5
ATOM      5  N   UNL     1      -6.877 -10.000  11.568  0.00  0.00    -0.302 NA
ATOM     28  H   UNL     1      -7.653 -10.531  11.173  0.00  0.00    +0.123 HD
BRANCH   5  11
ATOM     11  C   UNL     1      -6.333 -10.709  12.725  0.00  0.00    +0.120 C 
BRANCH  11  13
ATOM     13  C   UNL     1      -6.927 -10.211  14.016  0.00  0.00    +0.008 A 
ATOM     16  C   UNL     1      -6.150 -10.123  15.171  0.00  0.00    +0.124 A 
ATOM     17  C   UNL     1      -8.271  -9.835  14.049  0.00  0.00    +0.008 A 
ATOM     19  C   UNL     1      -6.715  -9.660  16.358  0.00  0.00    +0.046 A 
ATOM     20  C   UNL     1      -8.836  -9.371  15.236  0.00  0.00    +0.001 A 
ATOM     21  C   UNL     1      -8.059  -9.283  16.391  0.00  0.00    +0.004 A 
BRANCH  16   4
ATOM      4  O   UNL     1      -4.837 -10.486  15.156  0.00  0.00    -0.495 OA
ATOM     26  C   UNL     1      -4.133 -10.423  16.395  0.00  0.00    +0.277 C 
ENDBRANCH  16   4
ENDBRANCH  11  13
ENDBRANCH   5  11
ENDBRANCH   7   5
BRANCH   7  10
ATOM     10  C   UNL     1      -4.733 -10.781  10.563  0.00  0.00    +0.085 C 
BRANCH  10  12
ATOM      3  O   UNL     1      -1.840 -10.137  12.556  0.00  0.00    -0.354 OA
ATOM      6  N   UNL     1      -3.058 -10.765  12.327  0.00  0.00    -0.083 NA
ATOM     12  C   UNL     1      -3.458 -10.317  11.133  0.00  0.00    +0.086 A 
ATOM     14  C   UNL     1      -2.542  -9.414  10.567  0.00  0.00    +0.076 A 
ATOM     15  C   UNL     1      -1.542  -9.336  11.501  0.00  0.00    +0.167 A 
BRANCH  15  18
ATOM      1  F   UNL     1       3.266  -6.544  11.857  0.00  0.00    -0.205 F 
ATOM     18  C   UNL     1      -0.297  -8.614  11.595  0.00  0.00    +0.020 A 
ATOM     22  C   UNL     1      -0.152  -7.593  12.533  0.00  0.00    +0.014 A 
ATOM     23  C   UNL     1       0.760  -8.936  10.744  0.00  0.00    +0.014 A 
ATOM     24  C   UNL     1       1.053  -6.894  12.622  0.00  0.00    +0.039 A 
ATOM     25  C   UNL     1       1.964  -8.237  10.833  0.00  0.00    +0.039 A 
ATOM     27  C   UNL     1       2.110  -7.216  11.771  0.00  0.00    +0.123 A 
ENDBRANCH  15  18
ENDBRANCH  10  12
ENDBRANCH   7  10
TORSDOF 7
ENDMDL
MODEL 3
REMARK VINA RESULT:      -3.3      1.793      2.289
REMARK  Name = 56775488
REMARK  8 active torsions:
REMARK  status: ('A' for Active; 'I' for Inactive)
REMARK    1  A    between atoms: O_4  and  C_16
REMARK    2  A    between atoms: O_4  and  C_26
REMARK    3  A    between atoms: N_5  and  C_7
REMARK    4  A    between atoms: N_5  and  C_11
REMARK    5  A    between atoms: C_7  and  C_10
REMARK    6  A    between atoms: C_10  and  C_12
REMARK    7  A    between atoms: C_11  and  C_13
REMARK    8  A    between atoms: C_15  and  C_18
REMARK                            x       y       z     vdW  Elec       q    Type
REMARK                         _______ _______ _______ _____ _____    ______ ____
ROOT
ATOM      2  O   UNL     1      -4.488  -7.698  10.750  0.00  0.00    -0.376 OA
ATOM      7  C   UNL     1      -5.658  -9.428  10.310  0.00  0.00    +0.072 C 
ATOM      8  C   UNL     1      -5.810  -8.148  11.125  0.00  0.00    +0.184 C 
ATOM      9  C   UNL     1      -4.242  -8.930  10.036  0.00  0.00    +0.184 C 
ENDROOT
BRANCH   7   5
ATOM      5  N   UNL     1      -6.443  -9.302   9.089  0.00  0.00    -0.302 NA
ATOM     28  H   UNL     1      -6.205  -9.964   8.351  0.00  0.00    +0.123 HD
BRANCH   5  11
ATOM     11  C   UNL     1      -7.866  -9.404   9.405  0.00  0.00    +0.120 C 
BRANCH  11  13
ATOM     13  C   UNL     1      -8.610  -8.144   9.049  0.00  0.00    +0.008 A 
ATOM     16  C   UNL     1      -9.976  -8.028   9.301  0.00  0.00    +0.124 A 
ATOM     17  C   UNL     1      -7.916  -7.085   8.462  0.00  0.00    +0.008 A 
ATOM     19  C   UNL     1     -10.650  -6.854   8.966  0.00  0.00    +0.046 A 
ATOM     20  C   UNL     1      -8.590  -5.911   8.127  0.00  0.00    +0.001 A 
ATOM     21  C   UNL     1      -9.957  -5.795   8.379  0.00  0.00    +0.004 A 
BRANCH  16   4
ATOM      4  O   UNL     1     -10.668  -9.052   9.874  0.00  0.00    -0.495 OA
ATOM     26  C   UNL     1     -10.606  -9.160  11.296  0.00  0.00    +0.277 C 
ENDBRANCH  16   4
ENDBRANCH  11  13
ENDBRANCH   5  11
ENDBRANCH   7   5
BRANCH   7  10
ATOM     10  C   UNL     1      -5.849 -10.781  11.007  0.00  0.00    +0.085 C 
BRANCH  10  12
ATOM      3  O   UNL     1      -5.866 -10.442  14.562  0.00  0.00    -0.354 OA
ATOM      6  N   UNL     1      -5.215 -10.639  13.350  0.00  0.00    -0.083 NA
ATOM     12  C   UNL     1      -6.183 -10.604  12.429  0.00  0.00    +0.086 A 
ATOM     14  C   UNL     1      -7.451 -10.390  12.994  0.00  0.00    +0.076 A 
ATOM     15  C   UNL     1      -7.197 -10.294  14.337  0.00  0.00    +0.167 A 
BRANCH  15  18
ATOM      1  F   UNL     1     -10.337  -9.469  18.865  0.00  0.00    -0.205 F 
ATOM     18  C   UNL     1      -8.010 -10.079  15.510  0.00  0.00    +0.020 A 
ATOM     22  C   UNL     1      -7.409  -9.957  16.762  0.00  0.00    +0.014 A 
ATOM     23  C   UNL     1      -9.397  -9.995  15.390  0.00  0.00    +0.014 A 
ATOM     24  C   UNL     1      -8.195  -9.750  17.896  0.00  0.00    +0.039 A 
ATOM     25  C   UNL     1     -10.183  -9.789  16.524  0.00  0.00    +0.039 A 
ATOM     27  C   UNL     1      -9.583  -9.667  17.776  0.00  0.00    +0.123 A 
ENDBRANCH  15  18
ENDBRANCH  10  12
ENDBRANCH   7  10
TORSDOF 7
ENDMDL
MODEL 4
REMARK VINA RESULT:      -3.2     14.969     17.859
REMARK  Name = 56775488
REMARK  8 active torsions:
REMARK  status: ('A' for Active; 'I' for Inactive)
REMARK    1  A    between atoms: O_4  and  C_16
REMARK    2  A    between atoms: O_4  and  C_26
REMARK    3  A    between atoms: N_5  and  C_7
REMARK    4  A    between atoms: N_5  and  C_11
REMARK    5  A    between atoms: C_7  and  C_10
REMARK    6  A    between atoms: C_10  and  C_12
REMARK    7  A    between atoms: C_11  and  C_13
REMARK    8  A    between atoms: C_15  and  C_18
REMARK                            x       y       z     vdW  Elec       q    Type
REMARK                         _______ _______ _______ _____ _____    ______ ____
ROOT
ATOM      2  O   UNL     1      -2.139   4.578  25.744  0.00  0.00    -0.376 OA
ATOM      7  C   UNL     1      -2.291   2.696  24.748  0.00  0.00    +0.072 C 
ATOM      8  C   UNL     1      -1.213   3.503  25.465  0.00  0.00    +0.184 C 
ATOM      9  C   UNL     1      -3.180   3.909  24.997  0.00  0.00    +0.184 C 
ENDROOT
BRANCH   7   5
ATOM      5  N   UNL     1      -2.722   1.612  25.620  0.00  0.00    -0.302 NA
ATOM     28  H   UNL     1      -2.852   1.868  26.598  0.00  0.00    +0.123 HD
BRANCH   5  11
ATOM     11  C   UNL     1      -3.951   1.019  25.098  0.00  0.00    +0.120 C 
BRANCH  11  13
ATOM     13  C   UNL     1      -3.780  -0.446  24.791  0.00  0.00    +0.008 A 
ATOM     16  C   UNL     1      -2.718  -1.169  25.335  0.00  0.00    +0.124 A 
ATOM     17  C   UNL     1      -4.698  -1.079  23.953  0.00  0.00    +0.008 A 
ATOM     19  C   UNL     1      -2.574  -2.524  25.041  0.00  0.00    +0.046 A 
ATOM     20  C   UNL     1      -4.554  -2.435  23.659  0.00  0.00    +0.001 A 
ATOM     21  C   UNL     1      -3.493  -3.157  24.203  0.00  0.00    +0.004 A 
BRANCH  16   4
ATOM      4  O   UNL     1      -1.813  -0.566  26.155  0.00  0.00    -0.495 OA
ATOM     26  C   UNL     1      -0.474  -1.055  26.114  0.00  0.00    +0.277 C 
ENDBRANCH  16   4
ENDBRANCH  11  13
ENDBRANCH   5  11
ENDBRANCH   7   5
BRANCH   7  10
ATOM     10  C   UNL     1      -2.041   2.240  23.305  0.00  0.00    +0.085 C 
BRANCH  10  12
ATOM      3  O   UNL     1       0.377  -0.351  22.864  0.00  0.00    -0.354 OA
ATOM      6  N   UNL     1      -0.927   0.127  22.850  0.00  0.00    -0.083 NA
ATOM     12  C   UNL     1      -0.830   1.409  23.212  0.00  0.00    +0.086 A 
ATOM     14  C   UNL     1       0.498   1.793  23.464  0.00  0.00    +0.076 A 
ATOM     15  C   UNL     1       1.218   0.651  23.231  0.00  0.00    +0.167 A 
BRANCH  15  18
ATOM      1  F   UNL     1       6.622  -0.683  23.466  0.00  0.00    -0.205 F 
ATOM     18  C   UNL     1       2.617   0.305  23.290  0.00  0.00    +0.020 A 
ATOM     22  C   UNL     1       3.002  -0.979  23.675  0.00  0.00    +0.014 A 
ATOM     23  C   UNL     1       3.584   1.256  22.966  0.00  0.00    +0.014 A 
ATOM     24  C   UNL     1       4.355  -1.313  23.733  0.00  0.00    +0.039 A 
ATOM     25  C   UNL     1       4.937   0.922  23.025  0.00  0.00    +0.039 A 
ATOM     27  C   UNL     1       5.323  -0.362  23.409  0.00  0.00    +0.123 A 
ENDBRANCH  15  18
ENDBRANCH  10  12
ENDBRANCH   7  10
TORSDOF 7
ENDMDL
MODEL 5
REMARK VINA RESULT:      -3.1     14.480     17.728
REMARK  Name = 56775488
REMARK  8 active torsions:
REMARK  status: ('A' for Active; 'I' for Inactive)
REMARK    1  A    between atoms: O_4  and  C_16
REMARK    2  A    between atoms: O_4  and  C_26
REMARK    3  A    between atoms: N_5  and  C_7
REMARK    4  A    between atoms: N_5  and  C_11
REMARK    5  A    between atoms: C_7  and  C_10
REMARK    6  A    between atoms: C_10  and  C_12
REMARK    7  A    between atoms: C_11  and  C_13
REMARK    8  A    between atoms: C_15  and  C_18
REMARK                            x       y       z     vdW  Elec       q    Type
REMARK                         _______ _______ _______ _____ _____    ______ ____
ROOT
ATOM      2  O   UNL     1      -6.380   3.473  25.838  0.00  0.00    -0.376 OA
ATOM      7  C   UNL     1      -4.668   2.566  24.945  0.00  0.00    +0.072 C 
ATOM      8  C   UNL     1      -4.976   3.811  25.769  0.00  0.00    +0.184 C 
ATOM      9  C   UNL     1      -6.174   2.328  24.981  0.00  0.00    +0.184 C 
ENDROOT
BRANCH   7   5
ATOM      5  N   UNL     1      -4.017   1.585  25.803  0.00  0.00    -0.302 NA
ATOM     28  H   UNL     1      -4.226   1.673  26.797  0.00  0.00    +0.123 HD
BRANCH   5  11
ATOM     11  C   UNL     1      -4.344   0.236  25.348  0.00  0.00    +0.120 C 
BRANCH  11  13
ATOM     13  C   UNL     1      -3.117  -0.631  25.240  0.00  0.00    +0.008 A 
ATOM     16  C   UNL     1      -3.101  -1.741  24.396  0.00  0.00    +0.124 A 
ATOM     17  C   UNL     1      -1.989  -0.313  25.996  0.00  0.00    +0.008 A 
ATOM     19  C   UNL     1      -1.957  -2.533  24.307  0.00  0.00    +0.046 A 
ATOM     20  C   UNL     1      -0.844  -1.105  25.907  0.00  0.00    +0.001 A 
ATOM     21  C   UNL     1      -0.828  -2.215  25.063  0.00  0.00    +0.004 A 
BRANCH  16   4
ATOM      4  O   UNL     1      -4.194  -2.065  23.650  0.00  0.00    -0.495 OA
ATOM     26  C   UNL     1      -4.466  -3.453  23.467  0.00  0.00    +0.277 C 
ENDBRANCH  16   4
ENDBRANCH  11  13
ENDBRANCH   5  11
ENDBRANCH   7   5
BRANCH   7  10
ATOM     10  C   UNL     1      -3.973   2.726  23.586  0.00  0.00    +0.085 C 
BRANCH  10  12
ATOM      3  O   UNL     1      -0.495   2.800  24.393  0.00  0.00    -0.354 OA
ATOM      6  N   UNL     1      -1.797   3.267  24.527  0.00  0.00    -0.083 NA
ATOM     12  C   UNL     1      -2.522   2.506  23.702  0.00  0.00    +0.086 A 
ATOM     14  C   UNL     1      -1.741   1.552  23.029  0.00  0.00    +0.076 A 
ATOM     15  C   UNL     1      -0.474   1.779  23.499  0.00  0.00    +0.167 A 
BRANCH  15  18
ATOM      1  F   UNL     1       4.517  -0.508  22.549  0.00  0.00    -0.205 F 
ATOM     18  C   UNL     1       0.819   1.186  23.255  0.00  0.00    +0.020 A 
ATOM     22  C   UNL     1       1.978   1.935  23.455  0.00  0.00    +0.014 A 
ATOM     23  C   UNL     1       0.908  -0.134  22.816  0.00  0.00    +0.014 A 
ATOM     24  C   UNL     1       3.228   1.363  23.217  0.00  0.00    +0.039 A 
ATOM     25  C   UNL     1       2.157  -0.706  22.578  0.00  0.00    +0.039 A 
ATOM     27  C   UNL     1       3.317   0.041  22.778  0.00  0.00    +0.123 A 
ENDBRANCH  15  18
ENDBRANCH  10  12
ENDBRANCH   7  10
TORSDOF 7
ENDMDL
MODEL 6
REMARK VINA RESULT:      -2.9     15.240     17.812
REMARK  Name = 56775488
REMARK  8 active torsions:
REMARK  status: ('A' for Active; 'I' for Inactive)
REMARK    1  A    between atoms: O_4  and  C_16
REMARK    2  A    between atoms: O_4  and  C_26
REMARK    3  A    between atoms: N_5  and  C_7
REMARK    4  A    between atoms: N_5  and  C_11
REMARK    5  A    between atoms: C_7  and  C_10
REMARK    6  A    between atoms: C_10  and  C_12
REMARK    7  A    between atoms: C_11  and  C_13
REMARK    8  A    between atoms: C_15  and  C_18
REMARK                            x       y       z     vdW  Elec       q    Type
REMARK                         _______ _______ _______ _____ _____    ______ ____
ROOT
ATOM      2  O   UNL     1      -5.858   3.718  25.758  0.00  0.00    -0.376 OA
ATOM      7  C   UNL     1      -4.351   2.531  24.823  0.00  0.00    +0.072 C 
ATOM      8  C   UNL     1      -4.415   3.775  25.703  0.00  0.00    +0.184 C 
ATOM      9  C   UNL     1      -5.874   2.594  24.850  0.00  0.00    +0.184 C 
ENDROOT
BRANCH   7   5
ATOM      5  N   UNL     1      -3.914   1.404  25.636  0.00  0.00    -0.302 NA
ATOM     28  H   UNL     1      -3.902   1.573  26.641  0.00  0.00    +0.123 HD
BRANCH   5  11
ATOM     11  C   UNL     1      -4.739   0.234  25.343  0.00  0.00    +0.120 C 
BRANCH  11  13
ATOM     13  C   UNL     1      -3.909  -0.932  24.874  0.00  0.00    +0.008 A 
ATOM     16  C   UNL     1      -2.580  -1.068  25.273  0.00  0.00    +0.124 A 
ATOM     17  C   UNL     1      -4.486  -1.884  24.032  0.00  0.00    +0.008 A 
ATOM     19  C   UNL     1      -1.827  -2.154  24.830  0.00  0.00    +0.046 A 
ATOM     20  C   UNL     1      -3.732  -2.971  23.589  0.00  0.00    +0.001 A 
ATOM     21  C   UNL     1      -2.403  -3.106  23.988  0.00  0.00    +0.004 A 
BRANCH  16   4
ATOM      4  O   UNL     1      -2.003  -0.148  26.095  0.00  0.00    -0.495 OA
ATOM     26  C   UNL     1      -0.643  -0.372  26.463  0.00  0.00    +0.277 C 
ENDBRANCH  16   4
ENDBRANCH  11  13
ENDBRANCH   5  11
ENDBRANCH   7   5
BRANCH   7  10
ATOM     10  C   UNL     1      -3.626   2.611  23.473  0.00  0.00    +0.085 C 
BRANCH  10  12
ATOM      3  O   UNL     1      -0.166   2.725  24.349  0.00  0.00    -0.354 OA
ATOM      6  N   UNL     1      -1.469   3.202  24.426  0.00  0.00    -0.083 NA
ATOM     12  C   UNL     1      -2.179   2.395  23.633  0.00  0.00    +0.086 A 
ATOM     14  C   UNL     1      -1.387   1.400  23.035  0.00  0.00    +0.076 A 
ATOM     15  C   UNL     1      -0.130   1.652  23.518  0.00  0.00    +0.167 A 
BRANCH  15  18
ATOM      1  F   UNL     1       4.873  -0.700  22.827  0.00  0.00    -0.205 F 
ATOM     18  C   UNL     1       1.165   1.043  23.337  0.00  0.00    +0.020 A 
ATOM     22  C   UNL     1       1.282  -0.346  23.286  0.00  0.00    +0.014 A 
ATOM     23  C   UNL     1       2.301   1.843  23.217  0.00  0.00    +0.014 A 
ATOM     24  C   UNL     1       2.535  -0.935  23.113  0.00  0.00    +0.039 A 
ATOM     25  C   UNL     1       3.554   1.254  23.045  0.00  0.00    +0.039 A 
ATOM     27  C   UNL     1       3.671  -0.134  22.993  0.00  0.00    +0.123 A 
ENDBRANCH  15  18
ENDBRANCH  10  12
ENDBRANCH   7  10
TORSDOF 7
ENDMDL
MODEL 7
REMARK VINA RESULT:      -2.8     15.497     17.937
REMARK  Name = 56775488
REMARK  8 active torsions:
REMARK  status: ('A' for Active; 'I' for Inactive)
REMARK    1  A    between atoms: O_4  and  C_16
REMARK    2  A    between atoms: O_4  and  C_26
REMARK    3  A    between atoms: N_5  and  C_7
REMARK    4  A    between atoms: N_5  and  C_11
REMARK    5  A    between atoms: C_7  and  C_10
REMARK    6  A    between atoms: C_10  and  C_12
REMARK    7  A    between atoms: C_11  and  C_13
REMARK    8  A    between atoms: C_15  and  C_18
REMARK                            x       y       z     vdW  Elec       q    Type
REMARK                         _______ _______ _______ _____ _____    ______ ____
ROOT
ATOM      2  O   UNL     1      -3.355  -3.070  24.426  0.00  0.00    -0.376 OA
ATOM      7  C   UNL     1      -2.786  -1.017  24.306  0.00  0.00    +0.072 C 
ATOM      8  C   UNL     1      -4.055  -1.843  24.119  0.00  0.00    +0.184 C 
ATOM      9  C   UNL     1      -2.100  -2.361  24.525  0.00  0.00    +0.184 C 
ENDROOT
BRANCH   7   5
ATOM      5  N   UNL     1      -2.866  -0.317  25.581  0.00  0.00    -0.302 NA
ATOM     28  H   UNL     1      -2.342  -0.746  26.344  0.00  0.00    +0.123 HD
BRANCH   5  11
ATOM     11  C   UNL     1      -2.443   1.070  25.410  0.00  0.00    +0.120 C 
BRANCH  11  13
ATOM     13  C   UNL     1      -3.610   2.021  25.456  0.00  0.00    +0.008 A 
ATOM     16  C   UNL     1      -3.422   3.366  25.774  0.00  0.00    +0.124 A 
ATOM     17  C   UNL     1      -4.891   1.544  25.174  0.00  0.00    +0.008 A 
ATOM     19  C   UNL     1      -4.513   4.233  25.811  0.00  0.00    +0.046 A 
ATOM     20  C   UNL     1      -5.982   2.411  25.211  0.00  0.00    +0.001 A 
ATOM     21  C   UNL     1      -5.794   3.755  25.530  0.00  0.00    +0.004 A 
BRANCH  16   4
ATOM      4  O   UNL     1      -2.179   3.849  26.051  0.00  0.00    -0.495 OA
ATOM     26  C   UNL     1      -1.600   4.735  25.094  0.00  0.00    +0.277 C 
ENDBRANCH  16   4
ENDBRANCH  11  13
ENDBRANCH   5  11
ENDBRANCH   7   5
BRANCH   7  10
ATOM     10  C   UNL     1      -2.310  -0.116  23.159  0.00  0.00    +0.085 C 
BRANCH  10  12
ATOM      3  O   UNL     1       0.841   1.436  23.802  0.00  0.00    -0.354 OA
ATOM      6  N   UNL     1      -0.548   1.439  23.784  0.00  0.00    -0.083 NA
ATOM     12  C   UNL     1      -0.889   0.235  23.314  0.00  0.00    +0.086 A 
ATOM     14  C   UNL     1       0.230  -0.561  23.022  0.00  0.00    +0.076 A 
ATOM     15  C   UNL     1       1.294   0.240  23.346  0.00  0.00    +0.167 A 
BRANCH  15  18
ATOM      1  F   UNL     1       6.831  -0.358  23.192  0.00  0.00    -0.205 F 
ATOM     18  C   UNL     1       2.728   0.086  23.308  0.00  0.00    +0.020 A 
ATOM     22  C   UNL     1       3.529   1.134  22.856  0.00  0.00    +0.014 A 
ATOM     23  C   UNL     1       3.311  -1.112  23.720  0.00  0.00    +0.014 A 
ATOM     24  C   UNL     1       4.916   0.984  22.817  0.00  0.00    +0.039 A 
ATOM     25  C   UNL     1       4.697  -1.262  23.681  0.00  0.00    +0.039 A 
ATOM     27  C   UNL     1       5.500  -0.215  23.229  0.00  0.00    +0.123 A 
ENDBRANCH  15  18
ENDBRANCH  10  12
ENDBRANCH   7  10
TORSDOF 7
ENDMDL
MODEL 8
REMARK VINA RESULT:      -2.7     15.815     17.946
REMARK  Name = 56775488
REMARK  8 active torsions:
REMARK  status: ('A' for Active; 'I' for Inactive)
REMARK    1  A    between atoms: O_4  and  C_16
REMARK    2  A    between atoms: O_4  and  C_26
REMARK    3  A    between atoms: N_5  and  C_7
REMARK    4  A    between atoms: N_5  and  C_11
REMARK    5  A    between atoms: C_7  and  C_10
REMARK    6  A    between atoms: C_10  and  C_12
REMARK    7  A    between atoms: C_11  and  C_13
REMARK    8  A    between atoms: C_15  and  C_18
REMARK                            x       y       z     vdW  Elec       q    Type
REMARK                         _______ _______ _______ _____ _____    ______ ____
ROOT
ATOM      2  O   UNL     1      -3.517  -2.135  25.741  0.00  0.00    -0.376 OA
ATOM      7  C   UNL     1      -3.287  -0.453  24.446  0.00  0.00    +0.072 C 
ATOM      8  C   UNL     1      -4.135  -1.720  24.501  0.00  0.00    +0.184 C 
ATOM      9  C   UNL     1      -2.617  -1.004  25.700  0.00  0.00    +0.184 C 
ENDROOT
BRANCH   7   5
ATOM      5  N   UNL     1      -4.118   0.683  24.820  0.00  0.00    -0.302 NA
ATOM     28  H   UNL     1      -3.978   1.030  25.768  0.00  0.00    +0.123 HD
BRANCH   5  11
ATOM     11  C   UNL     1      -3.924   1.772  23.864  0.00  0.00    +0.120 C 
BRANCH  11  13
ATOM     13  C   UNL     1      -3.055   2.864  24.429  0.00  0.00    +0.008 A 
ATOM     16  C   UNL     1      -3.496   3.646  25.496  0.00  0.00    +0.124 A 
ATOM     17  C   UNL     1      -1.795   3.089  23.873  0.00  0.00    +0.008 A 
ATOM     19  C   UNL     1      -2.679   4.653  26.007  0.00  0.00    +0.046 A 
ATOM     20  C   UNL     1      -0.977   4.096  24.385  0.00  0.00    +0.001 A 
ATOM     21  C   UNL     1      -1.418   4.878  25.451  0.00  0.00    +0.004 A 
BRANCH  16   4
ATOM      4  O   UNL     1      -4.723   3.440  26.050  0.00  0.00    -0.495 OA
ATOM     26  C   UNL     1      -5.804   4.219  25.541  0.00  0.00    +0.277 C 
ENDBRANCH  16   4
ENDBRANCH  11  13
ENDBRANCH   5  11
ENDBRANCH   7   5
BRANCH   7  10
ATOM     10  C   UNL     1      -2.431  -0.185  23.202  0.00  0.00    +0.085 C 
BRANCH  10  12
ATOM      3  O   UNL     1       0.727  -1.417  24.323  0.00  0.00    -0.354 OA
ATOM      6  N   UNL     1      -0.662  -1.436  24.304  0.00  0.00    -0.083 NA
ATOM     12  C   UNL     1      -1.009  -0.455  23.466  0.00  0.00    +0.086 A 
ATOM     14  C   UNL     1       0.106   0.210  22.930  0.00  0.00    +0.076 A 
ATOM     15  C   UNL     1       1.174  -0.433  23.500  0.00  0.00    +0.167 A 
BRANCH  15  18
ATOM      1  F   UNL     1       6.708   0.111  23.160  0.00  0.00    -0.205 F 
ATOM     18  C   UNL     1       2.607  -0.291  23.414  0.00  0.00    +0.020 A 
ATOM     22  C   UNL     1       3.161   0.873  22.882  0.00  0.00    +0.014 A 
ATOM     23  C   UNL     1       3.437  -1.320  23.859  0.00  0.00    +0.014 A 
ATOM     24  C   UNL     1       4.547   1.009  22.797  0.00  0.00    +0.039 A 
ATOM     25  C   UNL     1       4.822  -1.184  23.773  0.00  0.00    +0.039 A 
ATOM     27  C   UNL     1       5.378  -0.020  23.242  0.00  0.00    +0.123 A 
ENDBRANCH  15  18
ENDBRANCH  10  12
ENDBRANCH   7  10
TORSDOF 7
ENDMDL
MODEL 9
REMARK VINA RESULT:      -2.6      4.033      6.223
REMARK  Name = 56775488
REMARK  8 active torsions:
REMARK  status: ('A' for Active; 'I' for Inactive)
REMARK    1  A    between atoms: O_4  and  C_16
REMARK    2  A    between atoms: O_4  and  C_26
REMARK    3  A    between atoms: N_5  and  C_7
REMARK    4  A    between atoms: N_5  and  C_11
REMARK    5  A    between atoms: C_7  and  C_10
REMARK    6  A    between atoms: C_10  and  C_12
REMARK    7  A    between atoms: C_11  and  C_13
REMARK    8  A    between atoms: C_15  and  C_18
REMARK                            x       y       z     vdW  Elec       q    Type
REMARK                         _______ _______ _______ _____ _____    ______ ____
ROOT
ATOM      2  O   UNL     1      -5.645  -7.282   9.564  0.00  0.00    -0.376 OA
ATOM      7  C   UNL     1      -5.929  -9.287  10.238  0.00  0.00    +0.072 C 
ATOM      8  C   UNL     1      -5.467  -7.959  10.829  0.00  0.00    +0.184 C 
ATOM      9  C   UNL     1      -6.000  -8.526   8.919  0.00  0.00    +0.184 C 
ENDROOT
BRANCH   7   5
ATOM      5  N   UNL     1      -7.285  -9.558  10.697  0.00  0.00    -0.302 NA
ATOM     28  H   UNL     1      -7.987  -9.622   9.960  0.00  0.00    +0.123 HD
BRANCH   5  11
ATOM     11  C   UNL     1      -7.300 -10.778  11.500  0.00  0.00    +0.120 C 
BRANCH  11  13
ATOM     13  C   UNL     1      -7.734 -10.510  12.917  0.00  0.00    +0.008 A 
ATOM     16  C   UNL     1      -9.087 -10.456  13.250  0.00  0.00    +0.124 A 
ATOM     17  C   UNL     1      -6.765 -10.317  13.902  0.00  0.00    +0.008 A 
ATOM     19  C   UNL     1      -9.472 -10.208  14.567  0.00  0.00    +0.046 A 
ATOM     20  C   UNL     1      -7.149 -10.069  15.219  0.00  0.00    +0.001 A 
ATOM     21  C   UNL     1      -8.503 -10.014  15.552  0.00  0.00    +0.004 A 
BRANCH  16   4
ATOM      4  O   UNL     1     -10.046 -10.643  12.301  0.00  0.00    -0.495 OA
ATOM     26  C   UNL     1     -10.640  -9.474  11.740  0.00  0.00    +0.277 C 
ENDBRANCH  16   4
ENDBRANCH  11  13
ENDBRANCH   5  11
ENDBRANCH   7   5
BRANCH   7  10
ATOM     10  C   UNL     1      -5.008 -10.509  10.344  0.00  0.00    +0.085 C 
BRANCH  10  12
ATOM      3  O   UNL     1      -2.113 -10.104  12.396  0.00  0.00    -0.354 OA
ATOM      6  N   UNL     1      -3.371 -10.635  12.137  0.00  0.00    -0.083 NA
ATOM     12  C   UNL     1      -3.712 -10.148  10.941  0.00  0.00    +0.086 A 
ATOM     14  C   UNL     1      -2.719  -9.313  10.401  0.00  0.00    +0.076 A 
ATOM     15  C   UNL     1      -1.735  -9.319  11.354  0.00  0.00    +0.167 A 
BRANCH  15  18
ATOM      1  F   UNL     1       3.267  -6.914  11.837  0.00  0.00    -0.205 F 
ATOM     18  C   UNL     1      -0.440  -8.695  11.478  0.00  0.00    +0.020 A 
ATOM     22  C   UNL     1       0.589  -9.046  10.604  0.00  0.00    +0.014 A 
ATOM     23  C   UNL     1      -0.218  -7.744  12.473  0.00  0.00    +0.014 A 
ATOM     24  C   UNL     1       1.841  -8.443  10.725  0.00  0.00    +0.039 A 
ATOM     25  C   UNL     1       1.035  -7.143  12.594  0.00  0.00    +0.039 A 
ATOM     27  C   UNL     1       2.065  -7.492  11.721  0.00  0.00    +0.123 A 
ENDBRANCH  15  18
ENDBRANCH  10  12
ENDBRANCH   7  10
TORSDOF 7
ENDMDL
MODEL 10
REMARK VINA RESULT:      -2.2     15.053     17.798
REMARK  Name = 56775488
REMARK  8 active torsions:
REMARK  status: ('A' for Active; 'I' for Inactive)
REMARK    1  A    between atoms: O_4  and  C_16
REMARK    2  A    between atoms: O_4  and  C_26
REMARK    3  A    between atoms: N_5  and  C_7
REMARK    4  A    between atoms: N_5  and  C_11
REMARK    5  A    between atoms: C_7  and  C_10
REMARK    6  A    between atoms: C_10  and  C_12
REMARK    7  A    between atoms: C_11  and  C_13
REMARK    8  A    between atoms: C_15  and  C_18
REMARK                            x       y       z     vdW  Elec       q    Type
REMARK                         _______ _______ _______ _____ _____    ______ ____
ROOT
ATOM      2  O   UNL     1      -3.867  -3.971  24.302  0.00  0.00    -0.376 OA
ATOM      7  C   UNL     1      -2.685  -2.337  25.001  0.00  0.00    +0.072 C 
ATOM      8  C   UNL     1      -3.288  -2.801  23.680  0.00  0.00    +0.184 C 
ATOM      9  C   UNL     1      -3.245  -3.640  25.564  0.00  0.00    +0.184 C 
ENDROOT
BRANCH   7   5
ATOM      5  N   UNL     1      -3.476  -1.227  25.514  0.00  0.00    -0.302 NA
ATOM     28  H   UNL     1      -2.937  -0.457  25.909  0.00  0.00    +0.123 HD
BRANCH   5  11
ATOM     11  C   UNL     1      -4.358  -0.723  24.464  0.00  0.00    +0.120 C 
BRANCH  11  13
ATOM     13  C   UNL     1      -4.649   0.745  24.633  0.00  0.00    +0.008 A 
ATOM     16  C   UNL     1      -4.122   1.683  23.746  0.00  0.00    +0.124 A 
ATOM     17  C   UNL     1      -5.456   1.163  25.692  0.00  0.00    +0.008 A 
ATOM     19  C   UNL     1      -4.401   3.038  23.917  0.00  0.00    +0.046 A 
ATOM     20  C   UNL     1      -5.736   2.518  25.863  0.00  0.00    +0.001 A 
ATOM     21  C   UNL     1      -5.209   3.456  24.976  0.00  0.00    +0.004 A 
BRANCH  16   4
ATOM      4  O   UNL     1      -3.332   1.292  22.707  0.00  0.00    -0.495 OA
ATOM     26  C   UNL     1      -2.768   2.323  21.898  0.00  0.00    +0.277 C 
ENDBRANCH  16   4
ENDBRANCH  11  13
ENDBRANCH   5  11
ENDBRANCH   7   5
BRANCH   7  10
ATOM     10  C   UNL     1      -1.174  -2.081  25.080  0.00  0.00    +0.085 C 
BRANCH  10  12
ATOM      3  O   UNL     1       0.161   1.046  23.990  0.00  0.00    -0.354 OA
ATOM      6  N   UNL     1       0.142  -0.343  24.003  0.00  0.00    -0.083 NA
ATOM     12  C   UNL     1      -0.861  -0.666  24.825  0.00  0.00    +0.086 A 
ATOM     14  C   UNL     1      -1.504   0.465  25.355  0.00  0.00    +0.076 A 
ATOM     15  C   UNL     1      -0.823   1.516  24.798  0.00  0.00    +0.167 A 
BRANCH  15  18
ATOM      1  F   UNL     1      -1.236   7.062  25.131  0.00  0.00    -0.205 F 
ATOM     18  C   UNL     1      -0.929   2.952  24.886  0.00  0.00    +0.020 A 
ATOM     22  C   UNL     1      -1.834   3.532  25.774  0.00  0.00    +0.014 A 
ATOM     23  C   UNL     1      -0.128   3.760  24.080  0.00  0.00    +0.014 A 
ATOM     24  C   UNL     1      -1.937   4.921  25.858  0.00  0.00    +0.039 A 
ATOM     25  C   UNL     1      -0.232   5.149  24.163  0.00  0.00    +0.039 A 
ATOM     27  C   UNL     1      -1.136   5.729  25.051  0.00  0.00    +0.123 A 
ENDBRANCH  15  18
ENDBRANCH  10  12
ENDBRANCH   7  10
TORSDOF 7
ENDMDL
