MODEL 1
REMARK VINA RESULT:      -4.9      0.000      0.000
REMARK  Name = 75536956
REMARK  4 active torsions:
REMARK  status: ('A' for Active; 'I' for Inactive)
REMARK    1  A    between atoms: O_2  and  C_8
REMARK    2  A    between atoms: N_3  and  C_6
REMARK    3  A    between atoms: N_4  and  C_17
REMARK    4  A    between atoms: C_6  and  C_9
REMARK                            x       y       z     vdW  Elec       q    Type
REMARK                         _______ _______ _______ _____ _____    ______ ____
ROOT
ATOM      6  C   UNL     1      -1.851   1.692  23.451  0.00  0.00    +0.121 C 
ENDROOT
BRANCH   6   9
ATOM      4  N   UNL     1      -0.619  -1.458  24.900  0.00  0.00    -0.349 N 
ATOM      9  C   UNL     1      -1.611   0.306  23.988  0.00  0.00    -0.008 A 
ATOM     12  C   UNL     1      -2.552  -0.761  24.032  0.00  0.00    +0.004 A 
ATOM     13  C   UNL     1      -1.905  -1.856  24.608  0.00  0.00    +0.049 A 
ATOM     14  C   UNL     1      -0.432  -0.154  24.528  0.00  0.00    +0.091 A 
ATOM     15  C   UNL     1      -3.897  -0.900  23.635  0.00  0.00    +0.010 A 
ATOM     16  C   UNL     1      -2.536  -3.087  24.808  0.00  0.00    +0.026 A 
ATOM     17  C   UNL     1       0.400  -2.286  25.510  0.00  0.00    +0.149 C 
ATOM     18  C   UNL     1      -4.542  -2.126  23.829  0.00  0.00    +0.001 A 
ATOM     19  C   UNL     1      -3.871  -3.203  24.407  0.00  0.00    +0.002 A 
ENDBRANCH   6   9
BRANCH   6   3
ATOM      1  O   UNL     1      -2.950   5.136  26.187  0.00  0.00    -0.376 OA
ATOM      3  N   UNL     1      -2.374   2.591  24.479  0.00  0.00    -0.293 NA
ATOM      5  C   UNL     1      -3.838   2.510  24.523  0.00  0.00    +0.118 C 
ATOM      7  C   UNL     1      -1.850   3.949  24.320  0.00  0.00    +0.113 C 
ATOM      8  C   UNL     1      -4.599   3.636  25.242  0.00  0.00    +0.154 C 
ATOM     10  C   UNL     1      -1.724   4.623  25.687  0.00  0.00    +0.175 C 
ATOM     11  C   UNL     1      -3.920   4.143  26.507  0.00  0.00    +0.192 C 
BRANCH   8   2
ATOM      2  O   UNL     1      -5.889   3.141  25.601  0.00  0.00    -0.388 OA
ATOM     20  H   UNL     1      -6.537   3.553  25.005  0.00  0.00    +0.210 HD
ENDBRANCH   8   2
ENDBRANCH   6   3
TORSDOF 3
ENDMDL
MODEL 2
REMARK VINA RESULT:      -4.7      2.739      6.306
REMARK  Name = 75536956
REMARK  4 active torsions:
REMARK  status: ('A' for Active; 'I' for Inactive)
REMARK    1  A    between atoms: O_2  and  C_8
REMARK    2  A    between atoms: N_3  and  C_6
REMARK    3  A    between atoms: N_4  and  C_17
REMARK    4  A    between atoms: C_6  and  C_9
REMARK                            x       y       z     vdW  Elec       q    Type
REMARK                         _______ _______ _______ _____ _____    ______ ____
ROOT
ATOM      6  C   UNL     1      -3.774   0.518  23.514  0.00  0.00    +0.121 C 
ENDROOT
BRANCH   6   9
ATOM      4  N   UNL     1      -4.825   3.605  25.216  0.00  0.00    -0.349 N 
ATOM      9  C   UNL     1      -3.926   1.853  24.193  0.00  0.00    -0.008 A 
ATOM     12  C   UNL     1      -2.891   2.791  24.461  0.00  0.00    +0.004 A 
ATOM     13  C   UNL     1      -3.481   3.882  25.103  0.00  0.00    +0.049 A 
ATOM     14  C   UNL     1      -5.104   2.382  24.669  0.00  0.00    +0.091 A 
ATOM     15  C   UNL     1      -1.503   2.817  24.217  0.00  0.00    +0.010 A 
ATOM     16  C   UNL     1      -2.751   5.001  25.515  0.00  0.00    +0.026 A 
ATOM     17  C   UNL     1      -5.814   4.472  25.822  0.00  0.00    +0.149 C 
ATOM     18  C   UNL     1      -0.760   3.930  24.623  0.00  0.00    +0.001 A 
ATOM     19  C   UNL     1      -1.376   5.005  25.263  0.00  0.00    +0.002 A 
ENDBRANCH   6   9
BRANCH   6   3
ATOM      1  O   UNL     1      -1.350  -2.830  25.379  0.00  0.00    -0.376 OA
ATOM      3  N   UNL     1      -2.804  -0.335  24.201  0.00  0.00    -0.293 NA
ATOM      5  C   UNL     1      -1.452  -0.074  23.692  0.00  0.00    +0.118 C 
ATOM      7  C   UNL     1      -3.203  -1.743  24.158  0.00  0.00    +0.113 C 
ATOM      8  C   UNL     1      -0.360  -1.115  23.987  0.00  0.00    +0.154 C 
ATOM     10  C   UNL     1      -2.721  -2.460  25.419  0.00  0.00    +0.175 C 
ATOM     11  C   UNL     1      -0.443  -1.733  25.376  0.00  0.00    +0.192 C 
BRANCH   8   2
ATOM      2  O   UNL     1       0.909  -0.473  23.864  0.00  0.00    -0.388 OA
ATOM     20  H   UNL     1       0.850   0.155  23.124  0.00  0.00    +0.210 HD
ENDBRANCH   8   2
ENDBRANCH   6   3
TORSDOF 3
ENDMDL
MODEL 3
REMARK VINA RESULT:      -4.6     14.401     16.678
REMARK  Name = 75536956
REMARK  4 active torsions:
REMARK  status: ('A' for Active; 'I' for Inactive)
REMARK    1  A    between atoms: O_2  and  C_8
REMARK    2  A    between atoms: N_3  and  C_6
REMARK    3  A    between atoms: N_4  and  C_17
REMARK    4  A    between atoms: C_6  and  C_9
REMARK                            x       y       z     vdW  Elec       q    Type
REMARK                         _______ _______ _______ _____ _____    ______ ____
ROOT
ATOM      6  C   UNL     1      -6.746 -10.781  13.736  0.00  0.00    +0.121 C 
ENDROOT
BRANCH   6   9
ATOM      4  N   UNL     1      -6.498  -8.949  10.555  0.00  0.00    -0.349 N 
ATOM      9  C   UNL     1      -6.364 -10.086  12.456  0.00  0.00    -0.008 A 
ATOM     12  C   UNL     1      -5.053  -9.961  11.918  0.00  0.00    +0.004 A 
ATOM     13  C   UNL     1      -5.164  -9.244  10.725  0.00  0.00    +0.049 A 
ATOM     14  C   UNL     1      -7.231  -9.454  11.595  0.00  0.00    +0.091 A 
ATOM     15  C   UNL     1      -3.776 -10.392  12.334  0.00  0.00    +0.010 A 
ATOM     16  C   UNL     1      -4.061  -8.934   9.924  0.00  0.00    +0.026 A 
ATOM     17  C   UNL     1      -7.062  -8.213   9.442  0.00  0.00    +0.149 C 
ATOM     18  C   UNL     1      -2.663 -10.089  11.542  0.00  0.00    +0.001 A 
ATOM     19  C   UNL     1      -2.805  -9.370  10.355  0.00  0.00    +0.002 A 
ENDBRANCH   6   9
BRANCH   6   3
ATOM      1  O   UNL     1     -10.288  -8.839  15.794  0.00  0.00    -0.376 OA
ATOM      3  N   UNL     1      -7.675  -9.980  14.534  0.00  0.00    -0.293 NA
ATOM      5  C   UNL     1      -7.277 -10.005  15.946  0.00  0.00    +0.118 C 
ATOM      7  C   UNL     1      -9.064 -10.371  14.291  0.00  0.00    +0.113 C 
ATOM      8  C   UNL     1      -8.314  -9.566  16.992  0.00  0.00    +0.154 C 
ATOM     10  C   UNL     1      -9.982  -9.158  14.444  0.00  0.00    +0.175 C 
ATOM     11  C   UNL     1      -9.178  -8.387  16.562  0.00  0.00    +0.192 C 
BRANCH   8   2
ATOM      2  O   UNL     1      -7.616  -9.191  18.180  0.00  0.00    -0.388 OA
ATOM     20  H   UNL     1      -8.243  -8.715  18.750  0.00  0.00    +0.210 HD
ENDBRANCH   8   2
ENDBRANCH   6   3
TORSDOF 3
ENDMDL
MODEL 4
REMARK VINA RESULT:      -4.3      2.660      6.006
REMARK  Name = 75536956
REMARK  4 active torsions:
REMARK  status: ('A' for Active; 'I' for Inactive)
REMARK    1  A    between atoms: O_2  and  C_8
REMARK    2  A    between atoms: N_3  and  C_6
REMARK    3  A    between atoms: N_4  and  C_17
REMARK    4  A    between atoms: C_6  and  C_9
REMARK                            x       y       z     vdW  Elec       q    Type
REMARK                         _______ _______ _______ _____ _____    ______ ____
ROOT
ATOM      6  C   UNL     1      -2.993   0.862  22.763  0.00  0.00    +0.121 C 
ENDROOT
BRANCH   6   9
ATOM      4  N   UNL     1      -4.491   3.338  25.035  0.00  0.00    -0.349 N 
ATOM      9  C   UNL     1      -3.346   1.996  23.688  0.00  0.00    -0.008 A 
ATOM     12  C   UNL     1      -2.477   3.033  24.128  0.00  0.00    +0.004 A 
ATOM     13  C   UNL     1      -3.220   3.862  24.971  0.00  0.00    +0.049 A 
ATOM     14  C   UNL     1      -4.577   2.210  24.263  0.00  0.00    +0.091 A 
ATOM     15  C   UNL     1      -1.124   3.348  23.887  0.00  0.00    +0.010 A 
ATOM     16  C   UNL     1      -2.677   4.993  25.588  0.00  0.00    +0.026 A 
ATOM     17  C   UNL     1      -5.589   3.887  25.801  0.00  0.00    +0.149 C 
ATOM     18  C   UNL     1      -0.567   4.476  24.498  0.00  0.00    +0.001 A 
ATOM     19  C   UNL     1      -1.333   5.286  25.336  0.00  0.00    +0.002 A 
ENDBRANCH   6   9
BRANCH   6   3
ATOM      1  O   UNL     1      -0.532  -1.832  25.455  0.00  0.00    -0.376 OA
ATOM      3  N   UNL     1      -2.332  -0.234  23.472  0.00  0.00    -0.293 NA
ATOM      5  C   UNL     1      -3.328  -1.192  23.964  0.00  0.00    +0.118 C 
ATOM      7  C   UNL     1      -1.418   0.268  24.500  0.00  0.00    +0.113 C 
ATOM      8  C   UNL     1      -2.893  -2.188  25.051  0.00  0.00    +0.154 C 
ATOM     10  C   UNL     1      -0.238  -0.691  24.662  0.00  0.00    +0.175 C 
ATOM     11  C   UNL     1      -1.478  -2.725  24.877  0.00  0.00    +0.192 C 
BRANCH   8   2
ATOM      2  O   UNL     1      -3.792  -3.296  25.024  0.00  0.00    -0.388 OA
ATOM     20  H   UNL     1      -3.379  -4.020  25.524  0.00  0.00    +0.210 HD
ENDBRANCH   8   2
ENDBRANCH   6   3
TORSDOF 3
ENDMDL
MODEL 5
REMARK VINA RESULT:      -4.2     14.577     16.326
REMARK  Name = 75536956
REMARK  4 active torsions:
REMARK  status: ('A' for Active; 'I' for Inactive)
REMARK    1  A    between atoms: O_2  and  C_8
REMARK    2  A    between atoms: N_3  and  C_6
REMARK    3  A    between atoms: N_4  and  C_17
REMARK    4  A    between atoms: C_6  and  C_9
REMARK                            x       y       z     vdW  Elec       q    Type
REMARK                         _______ _______ _______ _____ _____    ______ ____
ROOT
ATOM      6  C   UNL     1      -5.790 -10.542  13.122  0.00  0.00    +0.121 C 
ENDROOT
BRANCH   6   9
ATOM      4  N   UNL     1      -3.247 -10.718  15.775  0.00  0.00    -0.349 N 
ATOM      9  C   UNL     1      -4.975 -10.614  14.386  0.00  0.00    -0.008 A 
ATOM     12  C   UNL     1      -5.475 -10.646  15.717  0.00  0.00    +0.004 A 
ATOM     13  C   UNL     1      -4.371 -10.711  16.570  0.00  0.00    +0.049 A 
ATOM     14  C   UNL     1      -3.601 -10.660  14.454  0.00  0.00    +0.091 A 
ATOM     15  C   UNL     1      -6.767 -10.626  16.280  0.00  0.00    +0.010 A 
ATOM     16  C   UNL     1      -4.494 -10.757  17.962  0.00  0.00    +0.026 A 
ATOM     17  C   UNL     1      -1.881 -10.778  16.251  0.00  0.00    +0.149 C 
ATOM     18  C   UNL     1      -6.905 -10.671  17.672  0.00  0.00    +0.001 A 
ATOM     19  C   UNL     1      -5.784 -10.736  18.499  0.00  0.00    +0.002 A 
ENDBRANCH   6   9
BRANCH   6   3
ATOM      1  O   UNL     1      -2.946  -9.350   9.798  0.00  0.00    -0.376 OA
ATOM      3  N   UNL     1      -5.049  -9.907  12.031  0.00  0.00    -0.293 NA
ATOM      5  C   UNL     1      -5.964  -9.553  10.940  0.00  0.00    +0.118 C 
ATOM      7  C   UNL     1      -3.904 -10.719  11.619  0.00  0.00    +0.113 C 
ATOM      8  C   UNL     1      -5.353  -9.242   9.564  0.00  0.00    +0.154 C 
ATOM     10  C   UNL     1      -2.773  -9.814  11.129  0.00  0.00    +0.175 C 
ATOM     11  C   UNL     1      -4.046  -8.464   9.620  0.00  0.00    +0.192 C 
BRANCH   8   2
ATOM      2  O   UNL     1      -6.297  -8.467   8.824  0.00  0.00    -0.388 OA
ATOM     20  H   UNL     1      -7.186  -8.734   9.113  0.00  0.00    +0.210 HD
ENDBRANCH   8   2
ENDBRANCH   6   3
TORSDOF 3
ENDMDL
MODEL 6
REMARK VINA RESULT:      -4.2      2.539      5.430
REMARK  Name = 75536956
REMARK  4 active torsions:
REMARK  status: ('A' for Active; 'I' for Inactive)
REMARK    1  A    between atoms: O_2  and  C_8
REMARK    2  A    between atoms: N_3  and  C_6
REMARK    3  A    between atoms: N_4  and  C_17
REMARK    4  A    between atoms: C_6  and  C_9
REMARK                            x       y       z     vdW  Elec       q    Type
REMARK                         _______ _______ _______ _____ _____    ______ ____
ROOT
ATOM      6  C   UNL     1      -2.215   1.151  22.625  0.00  0.00    +0.121 C 
ENDROOT
BRANCH   6   9
ATOM      4  N   UNL     1      -2.301   4.122  24.793  0.00  0.00    -0.349 N 
ATOM      9  C   UNL     1      -2.511   2.271  23.586  0.00  0.00    -0.008 A 
ATOM     12  C   UNL     1      -3.699   2.443  24.349  0.00  0.00    +0.004 A 
ATOM     13  C   UNL     1      -3.542   3.611  25.098  0.00  0.00    +0.049 A 
ATOM     14  C   UNL     1      -1.670   3.320  23.881  0.00  0.00    +0.091 A 
ATOM     15  C   UNL     1      -4.898   1.713  24.475  0.00  0.00    +0.010 A 
ATOM     16  C   UNL     1      -4.526   4.088  25.969  0.00  0.00    +0.026 A 
ATOM     17  C   UNL     1      -1.729   5.331  25.348  0.00  0.00    +0.149 C 
ATOM     18  C   UNL     1      -5.892   2.178  25.343  0.00  0.00    +0.001 A 
ATOM     19  C   UNL     1      -5.707   3.348  26.078  0.00  0.00    +0.002 A 
ENDBRANCH   6   9
BRANCH   6   3
ATOM      1  O   UNL     1      -0.810  -2.141  25.409  0.00  0.00    -0.376 OA
ATOM      3  N   UNL     1      -1.902  -0.097  23.323  0.00  0.00    -0.293 NA
ATOM      5  C   UNL     1      -3.128  -0.871  23.546  0.00  0.00    +0.118 C 
ATOM      7  C   UNL     1      -1.114   0.149  24.532  0.00  0.00    +0.113 C 
ATOM      8  C   UNL     1      -3.083  -2.002  24.587  0.00  0.00    +0.154 C 
ATOM     10  C   UNL     1      -0.176  -1.030  24.792  0.00  0.00    +0.175 C 
ATOM     11  C   UNL     1      -1.782  -2.793  24.598  0.00  0.00    +0.192 C 
BRANCH   8   2
ATOM      2  O   UNL     1      -4.149  -2.909  24.303  0.00  0.00    -0.388 OA
ATOM     20  H   UNL     1      -4.763  -2.884  25.056  0.00  0.00    +0.210 HD
ENDBRANCH   8   2
ENDBRANCH   6   3
TORSDOF 3
ENDMDL
MODEL 7
REMARK VINA RESULT:      -4.0     16.771     18.563
REMARK  Name = 75536956
REMARK  4 active torsions:
REMARK  status: ('A' for Active; 'I' for Inactive)
REMARK    1  A    between atoms: O_2  and  C_8
REMARK    2  A    between atoms: N_3  and  C_6
REMARK    3  A    between atoms: N_4  and  C_17
REMARK    4  A    between atoms: C_6  and  C_9
REMARK                            x       y       z     vdW  Elec       q    Type
REMARK                         _______ _______ _______ _____ _____    ______ ____
ROOT
ATOM      6  C   UNL     1      13.924   8.742  21.210  0.00  0.00    +0.121 C 
ENDROOT
BRANCH   6   9
ATOM      4  N   UNL     1      14.499   7.665  17.739  0.00  0.00    -0.349 N 
ATOM      9  C   UNL     1      14.376   8.149  19.902  0.00  0.00    -0.008 A 
ATOM     12  C   UNL     1      15.464   7.253  19.707  0.00  0.00    +0.004 A 
ATOM     13  C   UNL     1      15.520   6.965  18.342  0.00  0.00    +0.049 A 
ATOM     14  C   UNL     1      13.802   8.383  18.673  0.00  0.00    +0.091 A 
ATOM     15  C   UNL     1      16.410   6.657  20.566  0.00  0.00    +0.010 A 
ATOM     16  C   UNL     1      16.477   6.108  17.790  0.00  0.00    +0.026 A 
ATOM     17  C   UNL     1      14.193   7.654  16.324  0.00  0.00    +0.149 C 
ATOM     18  C   UNL     1      17.373   5.798  20.027  0.00  0.00    +0.001 A 
ATOM     19  C   UNL     1      17.405   5.528  18.660  0.00  0.00    +0.002 A 
ENDBRANCH   6   9
BRANCH   6   3
ATOM      1  O   UNL     1       9.636   7.776  22.321  0.00  0.00    -0.376 OA
ATOM      3  N   UNL     1      12.659   8.163  21.663  0.00  0.00    -0.293 NA
ATOM      5  C   UNL     1      12.459   6.845  21.050  0.00  0.00    +0.118 C 
ATOM      7  C   UNL     1      11.546   9.094  21.471  0.00  0.00    +0.113 C 
ATOM      8  C   UNL     1      11.043   6.248  21.078  0.00  0.00    +0.154 C 
ATOM     10  C   UNL     1      10.495   8.882  22.561  0.00  0.00    +0.175 C 
ATOM     11  C   UNL     1      10.279   6.507  22.370  0.00  0.00    +0.192 C 
BRANCH   8   2
ATOM      2  O   UNL     1      11.154   4.835  20.906  0.00  0.00    -0.388 OA
ATOM     20  H   UNL     1      10.482   4.418  21.472  0.00  0.00    +0.210 HD
ENDBRANCH   8   2
ENDBRANCH   6   3
TORSDOF 3
ENDMDL
MODEL 8
REMARK VINA RESULT:      -3.9      1.154      2.158
REMARK  Name = 75536956
REMARK  4 active torsions:
REMARK  status: ('A' for Active; 'I' for Inactive)
REMARK    1  A    between atoms: O_2  and  C_8
REMARK    2  A    between atoms: N_3  and  C_6
REMARK    3  A    between atoms: N_4  and  C_17
REMARK    4  A    between atoms: C_6  and  C_9
REMARK                            x       y       z     vdW  Elec       q    Type
REMARK                         _______ _______ _______ _____ _____    ______ ____
ROOT
ATOM      6  C   UNL     1      -3.201   1.904  22.760  0.00  0.00    +0.121 C 
ENDROOT
BRANCH   6   9
ATOM      4  N   UNL     1      -0.538  -0.352  23.924  0.00  0.00    -0.349 N 
ATOM      9  C   UNL     1      -2.325   0.795  23.278  0.00  0.00    -0.008 A 
ATOM     12  C   UNL     1      -2.753  -0.493  23.706  0.00  0.00    +0.004 A 
ATOM     13  C   UNL     1      -1.612  -1.193  24.106  0.00  0.00    +0.049 A 
ATOM     14  C   UNL     1      -0.958   0.851  23.424  0.00  0.00    +0.091 A 
ATOM     15  C   UNL     1      -4.006  -1.133  23.791  0.00  0.00    +0.010 A 
ATOM     16  C   UNL     1      -1.661  -2.505  24.588  0.00  0.00    +0.026 A 
ATOM     17  C   UNL     1       0.843  -0.677  24.213  0.00  0.00    +0.149 C 
ATOM     18  C   UNL     1      -4.070  -2.445  24.272  0.00  0.00    +0.001 A 
ATOM     19  C   UNL     1      -2.914  -3.120  24.664  0.00  0.00    +0.002 A 
ENDBRANCH   6   9
BRANCH   6   3
ATOM      1  O   UNL     1      -5.802   3.016  26.303  0.00  0.00    -0.376 OA
ATOM      3  N   UNL     1      -3.955   2.550  23.834  0.00  0.00    -0.293 NA
ATOM      5  C   UNL     1      -3.072   3.419  24.620  0.00  0.00    +0.118 C 
ATOM      7  C   UNL     1      -4.700   1.571  24.628  0.00  0.00    +0.113 C 
ATOM      8  C   UNL     1      -3.559   3.875  26.005  0.00  0.00    +0.154 C 
ATOM     10  C   UNL     1      -5.991   2.201  25.155  0.00  0.00    +0.175 C 
ATOM     11  C   UNL     1      -5.046   4.199  26.071  0.00  0.00    +0.192 C 
BRANCH   8   2
ATOM      2  O   UNL     1      -2.835   5.052  26.365  0.00  0.00    -0.388 OA
ATOM     20  H   UNL     1      -2.771   5.071  27.335  0.00  0.00    +0.210 HD
ENDBRANCH   8   2
ENDBRANCH   6   3
TORSDOF 3
ENDMDL
MODEL 9
REMARK VINA RESULT:      -3.9     14.452     16.441
REMARK  Name = 75536956
REMARK  4 active torsions:
REMARK  status: ('A' for Active; 'I' for Inactive)
REMARK    1  A    between atoms: O_2  and  C_8
REMARK    2  A    between atoms: N_3  and  C_6
REMARK    3  A    between atoms: N_4  and  C_17
REMARK    4  A    between atoms: C_6  and  C_9
REMARK                            x       y       z     vdW  Elec       q    Type
REMARK                         _______ _______ _______ _____ _____    ______ ____
ROOT
ATOM      6  C   UNL     1      -4.199 -10.781  13.656  0.00  0.00    +0.121 C 
ENDROOT
BRANCH   6   9
ATOM      4  N   UNL     1      -7.410  -9.866  15.201  0.00  0.00    -0.349 N 
ATOM      9  C   UNL     1      -5.375 -10.452  14.536  0.00  0.00    -0.008 A 
ATOM     12  C   UNL     1      -5.403 -10.477  15.958  0.00  0.00    +0.004 A 
ATOM     13  C   UNL     1      -6.691 -10.105  16.350  0.00  0.00    +0.049 A 
ATOM     14  C   UNL     1      -6.624 -10.073  14.099  0.00  0.00    +0.091 A 
ATOM     15  C   UNL     1      -4.452 -10.781  16.953  0.00  0.00    +0.010 A 
ATOM     16  C   UNL     1      -7.077 -10.021  17.692  0.00  0.00    +0.026 A 
ATOM     17  C   UNL     1      -8.797  -9.454  15.147  0.00  0.00    +0.149 C 
ATOM     18  C   UNL     1      -4.825 -10.702  18.299  0.00  0.00    +0.001 A 
ATOM     19  C   UNL     1      -6.118 -10.328  18.662  0.00  0.00    +0.002 A 
ENDBRANCH   6   9
BRANCH   6   3
ATOM      1  O   UNL     1      -3.577  -9.047   9.513  0.00  0.00    -0.376 OA
ATOM      3  N   UNL     1      -4.259 -10.071  12.378  0.00  0.00    -0.293 NA
ATOM      5  C   UNL     1      -5.564 -10.286  11.742  0.00  0.00    +0.118 C 
ATOM      7  C   UNL     1      -3.112 -10.398  11.529  0.00  0.00    +0.113 C 
ATOM      8  C   UNL     1      -5.694  -9.964  10.245  0.00  0.00    +0.154 C 
ATOM     10  C   UNL     1      -2.749  -9.196  10.657  0.00  0.00    +0.175 C 
ATOM     11  C   UNL     1      -4.932  -8.722   9.802  0.00  0.00    +0.192 C 
BRANCH   8   2
ATOM      2  O   UNL     1      -7.077  -9.760   9.953  0.00  0.00    -0.388 OA
ATOM     20  H   UNL     1      -7.337  -8.910  10.348  0.00  0.00    +0.210 HD
ENDBRANCH   8   2
ENDBRANCH   6   3
TORSDOF 3
ENDMDL
MODEL 10
REMARK VINA RESULT:      -3.8      1.384      1.817
REMARK  Name = 75536956
REMARK  4 active torsions:
REMARK  status: ('A' for Active; 'I' for Inactive)
REMARK    1  A    between atoms: O_2  and  C_8
REMARK    2  A    between atoms: N_3  and  C_6
REMARK    3  A    between atoms: N_4  and  C_17
REMARK    4  A    between atoms: C_6  and  C_9
REMARK                            x       y       z     vdW  Elec       q    Type
REMARK                         _______ _______ _______ _____ _____    ______ ____
ROOT
ATOM      6  C   UNL     1      -2.499   2.233  23.119  0.00  0.00    +0.121 C 
ENDROOT
BRANCH   6   9
ATOM      4  N   UNL     1       0.408   0.016  23.526  0.00  0.00    -0.349 N 
ATOM      9  C   UNL     1      -1.498   1.146  23.407  0.00  0.00    -0.008 A 
ATOM     12  C   UNL     1      -1.759  -0.101  24.039  0.00  0.00    +0.004 A 
ATOM     13  C   UNL     1      -0.547  -0.792  24.101  0.00  0.00    +0.049 A 
ATOM     14  C   UNL     1      -0.157   1.189  23.104  0.00  0.00    +0.091 A 
ATOM     15  C   UNL     1      -2.915  -0.712  24.566  0.00  0.00    +0.010 A 
ATOM     16  C   UNL     1      -0.432  -2.067  24.665  0.00  0.00    +0.026 A 
ATOM     17  C   UNL     1       1.810  -0.313  23.380  0.00  0.00    +0.149 C 
ATOM     18  C   UNL     1      -2.815  -1.986  25.133  0.00  0.00    +0.001 A 
ATOM     19  C   UNL     1      -1.591  -2.653  25.182  0.00  0.00    +0.002 A 
ENDBRANCH   6   9
BRANCH   6   3
ATOM      1  O   UNL     1      -4.602   4.135  26.658  0.00  0.00    -0.376 OA
ATOM      3  N   UNL     1      -3.296   2.566  24.300  0.00  0.00    -0.293 NA
ATOM      5  C   UNL     1      -4.693   2.164  24.096  0.00  0.00    +0.118 C 
ATOM      7  C   UNL     1      -3.122   3.967  24.686  0.00  0.00    +0.113 C 
ATOM      8  C   UNL     1      -5.756   2.764  25.030  0.00  0.00    +0.154 C 
ATOM     10  C   UNL     1      -3.257   4.111  26.202  0.00  0.00    +0.175 C 
ATOM     11  C   UNL     1      -5.308   2.912  26.478  0.00  0.00    +0.192 C 
BRANCH   8   2
ATOM      2  O   UNL     1      -6.900   1.910  25.006  0.00  0.00    -0.388 OA
ATOM     20  H   UNL     1      -6.703   1.173  24.403  0.00  0.00    +0.210 HD
ENDBRANCH   8   2
ENDBRANCH   6   3
TORSDOF 3
ENDMDL
