MODEL 1
REMARK VINA RESULT:       0.8      0.000      0.000
REMARK  Name = 40777111
REMARK  7 active torsions:
REMARK  status: ('A' for Active; 'I' for Inactive)
REMARK    1  A    between atoms: N_4  and  C_14
REMARK    2  A    between atoms: C_8  and  C_15
REMARK    3  A    between atoms: C_9  and  C_14
REMARK    4  A    between atoms: C_17  and  C_20
REMARK    5  A    between atoms: C_18  and  C_21
REMARK    6  A    between atoms: C_19  and  C_22
REMARK    7  A    between atoms: C_31  and  C_33
REMARK                            x       y       z     vdW  Elec       q    Type
REMARK                         _______ _______ _______ _____ _____    ______ ____
ROOT
ATOM      3  N   UNL     1      -2.854  -2.308  23.689  0.00  0.00    -0.297 NA
ATOM      7  C   UNL     1      -2.901  -1.378  26.121  0.00  0.00    +0.002 C 
ATOM      8  C   UNL     1      -4.027  -0.729  25.269  0.00  0.00    +0.055 C 
ATOM      9  C   UNL     1      -1.493  -1.866  24.090  0.00  0.00    +0.074 C 
ATOM     10  C   UNL     1      -1.537  -1.124  25.444  0.00  0.00    +0.024 C 
ATOM     11  C   UNL     1      -3.143  -2.902  26.094  0.00  0.00    +0.019 C 
ATOM     12  C   UNL     1      -3.808  -1.176  23.796  0.00  0.00    +0.094 C 
ATOM     13  C   UNL     1      -3.284  -3.366  24.633  0.00  0.00    +0.085 C 
ENDROOT
BRANCH   8  15
ATOM      5  N   UNL     1      -5.490   1.180  25.713  0.00  0.00    -0.237 NA
ATOM      6  N   UNL     1      -4.697   3.454  25.622  0.00  0.00    -0.232 NA
ATOM     15  C   UNL     1      -4.245   0.772  25.391  0.00  0.00    +0.050 A 
ATOM     16  C   UNL     1      -3.189   1.632  25.172  0.00  0.00    +0.052 A 
ATOM     17  C   UNL     1      -3.477   2.976  25.302  0.00  0.00    +0.076 A 
ATOM     18  C   UNL     1      -5.643   2.515  25.810  0.00  0.00    +0.127 A 
ATOM     21  C   UNL     1      -7.007   3.004  26.162  0.00  0.00    +0.088 C 
BRANCH  17  20
ATOM      1 BR   UNL     1      -0.464   1.919  25.499  0.00  0.00    -0.050 Br
ATOM     20  C   UNL     1      -2.459   3.980  25.098  0.00  0.00    +0.014 A 
ATOM     23  C   UNL     1      -1.099   3.677  25.151  0.00  0.00    +0.027 A 
ATOM     24  C   UNL     1      -2.873   5.287  24.840  0.00  0.00    +0.011 A 
ATOM     27  C   UNL     1      -0.152   4.680  24.947  0.00  0.00    +0.016 A 
ATOM     28  C   UNL     1      -1.926   6.290  24.635  0.00  0.00    +0.001 A 
ATOM     32  C   UNL     1      -0.566   5.987  24.689  0.00  0.00    +0.001 A 
ENDBRANCH  17  20
ENDBRANCH   8  15
BRANCH   9  14
ATOM     14  C   UNL     1      -0.808  -1.031  23.006  0.00  0.00    +0.123 C 
BRANCH  14   4
ATOM      2  O   UNL     1       1.285  -0.373  21.154  0.00  0.00    -0.270 OA
ATOM      4  N   UNL     1       0.572  -0.823  23.316  0.00  0.00    -0.310 N 
ATOM     19  C   UNL     1       1.527  -0.506  22.351  0.00  0.00    +0.244 C 
ATOM     34  H   UNL     1       0.852  -0.979  24.278  0.00  0.00    +0.149 HD
BRANCH  19  22
ATOM     22  C   UNL     1       2.923  -0.348  22.831  0.00  0.00    +0.037 A 
ATOM     25  C   UNL     1       3.614   0.840  22.588  0.00  0.00    +0.013 A 
ATOM     26  C   UNL     1       3.545  -1.387  23.524  0.00  0.00    +0.013 A 
ATOM     29  C   UNL     1       4.926   0.987  23.038  0.00  0.00    +0.004 A 
ATOM     30  C   UNL     1       4.856  -1.239  23.974  0.00  0.00    +0.004 A 
ATOM     31  C   UNL     1       5.547  -0.052  23.731  0.00  0.00    -0.050 A 
ATOM     33  C   UNL     1       6.950   0.107  24.212  0.00  0.00    +0.044 C 
ENDBRANCH  19  22
ENDBRANCH  14   4
ENDBRANCH   9  14
TORSDOF 5
ENDMDL
MODEL 2
REMARK VINA RESULT:       4.0      2.456      6.120
REMARK  Name = 40777111
REMARK  7 active torsions:
REMARK  status: ('A' for Active; 'I' for Inactive)
REMARK    1  A    between atoms: N_4  and  C_14
REMARK    2  A    between atoms: C_8  and  C_15
REMARK    3  A    between atoms: C_9  and  C_14
REMARK    4  A    between atoms: C_17  and  C_20
REMARK    5  A    between atoms: C_18  and  C_21
REMARK    6  A    between atoms: C_19  and  C_22
REMARK    7  A    between atoms: C_31  and  C_33
REMARK                            x       y       z     vdW  Elec       q    Type
REMARK                         _______ _______ _______ _____ _____    ______ ____
ROOT
ATOM      3  N   UNL     1      -5.335   3.634  24.388  0.00  0.00    -0.297 NA
ATOM      7  C   UNL     1      -3.891   4.185  26.484  0.00  0.00    +0.002 C 
ATOM      8  C   UNL     1      -2.991   4.036  25.227  0.00  0.00    +0.055 C 
ATOM      9  C   UNL     1      -5.692   2.720  25.504  0.00  0.00    +0.074 C 
ATOM     10  C   UNL     1      -4.709   2.891  26.683  0.00  0.00    +0.024 C 
ATOM     11  C   UNL     1      -4.899   5.315  26.178  0.00  0.00    +0.019 C 
ATOM     12  C   UNL     1      -3.890   3.512  24.071  0.00  0.00    +0.094 C 
ATOM     13  C   UNL     1      -5.595   5.023  24.837  0.00  0.00    +0.085 C 
ENDROOT
BRANCH   8  15
ATOM      5  N   UNL     1      -1.066   3.307  26.549  0.00  0.00    -0.237 NA
ATOM      6  N   UNL     1       0.622   1.836  25.655  0.00  0.00    -0.232 NA
ATOM     15  C   UNL     1      -1.700   3.240  25.359  0.00  0.00    +0.050 A 
ATOM     16  C   UNL     1      -1.242   2.504  24.286  0.00  0.00    +0.052 A 
ATOM     17  C   UNL     1      -0.064   1.815  24.493  0.00  0.00    +0.076 A 
ATOM     18  C   UNL     1       0.073   2.590  26.626  0.00  0.00    +0.127 A 
ATOM     21  C   UNL     1       0.804   2.640  27.924  0.00  0.00    +0.088 C 
BRANCH  17  20
ATOM      1 BR   UNL     1      -2.093   0.855  22.216  0.00  0.00    -0.050 Br
ATOM     20  C   UNL     1       0.522   1.008  23.449  0.00  0.00    +0.014 A 
ATOM     23  C   UNL     1      -0.231   0.513  22.385  0.00  0.00    +0.027 A 
ATOM     24  C   UNL     1       1.886   0.728  23.528  0.00  0.00    +0.011 A 
ATOM     27  C   UNL     1       0.379  -0.262  21.399  0.00  0.00    +0.016 A 
ATOM     28  C   UNL     1       2.497  -0.046  22.542  0.00  0.00    +0.001 A 
ATOM     32  C   UNL     1       1.743  -0.542  21.478  0.00  0.00    +0.001 A 
ENDBRANCH  17  20
ENDBRANCH   8  15
BRANCH   9  14
ATOM     14  C   UNL     1      -5.792   1.261  25.054  0.00  0.00    +0.123 C 
BRANCH  14   4
ATOM      2  O   UNL     1      -5.096  -1.310  23.983  0.00  0.00    -0.270 OA
ATOM      4  N   UNL     1      -4.528   0.603  25.167  0.00  0.00    -0.310 N 
ATOM     19  C   UNL     1      -4.274  -0.651  24.615  0.00  0.00    +0.244 C 
ATOM     34  H   UNL     1      -3.822   1.065  25.730  0.00  0.00    +0.149 HD
BRANCH  19  22
ATOM     22  C   UNL     1      -2.918  -1.211  24.844  0.00  0.00    +0.037 A 
ATOM     25  C   UNL     1      -2.491  -2.323  24.119  0.00  0.00    +0.013 A 
ATOM     26  C   UNL     1      -2.071  -0.625  25.784  0.00  0.00    +0.013 A 
ATOM     29  C   UNL     1      -1.217  -2.850  24.335  0.00  0.00    +0.004 A 
ATOM     30  C   UNL     1      -0.797  -1.151  26.000  0.00  0.00    +0.004 A 
ATOM     31  C   UNL     1      -0.370  -2.263  25.275  0.00  0.00    -0.050 A 
ATOM     33  C   UNL     1       0.991  -2.826  25.506  0.00  0.00    +0.044 C 
ENDBRANCH  19  22
ENDBRANCH  14   4
ENDBRANCH   9  14
TORSDOF 5
ENDMDL
