MODEL 1
REMARK VINA RESULT:       4.0      0.000      0.000
REMARK  Name = 7144092
REMARK  4 active torsions:
REMARK  status: ('A' for Active; 'I' for Inactive)
REMARK    1  A    between atoms: O_3  and  C_26
REMARK    2  A    between atoms: O_3  and  C_30
REMARK    3  A    between atoms: C_13  and  C_18
REMARK    4  A    between atoms: C_15  and  C_19
REMARK                            x       y       z     vdW  Elec       q    Type
REMARK                         _______ _______ _______ _____ _____    ______ ____
ROOT
ATOM      1  O   UNL     1      -3.151   4.139  27.682  0.00  0.00    -0.268 OA
ATOM      2  O   UNL     1      -5.881   0.698  25.141  0.00  0.00    -0.270 OA
ATOM      4  N   UNL     1      -4.302   1.530  23.630  0.00  0.00    -0.297 N 
ATOM      5  N   UNL     1      -2.645   3.465  25.497  0.00  0.00    -0.311 N 
ATOM      6  C   UNL     1      -4.202   4.008  23.531  0.00  0.00    +0.027 C 
ATOM      7  C   UNL     1      -2.156   2.693  23.155  0.00  0.00    +0.054 C 
ATOM      8  C   UNL     1      -2.934   3.925  22.694  0.00  0.00    +0.018 C 
ATOM      9  C   UNL     1      -5.060   2.745  23.340  0.00  0.00    +0.113 C 
ATOM     10  C   UNL     1      -3.805   4.215  24.994  0.00  0.00    +0.130 C 
ATOM     11  C   UNL     1      -3.013   1.428  22.929  0.00  0.00    +0.117 C 
ATOM     12  C   UNL     1      -1.756   2.798  24.629  0.00  0.00    +0.034 A 
ATOM     13  C   UNL     1      -0.614   2.250  25.119  0.00  0.00    +0.002 A 
ATOM     14  C   UNL     1      -2.417   3.559  26.881  0.00  0.00    +0.252 A 
ATOM     15  C   UNL     1      -4.802   0.611  24.556  0.00  0.00    +0.247 C 
ATOM     16  C   UNL     1      -0.348   2.324  26.544  0.00  0.00    +0.015 A 
ATOM     17  C   UNL     1      -1.185   2.918  27.394  0.00  0.00    +0.071 A 
ENDROOT
BRANCH  13  18
ATOM     18  C   UNL     1       0.359   1.563  24.242  0.00  0.00    -0.016 A 
ATOM     20  C   UNL     1       0.077   0.287  23.764  0.00  0.00    +0.012 A 
ATOM     21  C   UNL     1       1.550   2.198  23.901  0.00  0.00    +0.012 A 
ATOM     24  C   UNL     1       0.995  -0.361  22.938  0.00  0.00    +0.046 A 
ATOM     25  C   UNL     1       2.467   1.550  23.074  0.00  0.00    +0.046 A 
ATOM     26  C   UNL     1       2.190   0.271  22.593  0.00  0.00    +0.120 A 
BRANCH  26   3
ATOM      3  O   UNL     1       3.086  -0.361  21.786  0.00  0.00    -0.495 OA
ATOM     30  C   UNL     1       4.462  -0.028  21.957  0.00  0.00    +0.277 C 
ENDBRANCH  26   3
ENDBRANCH  13  18
BRANCH  15  19
ATOM     19  C   UNL     1      -3.980  -0.559  24.887  0.00  0.00    +0.037 A 
ATOM     22  C   UNL     1      -2.997  -0.459  25.870  0.00  0.00    +0.013 A 
ATOM     23  C   UNL     1      -4.187  -1.763  24.220  0.00  0.00    +0.013 A 
ATOM     27  C   UNL     1      -2.215  -1.571  26.185  0.00  0.00    +0.001 A 
ATOM     28  C   UNL     1      -3.405  -2.875  24.535  0.00  0.00    +0.001 A 
ATOM     29  C   UNL     1      -2.420  -2.779  25.517  0.00  0.00    +0.000 A 
ENDBRANCH  15  19
TORSDOF 3
ENDMDL
