MODEL 1
REMARK VINA RESULT:       5.9      0.000      0.000
REMARK  Name = 45783333
REMARK  5 active torsions:
REMARK  status: ('A' for Active; 'I' for Inactive)
REMARK    1  A    between atoms: N_4  and  C_15
REMARK    2  A    between atoms: C_10  and  C_18
REMARK    3  A    between atoms: C_14  and  C_23
REMARK    4  A    between atoms: C_15  and  C_21
REMARK    5  A    between atoms: C_24  and  C_27
REMARK                            x       y       z     vdW  Elec       q    Type
REMARK                         _______ _______ _______ _____ _____    ______ ____
ROOT
ATOM      1  O   UNL     1      -1.714   3.355  24.698  0.00  0.00    -0.336 OA
ATOM      6  N   UNL     1      -2.219   1.749  23.221  0.00  0.00    -0.190 NA
ATOM      7  N   UNL     1      -0.506   2.717  24.390  0.00  0.00    -0.056 NA
ATOM     18  C   UNL     1      -2.671   2.724  23.968  0.00  0.00    +0.245 A 
ATOM     24  C   UNL     1      -0.886   1.782  23.514  0.00  0.00    +0.202 A 
ENDROOT
BRANCH  24  27
ATOM      5  N   UNL     1       3.508  -0.201  23.265  0.00  0.00    -0.315 N 
ATOM      8  N   UNL     1       1.845  -0.923  21.744  0.00  0.00    -0.240 NA
ATOM     14  C   UNL     1       6.232  -0.293  24.266  0.00  0.00    +0.078 C 
ATOM     16  C   UNL     1       5.339  -1.531  24.244  0.00  0.00    +0.031 C 
ATOM     17  C   UNL     1       5.403   0.990  24.294  0.00  0.00    +0.031 C 
ATOM     19  C   UNL     1       4.238  -1.469  23.182  0.00  0.00    +0.107 C 
ATOM     20  C   UNL     1       4.322   1.021  23.213  0.00  0.00    +0.107 C 
ATOM     22  C   UNL     1       2.199  -0.125  22.776  0.00  0.00    +0.122 A 
ATOM     26  C   UNL     1       1.344   0.777  23.389  0.00  0.00    +0.055 A 
ATOM     27  C   UNL     1       0.040   0.865  22.913  0.00  0.00    +0.027 A 
ATOM     30  C   UNL     1      -0.362   0.059  21.853  0.00  0.00    +0.031 A 
ATOM     31  C   UNL     1       0.569  -0.810  21.309  0.00  0.00    +0.113 A 
BRANCH  14  23
ATOM      3  O   UNL     1       6.852  -0.659  21.986  0.00  0.00    -0.276 OA
ATOM      9  N   UNL     1       8.443   0.170  23.426  0.00  0.00    -0.329 N 
ATOM     23  C   UNL     1       7.184  -0.281  23.106  0.00  0.00    +0.214 C 
ATOM     36  H   UNL     1       9.168   0.223  22.719  0.00  0.00    +0.145 HD
ATOM     37  H   UNL     1       8.717   0.419  24.371  0.00  0.00    +0.145 HD
ENDBRANCH  14  23
ENDBRANCH  24  27
BRANCH  18  10
ATOM      4  N   UNL     1      -4.765   2.679  25.311  0.00  0.00    -0.284 NA
ATOM     10  C   UNL     1      -4.087   3.238  24.124  0.00  0.00    +0.146 C 
ATOM     11  C   UNL     1      -4.147   4.763  24.322  0.00  0.00    +0.030 C 
ATOM     12  C   UNL     1      -4.929   4.967  25.613  0.00  0.00    +0.017 C 
ATOM     13  C   UNL     1      -5.729   3.687  25.750  0.00  0.00    +0.085 C 
BRANCH   4  15
ATOM     15  C   UNL     1      -5.396   1.390  25.057  0.00  0.00    +0.159 C 
BRANCH  15  21
ATOM      2  O   UNL     1      -3.239   0.430  25.646  0.00  0.00    -0.458 OA
ATOM     21  C   UNL     1      -4.382   0.285  24.926  0.00  0.00    +0.120 A 
ATOM     25  C   UNL     1      -4.360  -0.888  24.207  0.00  0.00    +0.054 A 
ATOM     28  C   UNL     1      -3.118  -1.512  24.499  0.00  0.00    +0.020 A 
ATOM     29  C   UNL     1      -2.467  -0.663  25.388  0.00  0.00    +0.135 A 
ATOM     32  C   UNL     1      -2.475  -2.701  24.112  0.00  0.00    +0.011 A 
ATOM     33  C   UNL     1      -1.206  -0.912  25.925  0.00  0.00    +0.047 A 
ATOM     34  C   UNL     1      -1.205  -2.979  24.636  0.00  0.00    +0.001 A 
ATOM     35  C   UNL     1      -0.584  -2.100  25.527  0.00  0.00    +0.004 A 
ENDBRANCH  15  21
ENDBRANCH   4  15
ENDBRANCH  18  10
TORSDOF 5
ENDMDL
