MODEL 1
REMARK VINA RESULT:      -1.7      0.000      0.000
REMARK  Name = 45783545
REMARK  10 active torsions:
REMARK  status: ('A' for Active; 'I' for Inactive)
REMARK    1  A    between atoms: O_2  and  C_27
REMARK    2  A    between atoms: O_2  and  C_28
REMARK    3  A    between atoms: O_3  and  C_29
REMARK    4  A    between atoms: O_3  and  C_30
REMARK    5  A    between atoms: N_4  and  C_13
REMARK    6  A    between atoms: C_9  and  C_14
REMARK    7  A    between atoms: C_13  and  C_15
REMARK    8  A    between atoms: C_18  and  C_21
REMARK    9  A    between atoms: C_19  and  C_25
REMARK   10  A    between atoms: C_28  and  C_29
REMARK                            x       y       z     vdW  Elec       q    Type
REMARK                         _______ _______ _______ _____ _____    ______ ____
ROOT
ATOM      1  O   UNL     1      -1.839   2.519  25.729  0.00  0.00    -0.336 OA
ATOM      5  N   UNL     1      -1.720   1.768  23.622  0.00  0.00    -0.190 NA
ATOM      6  N   UNL     1      -0.500   2.163  25.517  0.00  0.00    -0.056 NA
ATOM     14  C   UNL     1      -2.487   2.255  24.565  0.00  0.00    +0.245 A 
ATOM     18  C   UNL     1      -0.511   1.730  24.253  0.00  0.00    +0.204 A 
ENDROOT
BRANCH  18  21
ATOM      7  N   UNL     1       3.015   1.539  23.088  0.00  0.00    -0.221 NA
ATOM     21  C   UNL     1       0.669   1.251  23.591  0.00  0.00    +0.041 A 
ATOM     23  C   UNL     1       0.642   0.084  22.836  0.00  0.00    +0.018 A 
ATOM     24  C   UNL     1       1.869   1.936  23.685  0.00  0.00    +0.126 A 
ATOM     26  C   UNL     1       1.801  -0.356  22.205  0.00  0.00    +0.068 A 
ATOM     27  C   UNL     1       2.951   0.401  22.362  0.00  0.00    +0.215 A 
BRANCH  27   2
ATOM      2  O   UNL     1       4.106  -0.011  21.750  0.00  0.00    -0.474 OA
BRANCH   2  28
ATOM     28  C   UNL     1       5.266  -0.104  22.568  0.00  0.00    +0.258 C 
BRANCH  28  29
ATOM     29  C   UNL     1       5.038  -1.162  23.631  0.00  0.00    +0.200 C 
BRANCH  29   3
ATOM      3  O   UNL     1       5.485  -0.663  24.887  0.00  0.00    -0.380 OA
ATOM     30  C   UNL     1       5.840   0.710  24.804  0.00  0.00    +0.194 C 
ENDBRANCH  29   3
ENDBRANCH  28  29
ENDBRANCH   2  28
ENDBRANCH  27   2
ENDBRANCH  18  21
BRANCH  14   9
ATOM      4  N   UNL     1      -4.789   1.442  25.048  0.00  0.00    -0.287 NA
ATOM      9  C   UNL     1      -3.970   2.559  24.535  0.00  0.00    +0.146 C 
ATOM     10  C   UNL     1      -4.349   3.760  25.422  0.00  0.00    +0.030 C 
ATOM     11  C   UNL     1      -5.428   3.239  26.359  0.00  0.00    +0.017 C 
ATOM     12  C   UNL     1      -5.994   2.042  25.621  0.00  0.00    +0.085 C 
BRANCH   4  13
ATOM     13  C   UNL     1      -5.103   0.447  24.031  0.00  0.00    +0.120 C 
BRANCH  13  15
ATOM     15  C   UNL     1      -4.267  -0.796  24.187  0.00  0.00    -0.032 A 
ATOM     16  C   UNL     1      -2.986  -0.714  24.733  0.00  0.00    +0.023 A 
ATOM     17  C   UNL     1      -4.776  -2.032  23.787  0.00  0.00    +0.005 A 
ATOM     19  C   UNL     1      -2.213  -1.866  24.877  0.00  0.00    +0.052 A 
ATOM     20  C   UNL     1      -4.004  -3.185  23.932  0.00  0.00    +0.002 A 
ATOM     22  C   UNL     1      -2.722  -3.101  24.477  0.00  0.00    +0.019 A 
BRANCH  19  25
ATOM      8  N   UNL     1       0.164  -1.713  25.891  0.00  0.00    -0.191 NA
ATOM     25  C   UNL     1      -0.901  -1.782  25.436  0.00  0.00    +0.099 C 
ENDBRANCH  19  25
ENDBRANCH  13  15
ENDBRANCH   4  13
ENDBRANCH  14   9
TORSDOF 9
ENDMDL
MODEL 2
REMARK VINA RESULT:      -0.3      2.056      3.707
REMARK  Name = 45783545
REMARK  10 active torsions:
REMARK  status: ('A' for Active; 'I' for Inactive)
REMARK    1  A    between atoms: O_2  and  C_27
REMARK    2  A    between atoms: O_2  and  C_28
REMARK    3  A    between atoms: O_3  and  C_29
REMARK    4  A    between atoms: O_3  and  C_30
REMARK    5  A    between atoms: N_4  and  C_13
REMARK    6  A    between atoms: C_9  and  C_14
REMARK    7  A    between atoms: C_13  and  C_15
REMARK    8  A    between atoms: C_18  and  C_21
REMARK    9  A    between atoms: C_19  and  C_25
REMARK   10  A    between atoms: C_28  and  C_29
REMARK                            x       y       z     vdW  Elec       q    Type
REMARK                         _______ _______ _______ _____ _____    ______ ____
ROOT
ATOM      1  O   UNL     1      -3.429   1.905  23.086  0.00  0.00    -0.336 OA
ATOM      5  N   UNL     1      -2.000   0.987  24.545  0.00  0.00    -0.190 NA
ATOM      6  N   UNL     1      -2.217   1.752  22.400  0.00  0.00    -0.056 NA
ATOM     14  C   UNL     1      -3.215   1.430  24.341  0.00  0.00    +0.245 A 
ATOM     18  C   UNL     1      -1.426   1.205  23.327  0.00  0.00    +0.204 A 
ENDROOT
BRANCH  18  21
ATOM      7  N   UNL     1       2.290   1.315  23.444  0.00  0.00    -0.221 NA
ATOM     21  C   UNL     1      -0.056   0.866  23.069  0.00  0.00    +0.041 A 
ATOM     23  C   UNL     1       0.273  -0.193  22.230  0.00  0.00    +0.018 A 
ATOM     24  C   UNL     1       0.979   1.582  23.646  0.00  0.00    +0.126 A 
ATOM     26  C   UNL     1       1.611  -0.498  21.996  0.00  0.00    +0.068 A 
ATOM     27  C   UNL     1       2.571   0.279  22.623  0.00  0.00    +0.215 A 
BRANCH  27   2
ATOM      2  O   UNL     1       3.895  -0.001  22.409  0.00  0.00    -0.474 OA
BRANCH   2  28
ATOM     28  C   UNL     1       4.841   0.869  23.020  0.00  0.00    +0.258 C 
BRANCH  28  29
ATOM     29  C   UNL     1       5.923   0.038  23.682  0.00  0.00    +0.200 C 
BRANCH  29   3
ATOM      3  O   UNL     1       5.319  -0.849  24.618  0.00  0.00    -0.380 OA
ATOM     30  C   UNL     1       4.837  -2.024  23.984  0.00  0.00    +0.194 C 
ENDBRANCH  29   3
ENDBRANCH  28  29
ENDBRANCH   2  28
ENDBRANCH  27   2
ENDBRANCH  18  21
BRANCH  14   9
ATOM      4  N   UNL     1      -5.069   2.796  25.283  0.00  0.00    -0.287 NA
ATOM      9  C   UNL     1      -4.391   1.484  25.293  0.00  0.00    +0.146 C 
ATOM     10  C   UNL     1      -5.494   0.472  24.933  0.00  0.00    +0.030 C 
ATOM     11  C   UNL     1      -6.765   1.298  24.801  0.00  0.00    +0.017 C 
ATOM     12  C   UNL     1      -6.470   2.540  25.617  0.00  0.00    +0.085 C 
BRANCH   4  13
ATOM     13  C   UNL     1      -4.458   3.765  26.184  0.00  0.00    +0.120 C 
BRANCH  13  15
ATOM     15  C   UNL     1      -3.027   4.050  25.814  0.00  0.00    -0.032 A 
ATOM     16  C   UNL     1      -1.989   3.395  26.478  0.00  0.00    +0.023 A 
ATOM     17  C   UNL     1      -2.738   4.969  24.805  0.00  0.00    +0.005 A 
ATOM     19  C   UNL     1      -0.663   3.660  26.134  0.00  0.00    +0.052 A 
ATOM     20  C   UNL     1      -1.413   5.234  24.460  0.00  0.00    +0.002 A 
ATOM     22  C   UNL     1      -0.375   4.579  25.125  0.00  0.00    +0.019 A 
BRANCH  19  25
ATOM      8  N   UNL     1       1.263   2.445  27.364  0.00  0.00    -0.191 NA
ATOM     25  C   UNL     1       0.400   2.989  26.813  0.00  0.00    +0.099 C 
ENDBRANCH  19  25
ENDBRANCH  13  15
ENDBRANCH   4  13
ENDBRANCH  14   9
TORSDOF 9
ENDMDL
MODEL 3
REMARK VINA RESULT:       0.5      1.312      1.762
REMARK  Name = 45783545
REMARK  10 active torsions:
REMARK  status: ('A' for Active; 'I' for Inactive)
REMARK    1  A    between atoms: O_2  and  C_27
REMARK    2  A    between atoms: O_2  and  C_28
REMARK    3  A    between atoms: O_3  and  C_29
REMARK    4  A    between atoms: O_3  and  C_30
REMARK    5  A    between atoms: N_4  and  C_13
REMARK    6  A    between atoms: C_9  and  C_14
REMARK    7  A    between atoms: C_13  and  C_15
REMARK    8  A    between atoms: C_18  and  C_21
REMARK    9  A    between atoms: C_19  and  C_25
REMARK   10  A    between atoms: C_28  and  C_29
REMARK                            x       y       z     vdW  Elec       q    Type
REMARK                         _______ _______ _______ _____ _____    ______ ____
ROOT
ATOM      1  O   UNL     1      -2.409   3.824  24.741  0.00  0.00    -0.336 OA
ATOM      5  N   UNL     1      -2.324   1.788  23.812  0.00  0.00    -0.190 NA
ATOM      6  N   UNL     1      -1.050   3.523  24.587  0.00  0.00    -0.056 NA
ATOM     14  C   UNL     1      -3.089   2.751  24.260  0.00  0.00    +0.245 A 
ATOM     18  C   UNL     1      -1.082   2.308  24.033  0.00  0.00    +0.204 A 
ENDROOT
BRANCH  18  21
ATOM      7  N   UNL     1       2.507   1.583  23.379  0.00  0.00    -0.221 NA
ATOM     21  C   UNL     1       0.109   1.585  23.690  0.00  0.00    +0.041 A 
ATOM     23  C   UNL     1       0.056   0.239  23.347  0.00  0.00    +0.018 A 
ATOM     24  C   UNL     1       1.347   2.206  23.692  0.00  0.00    +0.126 A 
ATOM     26  C   UNL     1       1.227  -0.436  23.018  0.00  0.00    +0.068 A 
ATOM     27  C   UNL     1       2.416   0.275  23.050  0.00  0.00    +0.215 A 
BRANCH  27   2
ATOM      2  O   UNL     1       3.583  -0.367  22.730  0.00  0.00    -0.474 OA
BRANCH   2  28
ATOM     28  C   UNL     1       4.726   0.452  22.515  0.00  0.00    +0.258 C 
BRANCH  28  29
ATOM     29  C   UNL     1       5.745   0.176  23.605  0.00  0.00    +0.200 C 
BRANCH  29   3
ATOM      3  O   UNL     1       5.207  -0.781  24.511  0.00  0.00    -0.380 OA
ATOM     30  C   UNL     1       4.885  -1.997  23.853  0.00  0.00    +0.194 C 
ENDBRANCH  29   3
ENDBRANCH  28  29
ENDBRANCH   2  28
ENDBRANCH  27   2
ENDBRANCH  18  21
BRANCH  14   9
ATOM      4  N   UNL     1      -5.186   1.855  25.257  0.00  0.00    -0.287 NA
ATOM      9  C   UNL     1      -4.601   2.830  24.314  0.00  0.00    +0.146 C 
ATOM     10  C   UNL     1      -5.107   4.200  24.804  0.00  0.00    +0.030 C 
ATOM     11  C   UNL     1      -6.017   3.890  25.983  0.00  0.00    +0.017 C 
ATOM     12  C   UNL     1      -6.429   2.451  25.748  0.00  0.00    +0.085 C 
BRANCH   4  13
ATOM     13  C   UNL     1      -5.404   0.542  24.664  0.00  0.00    +0.120 C 
BRANCH  13  15
ATOM     15  C   UNL     1      -4.255  -0.392  24.934  0.00  0.00    -0.032 A 
ATOM     16  C   UNL     1      -4.063  -1.517  24.132  0.00  0.00    +0.023 A 
ATOM     17  C   UNL     1      -3.378  -0.132  25.988  0.00  0.00    +0.005 A 
ATOM     19  C   UNL     1      -2.998  -2.381  24.383  0.00  0.00    +0.052 A 
ATOM     20  C   UNL     1      -2.312  -0.995  26.240  0.00  0.00    +0.002 A 
ATOM     22  C   UNL     1      -2.122  -2.120  25.437  0.00  0.00    +0.019 A 
BRANCH  19  25
ATOM      8  N   UNL     1      -2.643  -4.468  22.892  0.00  0.00    -0.191 NA
ATOM     25  C   UNL     1      -2.802  -3.533  23.560  0.00  0.00    +0.099 C 
ENDBRANCH  19  25
ENDBRANCH  13  15
ENDBRANCH   4  13
ENDBRANCH  14   9
TORSDOF 9
ENDMDL
