MODEL 1
REMARK VINA RESULT:       0.2      0.000      0.000
REMARK  Name = 11886497
REMARK  6 active torsions:
REMARK  status: ('A' for Active; 'I' for Inactive)
REMARK    1  A    between atoms: O_6  and  C_13
REMARK    2  A    between atoms: O_6  and  C_16
REMARK    3  A    between atoms: N_8  and  C_12
REMARK    4  A    between atoms: N_9  and  C_19
REMARK    5  A    between atoms: C_16  and  C_18
REMARK    6  A    between atoms: C_27  and  C_30
REMARK                            x       y       z     vdW  Elec       q    Type
REMARK                         _______ _______ _______ _____ _____    ______ ____
ROOT
ATOM      7  O   UNL     1       0.355  -8.901  10.490  0.00  0.00    -0.252 OA
ATOM      8  N   UNL     1      -1.188  -9.255  12.175  0.00  0.00    -0.292 N 
ATOM      9  N   UNL     1       0.548  -7.798  12.554  0.00  0.00    -0.269 N 
ATOM     17  C   UNL     1      -0.042  -8.664  11.629  0.00  0.00    +0.304 C 
ATOM     31  H   UNL     1      -1.489  -8.957  13.098  0.00  0.00    +0.151 HD
ATOM     32  H   UNL     1       0.090  -7.718  13.458  0.00  0.00    +0.156 HD
ENDROOT
BRANCH   8  12
ATOM      4  O   UNL     1      -4.242  -9.929  12.230  0.00  0.00    -0.369 OA
ATOM      5  O   UNL     1      -3.235 -10.466   9.384  0.00  0.00    -0.369 OA
ATOM     10  C   UNL     1      -2.819  -9.509  10.381  0.00  0.00    +0.172 C 
ATOM     11  C   UNL     1      -4.071  -9.054  11.102  0.00  0.00    +0.180 C 
ATOM     12  C   UNL     1      -2.011 -10.196  11.456  0.00  0.00    +0.131 C 
ATOM     13  C   UNL     1      -5.144  -9.268  10.061  0.00  0.00    +0.175 C 
ATOM     14  C   UNL     1      -3.092 -10.781  12.348  0.00  0.00    +0.185 C 
ATOM     15  C   UNL     1      -4.668 -10.524   9.366  0.00  0.00    +0.194 C 
BRANCH  13   6
ATOM      6  O   UNL     1      -6.434  -9.419  10.606  0.00  0.00    -0.367 OA
BRANCH   6  16
ATOM     16  C   UNL     1      -7.389  -9.804   9.619  0.00  0.00    +0.195 C 
BRANCH  16  18
ATOM     18  C   UNL     1      -8.217  -8.609   9.246  0.00  0.00    -0.022 A 
ATOM     20  C   UNL     1      -9.536  -8.523   9.679  0.00  0.00    +0.006 A 
ATOM     21  C   UNL     1      -7.658  -7.600   8.471  0.00  0.00    +0.006 A 
ATOM     22  C   UNL     1     -10.305  -7.412   9.332  0.00  0.00    +0.000 A 
ATOM     23  C   UNL     1      -8.428  -6.489   8.124  0.00  0.00    +0.000 A 
ATOM     26  C   UNL     1      -9.751  -6.395   8.554  0.00  0.00    +0.000 A 
ENDBRANCH  16  18
ENDBRANCH   6  16
ENDBRANCH  13   6
ENDBRANCH   8  12
BRANCH   9  19
ATOM     19  C   UNL     1       1.714  -7.015  12.389  0.00  0.00    +0.035 A 
ATOM     24  C   UNL     1       2.956  -7.623  12.463  0.00  0.00    +0.035 A 
ATOM     25  C   UNL     1       1.589  -5.655  12.158  0.00  0.00    +0.023 A 
ATOM     27  C   UNL     1       4.106  -6.849  12.301  0.00  0.00    +0.057 A 
ATOM     28  C   UNL     1       2.738  -4.882  11.995  0.00  0.00    +0.002 A 
ATOM     29  C   UNL     1       3.997  -5.479  12.067  0.00  0.00    +0.012 A 
BRANCH  27  30
ATOM      1  F   UNL     1       5.405  -8.840  12.568  0.00  0.00    -0.166 F 
ATOM      2  F   UNL     1       6.227  -7.011  13.393  0.00  0.00    -0.166 F 
ATOM      3  F   UNL     1       6.185  -7.306  11.239  0.00  0.00    -0.166 F 
ATOM     30  C   UNL     1       5.452  -7.488  12.376  0.00  0.00    +0.417 C 
ENDBRANCH  27  30
ENDBRANCH   9  19
TORSDOF 6
ENDMDL
MODEL 2
REMARK VINA RESULT:       0.4     15.157     16.660
REMARK  Name = 11886497
REMARK  6 active torsions:
REMARK  status: ('A' for Active; 'I' for Inactive)
REMARK    1  A    between atoms: O_6  and  C_13
REMARK    2  A    between atoms: O_6  and  C_16
REMARK    3  A    between atoms: N_8  and  C_12
REMARK    4  A    between atoms: N_9  and  C_19
REMARK    5  A    between atoms: C_16  and  C_18
REMARK    6  A    between atoms: C_27  and  C_30
REMARK                            x       y       z     vdW  Elec       q    Type
REMARK                         _______ _______ _______ _____ _____    ______ ____
ROOT
ATOM      7  O   UNL     1      -0.284   0.177  24.917  0.00  0.00    -0.252 OA
ATOM      8  N   UNL     1      -1.240  -1.662  23.891  0.00  0.00    -0.292 N 
ATOM      9  N   UNL     1       0.874  -1.018  23.260  0.00  0.00    -0.269 N 
ATOM     17  C   UNL     1      -0.208  -0.738  24.100  0.00  0.00    +0.304 C 
ATOM     31  H   UNL     1      -1.075  -2.429  23.247  0.00  0.00    +0.151 HD
ATOM     32  H   UNL     1       0.772  -1.816  22.638  0.00  0.00    +0.156 HD
ENDROOT
BRANCH   8  12
ATOM      4  O   UNL     1      -2.620   0.477  25.709  0.00  0.00    -0.369 OA
ATOM      5  O   UNL     1      -4.841  -1.132  24.337  0.00  0.00    -0.369 OA
ATOM     10  C   UNL     1      -3.511  -0.776  23.904  0.00  0.00    +0.172 C 
ATOM     11  C   UNL     1      -3.241   0.622  24.421  0.00  0.00    +0.180 C 
ATOM     12  C   UNL     1      -2.487  -1.629  24.615  0.00  0.00    +0.131 C 
ATOM     13  C   UNL     1      -4.631   1.204  24.532  0.00  0.00    +0.175 C 
ATOM     14  C   UNL     1      -2.337  -0.911  25.945  0.00  0.00    +0.185 C 
ATOM     15  C   UNL     1      -5.443   0.006  24.970  0.00  0.00    +0.194 C 
BRANCH  13   6
ATOM      6  O   UNL     1      -4.722   2.271  25.448  0.00  0.00    -0.367 OA
BRANCH   6  16
ATOM     16  C   UNL     1      -4.577   3.537  24.808  0.00  0.00    +0.195 C 
BRANCH  16  18
ATOM     18  C   UNL     1      -3.118   3.879  24.725  0.00  0.00    -0.022 A 
ATOM     20  C   UNL     1      -2.632   4.990  25.406  0.00  0.00    +0.006 A 
ATOM     21  C   UNL     1      -2.266   3.083  23.968  0.00  0.00    +0.006 A 
ATOM     22  C   UNL     1      -1.275   5.308  25.328  0.00  0.00    +0.000 A 
ATOM     23  C   UNL     1      -0.910   3.401  23.891  0.00  0.00    +0.000 A 
ATOM     26  C   UNL     1      -0.414   4.514  24.570  0.00  0.00    +0.000 A 
ENDBRANCH  16  18
ENDBRANCH   6  16
ENDBRANCH  13   6
ENDBRANCH   8  12
BRANCH   9  19
ATOM     19  C   UNL     1       2.101  -0.323  23.165  0.00  0.00    +0.035 A 
ATOM     24  C   UNL     1       3.270  -0.953  23.561  0.00  0.00    +0.035 A 
ATOM     25  C   UNL     1       2.110   0.974  22.679  0.00  0.00    +0.023 A 
ATOM     27  C   UNL     1       4.481  -0.265  23.467  0.00  0.00    +0.057 A 
ATOM     28  C   UNL     1       3.320   1.661  22.585  0.00  0.00    +0.002 A 
ATOM     29  C   UNL     1       4.506   1.041  22.980  0.00  0.00    +0.012 A 
BRANCH  27  30
ATOM      1  F   UNL     1       6.842  -0.519  23.178  0.00  0.00    -0.166 F 
ATOM      2  F   UNL     1       5.726  -2.287  23.753  0.00  0.00    -0.166 F 
ATOM      3  F   UNL     1       6.056  -0.695  25.198  0.00  0.00    -0.166 F 
ATOM     30  C   UNL     1       5.749  -0.929  23.888  0.00  0.00    +0.417 C 
ENDBRANCH  27  30
ENDBRANCH   9  19
TORSDOF 6
ENDMDL
MODEL 3
REMARK VINA RESULT:       0.8     14.901     16.856
REMARK  Name = 11886497
REMARK  6 active torsions:
REMARK  status: ('A' for Active; 'I' for Inactive)
REMARK    1  A    between atoms: O_6  and  C_13
REMARK    2  A    between atoms: O_6  and  C_16
REMARK    3  A    between atoms: N_8  and  C_12
REMARK    4  A    between atoms: N_9  and  C_19
REMARK    5  A    between atoms: C_16  and  C_18
REMARK    6  A    between atoms: C_27  and  C_30
REMARK                            x       y       z     vdW  Elec       q    Type
REMARK                         _______ _______ _______ _____ _____    ______ ____
ROOT
ATOM      7  O   UNL     1      -1.332   1.863  23.365  0.00  0.00    -0.252 OA
ATOM      8  N   UNL     1      -0.904   3.762  24.611  0.00  0.00    -0.292 N 
ATOM      9  N   UNL     1       0.856   2.410  24.017  0.00  0.00    -0.269 N 
ATOM     17  C   UNL     1      -0.527   2.595  23.936  0.00  0.00    +0.304 C 
ATOM     31  H   UNL     1      -0.173   4.350  25.000  0.00  0.00    +0.151 HD
ATOM     32  H   UNL     1       1.380   3.113  24.532  0.00  0.00    +0.156 HD
ENDROOT
BRANCH   8  12
ATOM      4  O   UNL     1      -3.647   2.523  23.760  0.00  0.00    -0.369 OA
ATOM      5  O   UNL     1      -4.161   4.292  26.211  0.00  0.00    -0.369 OA
ATOM     10  C   UNL     1      -3.009   3.517  25.816  0.00  0.00    +0.172 C 
ATOM     11  C   UNL     1      -3.533   2.252  25.167  0.00  0.00    +0.180 C 
ATOM     12  C   UNL     1      -2.270   4.217  24.700  0.00  0.00    +0.131 C 
ATOM     13  C   UNL     1      -4.887   2.089  25.816  0.00  0.00    +0.175 C 
ATOM     14  C   UNL     1      -3.070   3.808  23.476  0.00  0.00    +0.185 C 
ATOM     15  C   UNL     1      -5.346   3.522  25.962  0.00  0.00    +0.194 C 
BRANCH  13   6
ATOM      6  O   UNL     1      -5.787   1.319  25.052  0.00  0.00    -0.367 OA
BRANCH   6  16
ATOM     16  C   UNL     1      -5.139   0.662  23.965  0.00  0.00    +0.195 C 
BRANCH  16  18
ATOM     18  C   UNL     1      -4.454  -0.571  24.477  0.00  0.00    -0.022 A 
ATOM     20  C   UNL     1      -3.855  -0.555  25.732  0.00  0.00    +0.006 A 
ATOM     21  C   UNL     1      -4.424  -1.718  23.691  0.00  0.00    +0.006 A 
ATOM     22  C   UNL     1      -3.217  -1.702  26.206  0.00  0.00    +0.000 A 
ATOM     23  C   UNL     1      -3.786  -2.864  24.167  0.00  0.00    +0.000 A 
ATOM     26  C   UNL     1      -3.183  -2.856  25.424  0.00  0.00    +0.000 A 
ENDBRANCH  16  18
ENDBRANCH   6  16
ENDBRANCH  13   6
ENDBRANCH   8  12
BRANCH   9  19
ATOM     19  C   UNL     1       1.625   1.357  23.469  0.00  0.00    +0.035 A 
ATOM     24  C   UNL     1       2.981   1.292  23.744  0.00  0.00    +0.035 A 
ATOM     25  C   UNL     1       1.005   0.412  22.668  0.00  0.00    +0.023 A 
ATOM     27  C   UNL     1       3.739   0.253  23.202  0.00  0.00    +0.057 A 
ATOM     28  C   UNL     1       1.762  -0.627  22.127  0.00  0.00    +0.002 A 
ATOM     29  C   UNL     1       3.129  -0.706  22.395  0.00  0.00    +0.012 A 
BRANCH  27  30
ATOM      1  F   UNL     1       5.950  -0.195  22.406  0.00  0.00    -0.166 F 
ATOM      2  F   UNL     1       5.515  -0.740  24.459  0.00  0.00    -0.166 F 
ATOM      3  F   UNL     1       5.722   1.356  23.914  0.00  0.00    -0.166 F 
ATOM     30  C   UNL     1       5.200   0.168  23.489  0.00  0.00    +0.417 C 
ENDBRANCH  27  30
ENDBRANCH   9  19
TORSDOF 6
ENDMDL
MODEL 4
REMARK VINA RESULT:       0.9      2.360      3.333
REMARK  Name = 11886497
REMARK  6 active torsions:
REMARK  status: ('A' for Active; 'I' for Inactive)
REMARK    1  A    between atoms: O_6  and  C_13
REMARK    2  A    between atoms: O_6  and  C_16
REMARK    3  A    between atoms: N_8  and  C_12
REMARK    4  A    between atoms: N_9  and  C_19
REMARK    5  A    between atoms: C_16  and  C_18
REMARK    6  A    between atoms: C_27  and  C_30
REMARK                            x       y       z     vdW  Elec       q    Type
REMARK                         _______ _______ _______ _____ _____    ______ ____
ROOT
ATOM      7  O   UNL     1       0.913  -8.813  10.445  0.00  0.00    -0.252 OA
ATOM      8  N   UNL     1      -0.958  -8.749  11.801  0.00  0.00    -0.292 N 
ATOM      9  N   UNL     1       0.819  -7.383  12.305  0.00  0.00    -0.269 N 
ATOM     17  C   UNL     1       0.330  -8.351  11.423  0.00  0.00    +0.304 C 
ATOM     31  H   UNL     1      -1.400  -8.273  12.582  0.00  0.00    +0.151 HD
ATOM     32  H   UNL     1       0.205  -7.111  13.068  0.00  0.00    +0.156 HD
ENDROOT
BRANCH   8  12
ATOM      4  O   UNL     1      -3.598 -10.308  12.427  0.00  0.00    -0.369 OA
ATOM      5  O   UNL     1      -3.437  -9.960   9.385  0.00  0.00    -0.369 OA
ATOM     10  C   UNL     1      -2.964  -9.133  10.468  0.00  0.00    +0.172 C 
ATOM     11  C   UNL     1      -3.996  -9.223  11.573  0.00  0.00    +0.180 C 
ATOM     12  C   UNL     1      -1.723  -9.738  11.081  0.00  0.00    +0.131 C 
ATOM     13  C   UNL     1      -5.261  -9.545  10.813  0.00  0.00    +0.175 C 
ATOM     14  C   UNL     1      -2.304 -10.781  12.021  0.00  0.00    +0.185 C 
ATOM     15  C   UNL     1      -4.749 -10.442   9.708  0.00  0.00    +0.194 C 
BRANCH  13   6
ATOM      6  O   UNL     1      -6.243 -10.179  11.599  0.00  0.00    -0.367 OA
BRANCH   6  16
ATOM     16  C   UNL     1      -7.141  -9.242  12.189  0.00  0.00    +0.195 C 
BRANCH  16  18
ATOM     18  C   UNL     1      -7.411  -9.650  13.608  0.00  0.00    -0.022 A 
ATOM     20  C   UNL     1      -6.354 -10.034  14.426  0.00  0.00    +0.006 A 
ATOM     21  C   UNL     1      -8.715  -9.640  14.091  0.00  0.00    +0.006 A 
ATOM     22  C   UNL     1      -6.606 -10.414  15.746  0.00  0.00    +0.000 A 
ATOM     23  C   UNL     1      -8.966 -10.020  15.410  0.00  0.00    +0.000 A 
ATOM     26  C   UNL     1      -7.911 -10.407  16.237  0.00  0.00    +0.000 A 
ENDBRANCH  16  18
ENDBRANCH   6  16
ENDBRANCH  13   6
ENDBRANCH   8  12
BRANCH   9  19
ATOM     19  C   UNL     1       2.073  -6.731  12.268  0.00  0.00    +0.035 A 
ATOM     24  C   UNL     1       3.233  -7.489  12.282  0.00  0.00    +0.035 A 
ATOM     25  C   UNL     1       2.116  -5.347  12.220  0.00  0.00    +0.023 A 
ATOM     27  C   UNL     1       4.470  -6.844  12.247  0.00  0.00    +0.057 A 
ATOM     28  C   UNL     1       3.352  -4.703  12.184  0.00  0.00    +0.002 A 
ATOM     29  C   UNL     1       4.529  -5.452  12.198  0.00  0.00    +0.012 A 
BRANCH  27  30
ATOM      1  F   UNL     1       6.698  -7.153  11.433  0.00  0.00    -0.166 F 
ATOM      2  F   UNL     1       5.555  -8.942  11.873  0.00  0.00    -0.166 F 
ATOM      3  F   UNL     1       6.300  -7.703  13.499  0.00  0.00    -0.166 F 
ATOM     30  C   UNL     1       5.728  -7.644  12.260  0.00  0.00    +0.417 C 
ENDBRANCH  27  30
ENDBRANCH   9  19
TORSDOF 6
ENDMDL
MODEL 5
REMARK VINA RESULT:       3.9     15.821     18.394
REMARK  Name = 11886497
REMARK  6 active torsions:
REMARK  status: ('A' for Active; 'I' for Inactive)
REMARK    1  A    between atoms: O_6  and  C_13
REMARK    2  A    between atoms: O_6  and  C_16
REMARK    3  A    between atoms: N_8  and  C_12
REMARK    4  A    between atoms: N_9  and  C_19
REMARK    5  A    between atoms: C_16  and  C_18
REMARK    6  A    between atoms: C_27  and  C_30
REMARK                            x       y       z     vdW  Elec       q    Type
REMARK                         _______ _______ _______ _____ _____    ______ ____
ROOT
ATOM      7  O   UNL     1      -3.318   1.555  24.269  0.00  0.00    -0.252 OA
ATOM      8  N   UNL     1      -5.523   1.902  24.874  0.00  0.00    -0.292 N 
ATOM      9  N   UNL     1      -4.732  -0.252  24.770  0.00  0.00    -0.269 N 
ATOM     17  C   UNL     1      -4.409   1.098  24.603  0.00  0.00    +0.304 C 
ATOM     31  H   UNL     1      -6.370   1.455  25.210  0.00  0.00    +0.151 HD
ATOM     32  H   UNL     1      -5.687  -0.460  25.051  0.00  0.00    +0.156 HD
ENDROOT
BRANCH   8  12
ATOM      4  O   UNL     1      -3.655   4.101  26.085  0.00  0.00    -0.369 OA
ATOM      5  O   UNL     1      -4.690   5.155  23.398  0.00  0.00    -0.369 OA
ATOM     10  C   UNL     1      -4.406   3.815  23.855  0.00  0.00    +0.172 C 
ATOM     11  C   UNL     1      -3.182   3.905  24.742  0.00  0.00    +0.180 C 
ATOM     12  C   UNL     1      -5.496   3.342  24.787  0.00  0.00    +0.131 C 
ATOM     13  C   UNL     1      -2.482   5.133  24.211  0.00  0.00    +0.175 C 
ATOM     14  C   UNL     1      -5.085   3.969  26.108  0.00  0.00    +0.185 C 
ATOM     15  C   UNL     1      -3.644   6.029  23.845  0.00  0.00    +0.194 C 
BRANCH  13   6
ATOM      6  O   UNL     1      -1.620   5.738  25.147  0.00  0.00    -0.367 OA
BRANCH   6  16
ATOM     16  C   UNL     1      -0.263   5.343  24.956  0.00  0.00    +0.195 C 
BRANCH  16  18
ATOM     18  C   UNL     1      -0.184   3.844  24.960  0.00  0.00    -0.022 A 
ATOM     20  C   UNL     1       0.087   3.166  23.776  0.00  0.00    +0.006 A 
ATOM     21  C   UNL     1      -0.383   3.147  26.146  0.00  0.00    +0.006 A 
ATOM     22  C   UNL     1       0.160   1.773  23.781  0.00  0.00    +0.000 A 
ATOM     23  C   UNL     1      -0.311   1.754  26.150  0.00  0.00    +0.000 A 
ATOM     26  C   UNL     1      -0.039   1.067  24.967  0.00  0.00    +0.000 A 
ENDBRANCH  16  18
ENDBRANCH   6  16
ENDBRANCH  13   6
ENDBRANCH   8  12
BRANCH   9  19
ATOM     19  C   UNL     1      -3.889  -1.374  24.594  0.00  0.00    +0.035 A 
ATOM     24  C   UNL     1      -2.573  -1.308  25.021  0.00  0.00    +0.035 A 
ATOM     25  C   UNL     1      -4.397  -2.516  23.996  0.00  0.00    +0.023 A 
ATOM     27  C   UNL     1      -1.742  -2.416  24.846  0.00  0.00    +0.057 A 
ATOM     28  C   UNL     1      -3.567  -3.623  23.822  0.00  0.00    +0.002 A 
ATOM     29  C   UNL     1      -2.239  -3.573  24.247  0.00  0.00    +0.012 A 
BRANCH  27  30
ATOM      1  F   UNL     1       0.525  -1.806  24.386  0.00  0.00    -0.166 F 
ATOM      2  F   UNL     1       0.209  -3.589  25.579  0.00  0.00    -0.166 F 
ATOM      3  F   UNL     1      -0.164  -1.628  26.441  0.00  0.00    -0.166 F 
ATOM     30  C   UNL     1      -0.323  -2.363  25.302  0.00  0.00    +0.417 C 
ENDBRANCH  27  30
ENDBRANCH   9  19
TORSDOF 6
ENDMDL
