MODEL 1
REMARK VINA RESULT:      -1.1      0.000      0.000
REMARK  Name = 71693311
REMARK  11 active torsions:
REMARK  status: ('A' for Active; 'I' for Inactive)
REMARK    1  A    between atoms: O_2  and  C_11
REMARK    2  A    between atoms: N_5  and  C_9
REMARK    3  A    between atoms: N_6  and  C_21
REMARK    4  A    between atoms: C_7  and  C_11
REMARK    5  A    between atoms: C_8  and  C_13
REMARK    6  A    between atoms: C_9  and  C_10
REMARK    7  A    between atoms: C_10  and  C_15
REMARK    8  A    between atoms: C_10  and  C_16
REMARK    9  A    between atoms: C_22  and  C_23
REMARK   10  A    between atoms: C_23  and  C_24
REMARK   11  A    between atoms: C_24  and  C_25
REMARK                            x       y       z     vdW  Elec       q    Type
REMARK                         _______ _______ _______ _____ _____    ______ ____
ROOT
ATOM      1  O   UNL     1      -2.938  -0.026  25.340  0.00  0.00    -0.361 OA
ATOM      3  O   UNL     1      -6.368   0.802  25.835  0.00  0.00    -0.273 OA
ATOM      5  N   UNL     1      -4.731   1.983  24.668  0.00  0.00    -0.291 N 
ATOM      7  C   UNL     1      -3.311   2.083  24.253  0.00  0.00    +0.135 C 
ATOM      8  C   UNL     1      -2.665   0.689  24.134  0.00  0.00    +0.171 C 
ATOM     12  C   UNL     1      -5.232   0.878  25.360  0.00  0.00    +0.242 C 
ATOM     14  C   UNL     1      -4.310  -0.321  25.449  0.00  0.00    +0.256 C 
ENDROOT
BRANCH   8  13
ATOM     13  C   UNL     1      -1.160   0.712  23.963  0.00  0.00    -0.017 A 
ATOM     17  C   UNL     1      -0.512  -0.358  23.348  0.00  0.00    +0.008 A 
ATOM     18  C   UNL     1      -0.423   1.804  24.422  0.00  0.00    +0.008 A 
ATOM     19  C   UNL     1       0.874  -0.336  23.190  0.00  0.00    +0.023 A 
ATOM     20  C   UNL     1       0.962   1.826  24.264  0.00  0.00    +0.023 A 
ATOM     21  C   UNL     1       1.611   0.756  23.648  0.00  0.00    +0.033 A 
BRANCH  21   6
ATOM      4  O   UNL     1       3.303   0.197  21.232  0.00  0.00    -0.275 OA
ATOM      6  N   UNL     1       2.997   0.777  23.491  0.00  0.00    -0.285 N 
ATOM     22  C   UNL     1       3.743   0.515  22.331  0.00  0.00    +0.217 C 
ATOM     27  H   UNL     1       3.524   1.014  24.329  0.00  0.00    +0.155 HD
BRANCH  22  23
ATOM     23  C   UNL     1       5.239   0.647  22.596  0.00  0.00    +0.096 C 
BRANCH  23  24
ATOM     24  C   UNL     1       5.674   0.125  23.963  0.00  0.00    +0.006 C 
ATOM     25  C   UNL     1       5.381  -1.357  24.143  0.00  0.00    +0.004 C 
ENDBRANCH  23  24
ENDBRANCH  22  23
ENDBRANCH  21   6
ENDBRANCH   8  13
BRANCH   5   9
ATOM      9  C   UNL     1      -5.564   3.178  24.562  0.00  0.00    +0.111 C 
BRANCH   9  10
ATOM     10  C   UNL     1      -5.486   4.056  25.816  0.00  0.00    +0.000 C 
ATOM     15  C   UNL     1      -6.160   5.403  25.555  0.00  0.00    +0.009 C 
ATOM     16  C   UNL     1      -4.039   4.274  26.263  0.00  0.00    +0.009 C 
ENDBRANCH   9  10
ENDBRANCH   5   9
BRANCH   7  11
ATOM     11  C   UNL     1      -3.134   2.873  22.948  0.00  0.00    +0.181 C 
BRANCH  11   2
ATOM      2  O   UNL     1      -2.787   1.962  21.925  0.00  0.00    -0.393 OA
ATOM     26  H   UNL     1      -1.919   1.590  22.153  0.00  0.00    +0.209 HD
ENDBRANCH  11   2
ENDBRANCH   7  11
TORSDOF 8
ENDMDL
MODEL 2
REMARK VINA RESULT:      -0.8      1.351      1.762
REMARK  Name = 71693311
REMARK  11 active torsions:
REMARK  status: ('A' for Active; 'I' for Inactive)
REMARK    1  A    between atoms: O_2  and  C_11
REMARK    2  A    between atoms: N_5  and  C_9
REMARK    3  A    between atoms: N_6  and  C_21
REMARK    4  A    between atoms: C_7  and  C_11
REMARK    5  A    between atoms: C_8  and  C_13
REMARK    6  A    between atoms: C_9  and  C_10
REMARK    7  A    between atoms: C_10  and  C_15
REMARK    8  A    between atoms: C_10  and  C_16
REMARK    9  A    between atoms: C_22  and  C_23
REMARK   10  A    between atoms: C_23  and  C_24
REMARK   11  A    between atoms: C_24  and  C_25
REMARK                            x       y       z     vdW  Elec       q    Type
REMARK                         _______ _______ _______ _____ _____    ______ ____
ROOT
ATOM      1  O   UNL     1      -1.992  -0.406  24.842  0.00  0.00    -0.361 OA
ATOM      3  O   UNL     1      -5.456   0.234  25.373  0.00  0.00    -0.273 OA
ATOM      5  N   UNL     1      -3.866   1.571  24.314  0.00  0.00    -0.291 N 
ATOM      7  C   UNL     1      -2.450   1.763  23.919  0.00  0.00    +0.135 C 
ATOM      8  C   UNL     1      -1.745   0.412  23.698  0.00  0.00    +0.171 C 
ATOM     12  C   UNL     1      -4.323   0.395  24.914  0.00  0.00    +0.242 C 
ATOM     14  C   UNL     1      -3.350  -0.766  24.917  0.00  0.00    +0.256 C 
ENDROOT
BRANCH   8  13
ATOM     13  C   UNL     1      -0.241   0.512  23.541  0.00  0.00    -0.017 A 
ATOM     17  C   UNL     1       0.462   1.527  24.189  0.00  0.00    +0.008 A 
ATOM     18  C   UNL     1       0.440  -0.411  22.747  0.00  0.00    +0.008 A 
ATOM     19  C   UNL     1       1.846   1.619  24.044  0.00  0.00    +0.023 A 
ATOM     20  C   UNL     1       1.824  -0.320  22.603  0.00  0.00    +0.023 A 
ATOM     21  C   UNL     1       2.527   0.696  23.252  0.00  0.00    +0.033 A 
BRANCH  21   6
ATOM      4  O   UNL     1       4.698  -1.223  24.040  0.00  0.00    -0.275 OA
ATOM      6  N   UNL     1       3.911   0.788  23.107  0.00  0.00    -0.285 N 
ATOM     22  C   UNL     1       4.889  -0.146  23.486  0.00  0.00    +0.217 C 
ATOM     27  H   UNL     1       4.245   1.644  22.668  0.00  0.00    +0.155 HD
BRANCH  22  23
ATOM     23  C   UNL     1       6.289   0.352  23.146  0.00  0.00    +0.096 C 
BRANCH  23  24
ATOM     24  C   UNL     1       7.303  -0.765  22.912  0.00  0.00    +0.006 C 
ATOM     25  C   UNL     1       8.742  -0.282  23.031  0.00  0.00    +0.004 C 
ENDBRANCH  23  24
ENDBRANCH  22  23
ENDBRANCH  21   6
ENDBRANCH   8  13
BRANCH   5   9
ATOM      9  C   UNL     1      -4.750   2.734  24.294  0.00  0.00    +0.111 C 
BRANCH   9  10
ATOM     10  C   UNL     1      -4.813   3.442  25.651  0.00  0.00    +0.000 C 
ATOM     15  C   UNL     1      -5.913   4.502  25.639  0.00  0.00    +0.009 C 
ATOM     16  C   UNL     1      -3.472   4.084  26.015  0.00  0.00    +0.009 C 
ENDBRANCH   9  10
ENDBRANCH   5   9
BRANCH   7  11
ATOM     11  C   UNL     1      -2.301   2.659  22.680  0.00  0.00    +0.181 C 
BRANCH  11   2
ATOM      2  O   UNL     1      -2.476   1.855  21.531  0.00  0.00    -0.393 OA
ATOM     26  H   UNL     1      -2.786   2.436  20.817  0.00  0.00    +0.209 HD
ENDBRANCH  11   2
ENDBRANCH   7  11
TORSDOF 8
ENDMDL
MODEL 3
REMARK VINA RESULT:       0.6      2.098      3.716
REMARK  Name = 71693311
REMARK  11 active torsions:
REMARK  status: ('A' for Active; 'I' for Inactive)
REMARK    1  A    between atoms: O_2  and  C_11
REMARK    2  A    between atoms: N_5  and  C_9
REMARK    3  A    between atoms: N_6  and  C_21
REMARK    4  A    between atoms: C_7  and  C_11
REMARK    5  A    between atoms: C_8  and  C_13
REMARK    6  A    between atoms: C_9  and  C_10
REMARK    7  A    between atoms: C_10  and  C_15
REMARK    8  A    between atoms: C_10  and  C_16
REMARK    9  A    between atoms: C_22  and  C_23
REMARK   10  A    between atoms: C_23  and  C_24
REMARK   11  A    between atoms: C_24  and  C_25
REMARK                            x       y       z     vdW  Elec       q    Type
REMARK                         _______ _______ _______ _____ _____    ______ ____
ROOT
ATOM      1  O   UNL     1      -1.781   1.766  23.020  0.00  0.00    -0.361 OA
ATOM      3  O   UNL     1      -5.129   1.498  24.209  0.00  0.00    -0.273 OA
ATOM      5  N   UNL     1      -3.234   0.327  24.896  0.00  0.00    -0.291 N 
ATOM      7  C   UNL     1      -1.786   0.061  24.711  0.00  0.00    +0.135 C 
ATOM      8  C   UNL     1      -1.058   1.302  24.160  0.00  0.00    +0.171 C 
ATOM     12  C   UNL     1      -3.908   1.322  24.185  0.00  0.00    +0.242 C 
ATOM     14  C   UNL     1      -3.037   2.278  23.396  0.00  0.00    +0.256 C 
ENDROOT
BRANCH   8  13
ATOM     13  C   UNL     1       0.364   1.040  23.707  0.00  0.00    -0.017 A 
ATOM     17  C   UNL     1       0.679  -0.149  23.051  0.00  0.00    +0.008 A 
ATOM     18  C   UNL     1       1.358   1.989  23.947  0.00  0.00    +0.008 A 
ATOM     19  C   UNL     1       1.987  -0.390  22.634  0.00  0.00    +0.023 A 
ATOM     20  C   UNL     1       2.667   1.748  23.530  0.00  0.00    +0.023 A 
ATOM     21  C   UNL     1       2.982   0.558  22.873  0.00  0.00    +0.033 A 
BRANCH  21   6
ATOM      4  O   UNL     1       5.410  -0.232  24.452  0.00  0.00    -0.275 OA
ATOM      6  N   UNL     1       4.291   0.317  22.457  0.00  0.00    -0.285 N 
ATOM     22  C   UNL     1       5.395  -0.061  23.238  0.00  0.00    +0.217 C 
ATOM     27  H   UNL     1       4.456   0.430  21.459  0.00  0.00    +0.155 HD
BRANCH  22  23
ATOM     23  C   UNL     1       6.647  -0.221  22.383  0.00  0.00    +0.096 C 
BRANCH  23  24
ATOM     24  C   UNL     1       7.846  -0.786  23.140  0.00  0.00    +0.006 C 
ATOM     25  C   UNL     1       9.059   0.131  23.081  0.00  0.00    +0.004 C 
ENDBRANCH  23  24
ENDBRANCH  22  23
ENDBRANCH  21   6
ENDBRANCH   8  13
BRANCH   5   9
ATOM      9  C   UNL     1      -4.017  -0.638  25.662  0.00  0.00    +0.111 C 
BRANCH   9  10
ATOM     10  C   UNL     1      -4.222  -1.955  24.905  0.00  0.00    +0.000 C 
ATOM     15  C   UNL     1      -3.205  -2.994  25.375  0.00  0.00    +0.009 C 
ATOM     16  C   UNL     1      -4.108  -1.760  23.391  0.00  0.00    +0.009 C 
ENDBRANCH   9  10
ENDBRANCH   5   9
BRANCH   7  11
ATOM     11  C   UNL     1      -1.110  -0.434  25.998  0.00  0.00    +0.181 C 
BRANCH  11   2
ATOM      2  O   UNL     1      -0.272  -1.522  25.665  0.00  0.00    -0.393 OA
ATOM     26  H   UNL     1       0.459  -1.169  25.129  0.00  0.00    +0.209 HD
ENDBRANCH  11   2
ENDBRANCH   7  11
TORSDOF 8
ENDMDL
MODEL 4
REMARK VINA RESULT:       0.9      1.626      2.540
REMARK  Name = 71693311
REMARK  11 active torsions:
REMARK  status: ('A' for Active; 'I' for Inactive)
REMARK    1  A    between atoms: O_2  and  C_11
REMARK    2  A    between atoms: N_5  and  C_9
REMARK    3  A    between atoms: N_6  and  C_21
REMARK    4  A    between atoms: C_7  and  C_11
REMARK    5  A    between atoms: C_8  and  C_13
REMARK    6  A    between atoms: C_9  and  C_10
REMARK    7  A    between atoms: C_10  and  C_15
REMARK    8  A    between atoms: C_10  and  C_16
REMARK    9  A    between atoms: C_22  and  C_23
REMARK   10  A    between atoms: C_23  and  C_24
REMARK   11  A    between atoms: C_24  and  C_25
REMARK                            x       y       z     vdW  Elec       q    Type
REMARK                         _______ _______ _______ _____ _____    ______ ____
ROOT
ATOM      1  O   UNL     1      -2.476   4.187  25.588  0.00  0.00    -0.361 OA
ATOM      3  O   UNL     1      -5.946   4.849  26.049  0.00  0.00    -0.273 OA
ATOM      5  N   UNL     1      -4.930   3.057  24.957  0.00  0.00    -0.291 N 
ATOM      7  C   UNL     1      -3.674   2.414  24.499  0.00  0.00    +0.135 C 
ATOM      8  C   UNL     1      -2.496   2.769  25.426  0.00  0.00    +0.171 C 
ATOM     12  C   UNL     1      -4.936   4.207  25.748  0.00  0.00    +0.242 C 
ATOM     14  C   UNL     1      -3.596   4.625  26.318  0.00  0.00    +0.256 C 
ENDROOT
BRANCH   8  13
ATOM     13  C   UNL     1      -1.138   2.364  24.891  0.00  0.00    -0.017 A 
ATOM     17  C   UNL     1      -0.695   1.050  25.037  0.00  0.00    +0.008 A 
ATOM     18  C   UNL     1      -0.332   3.305  24.252  0.00  0.00    +0.008 A 
ATOM     19  C   UNL     1       0.555   0.677  24.544  0.00  0.00    +0.023 A 
ATOM     20  C   UNL     1       0.919   2.933  23.759  0.00  0.00    +0.023 A 
ATOM     21  C   UNL     1       1.362   1.618  23.905  0.00  0.00    +0.033 A 
BRANCH  21   6
ATOM      4  O   UNL     1       2.094  -0.235  21.659  0.00  0.00    -0.275 OA
ATOM      6  N   UNL     1       2.613   1.246  23.412  0.00  0.00    -0.285 N 
ATOM     22  C   UNL     1       2.903   0.377  22.348  0.00  0.00    +0.217 C 
ATOM     27  H   UNL     1       3.409   1.662  23.891  0.00  0.00    +0.155 HD
BRANCH  22  23
ATOM     23  C   UNL     1       4.408   0.243  22.139  0.00  0.00    +0.096 C 
BRANCH  23  24
ATOM     24  C   UNL     1       5.232   0.488  23.401  0.00  0.00    +0.006 C 
ATOM     25  C   UNL     1       5.435  -0.777  24.221  0.00  0.00    +0.004 C 
ENDBRANCH  23  24
ENDBRANCH  22  23
ENDBRANCH  21   6
ENDBRANCH   8  13
BRANCH   5   9
ATOM      9  C   UNL     1      -6.187   2.611  24.362  0.00  0.00    +0.111 C 
BRANCH   9  10
ATOM     10  C   UNL     1      -6.790   1.412  25.102  0.00  0.00    +0.000 C 
ATOM     15  C   UNL     1      -6.565   1.556  26.607  0.00  0.00    +0.009 C 
ATOM     16  C   UNL     1      -6.197   0.089  24.609  0.00  0.00    +0.009 C 
ENDBRANCH   9  10
ENDBRANCH   5   9
BRANCH   7  11
ATOM     11  C   UNL     1      -3.811   0.891  24.357  0.00  0.00    +0.181 C 
BRANCH  11   2
ATOM      2  O   UNL     1      -3.330   0.522  23.081  0.00  0.00    -0.393 OA
ATOM     26  H   UNL     1      -3.825   1.041  22.425  0.00  0.00    +0.209 HD
ENDBRANCH  11   2
ENDBRANCH   7  11
TORSDOF 8
ENDMDL
MODEL 5
REMARK VINA RESULT:       1.4      1.542      2.471
REMARK  Name = 71693311
REMARK  11 active torsions:
REMARK  status: ('A' for Active; 'I' for Inactive)
REMARK    1  A    between atoms: O_2  and  C_11
REMARK    2  A    between atoms: N_5  and  C_9
REMARK    3  A    between atoms: N_6  and  C_21
REMARK    4  A    between atoms: C_7  and  C_11
REMARK    5  A    between atoms: C_8  and  C_13
REMARK    6  A    between atoms: C_9  and  C_10
REMARK    7  A    between atoms: C_10  and  C_15
REMARK    8  A    between atoms: C_10  and  C_16
REMARK    9  A    between atoms: C_22  and  C_23
REMARK   10  A    between atoms: C_23  and  C_24
REMARK   11  A    between atoms: C_24  and  C_25
REMARK                            x       y       z     vdW  Elec       q    Type
REMARK                         _______ _______ _______ _____ _____    ______ ____
ROOT
ATOM      1  O   UNL     1      -1.903   3.546  25.549  0.00  0.00    -0.361 OA
ATOM      3  O   UNL     1      -5.231   4.689  26.110  0.00  0.00    -0.273 OA
ATOM      5  N   UNL     1      -4.500   2.877  24.837  0.00  0.00    -0.291 N 
ATOM      7  C   UNL     1      -3.358   2.096  24.305  0.00  0.00    +0.135 C 
ATOM      8  C   UNL     1      -2.143   2.171  25.249  0.00  0.00    +0.171 C 
ATOM     12  C   UNL     1      -4.331   3.932  25.737  0.00  0.00    +0.242 C 
ATOM     14  C   UNL     1      -2.945   4.079  26.331  0.00  0.00    +0.256 C 
ENDROOT
BRANCH   8  13
ATOM     13  C   UNL     1      -0.862   1.615  24.662  0.00  0.00    -0.017 A 
ATOM     17  C   UNL     1      -0.746   0.249  24.410  0.00  0.00    +0.008 A 
ATOM     18  C   UNL     1       0.202   2.471  24.374  0.00  0.00    +0.008 A 
ATOM     19  C   UNL     1       0.434  -0.262  23.869  0.00  0.00    +0.023 A 
ATOM     20  C   UNL     1       1.381   1.959  23.833  0.00  0.00    +0.023 A 
ATOM     21  C   UNL     1       1.497   0.592  23.580  0.00  0.00    +0.033 A 
BRANCH  21   6
ATOM      4  O   UNL     1       4.035   1.984  22.783  0.00  0.00    -0.275 OA
ATOM      6  N   UNL     1       2.676   0.081  23.040  0.00  0.00    -0.285 N 
ATOM     22  C   UNL     1       3.845   0.776  22.691  0.00  0.00    +0.217 C 
ATOM     27  H   UNL     1       2.681  -0.925  22.885  0.00  0.00    +0.155 HD
BRANCH  22  23
ATOM     23  C   UNL     1       4.903  -0.168  22.130  0.00  0.00    +0.096 C 
BRANCH  23  24
ATOM     24  C   UNL     1       6.079  -0.410  23.073  0.00  0.00    +0.006 C 
ATOM     25  C   UNL     1       5.639  -0.626  24.513  0.00  0.00    +0.004 C 
ENDBRANCH  23  24
ENDBRANCH  22  23
ENDBRANCH  21   6
ENDBRANCH   8  13
BRANCH   5   9
ATOM      9  C   UNL     1      -5.809   2.692  24.215  0.00  0.00    +0.111 C 
BRANCH   9  10
ATOM     10  C   UNL     1      -6.691   1.710  24.994  0.00  0.00    +0.000 C 
ATOM     15  C   UNL     1      -6.321   1.734  26.476  0.00  0.00    +0.009 C 
ATOM     16  C   UNL     1      -6.569   0.286  24.447  0.00  0.00    +0.009 C 
ENDBRANCH   9  10
ENDBRANCH   5   9
BRANCH   7  11
ATOM     11  C   UNL     1      -3.728   0.634  24.016  0.00  0.00    +0.181 C 
BRANCH  11   2
ATOM      2  O   UNL     1      -3.694  -0.078  25.236  0.00  0.00    -0.393 OA
ATOM     26  H   UNL     1      -3.332   0.522  25.910  0.00  0.00    +0.209 HD
ENDBRANCH  11   2
ENDBRANCH   7  11
TORSDOF 8
ENDMDL
